20
Energy: -102205.270702 eV PBE+vdW (tier 2 basis)
N    -1.089237  0.414965  0.963391
C    0.257889  0.361412  1.685451
C    1.186568  1.464688  1.132687
O    2.366895  1.474200  1.340236
H    -1.020196  0.017306  0.015572
H    -1.381865  1.399473  0.851693
H    0.035200  0.643195  2.727120
C    0.911609  -1.017612  1.622999
C    0.231982  -2.097854  2.469682
C    1.072427  -3.349917  2.669617
O    2.308299  -3.368198  2.333705
O    0.522811  -4.373793  3.209368
H    1.941349  -0.865044  1.972894
H    1.008731  -1.337598  0.573227
H    -0.735557  -2.434833  2.066781
H    0.015835  -1.726302  3.486156
O    0.473160  2.393761  0.452568
H    1.071481  3.113245  0.159583
H    -1.823218  -0.096481  1.471239
Sr    2.531837  -5.549613  3.181030
