20
Energy: -102205.345563 eV PBE+vdW (tier 2 basis)
N    -0.252014  0.691531  -0.208308
C    -0.117054  -0.072773  1.107816
C    0.999927  0.549377  1.960446
O    1.457556  0.008430  2.934082
H    -0.194245  1.709048  -0.044665
H    -1.145468  0.478509  -0.674245
H    -1.058929  0.116657  1.647453
C    0.040007  -1.574465  0.823228
C    -0.199922  -2.476604  2.044919
C    1.020535  -2.844490  2.862374
O    2.178698  -2.925290  2.315961
O    0.853398  -3.146569  4.096261
H    1.035929  -1.779811  0.402698
H    -0.700821  -1.841029  0.054832
H    -0.603282  -3.438903  1.689589
H    -0.960013  -2.075174  2.727100
O    1.343952  1.769049  1.493244
H    2.011233  2.176093  2.084630
H    0.506714  0.448451  -0.862195
Sr    3.092799  -3.635037  4.354781
