20
Energy: -102206.034457 eV PBE+vdW (tier 2 basis)
N    -1.149043  0.936021  1.005253
C    -0.653655  0.247899  2.270474
C    0.867897  0.442523  2.292250
O    1.433161  0.696169  1.172018
H    -0.320226  0.990829  0.371966
H    -1.464470  1.897575  1.192540
H    -1.120324  0.743683  3.129491
C    -1.009209  -1.252949  2.293534
C    -0.260131  -2.181750  1.290811
C    0.976395  -2.838453  1.867502
O    2.115141  -2.338915  1.869130
O    0.724192  -4.022096  2.382315
H    -2.090571  -1.352633  2.120952
H    -0.854151  -1.595249  3.325101
H    -0.943013  -2.985986  0.994221
H    0.041335  -1.650497  0.377838
O    1.488487  0.205904  3.360131
H    -1.922354  0.437956  0.545363
H    1.536632  -4.433646  2.748355
Sr    3.451909  -0.370388  2.092757
