20
Energy: -102204.661291 eV PBE+vdW (tier 2 basis)
N    0.225047  0.651078  0.613957
C    0.262685  -0.011528  1.953860
C    1.695019  0.115441  2.490275
O    2.422596  1.041996  2.079013
H    0.534631  -0.053891  -0.069717
H    -0.810794  0.718786  0.412415
H    -0.315714  0.636665  2.640566
C    -0.386454  -1.413443  1.969572
C    -1.914443  -1.450304  2.155350
C    -2.772747  -0.721783  1.136797
O    -2.427094  0.253658  0.470131
O    -3.991848  -1.240359  1.082008
H    0.017701  -2.017305  2.798369
H    -0.092071  -1.952506  1.055736
H    -2.189091  -1.026734  3.136769
H    -2.244130  -2.496473  2.194384
O    2.167929  -0.663984  3.422084
H    1.550024  -1.377629  3.681831
H    -4.546019  -0.717977  0.464326
Sr    1.855295  2.603789  0.461683
