20
Energy: -102204.398379 eV PBE+vdW (tier 2 basis)
N    -0.119435  1.012212  0.390183
C    -0.138335  0.217119  1.615627
C    1.303128  -0.289063  1.728699
O    2.096128  0.200544  2.583444
H    -0.575074  1.914190  0.503224
H    -0.476144  0.556178  -0.445228
H    -0.242779  0.919339  2.452273
C    -1.267910  -0.828300  1.809369
C    -1.187388  -2.231437  1.140420
C    -0.972973  -2.238503  -0.340509
O    0.136065  -1.905538  -0.866967
O    -1.886831  -2.576097  -1.196767
H    -2.199022  -0.331381  1.501855
H    -1.371890  -1.032615  2.884130
H    -2.110996  -2.774454  1.381265
H    -0.360958  -2.811615  1.579553
O    1.786553  -1.152047  0.862202
H    0.857236  -1.610633  -0.140549
H    -2.727499  -2.848312  -0.776572
Sr    4.038031  -0.560013  1.566324
