20
Energy: -102205.608793 eV PBE+vdW (tier 2 basis)
N    -0.012732  0.593200  0.279267
C    -0.138632  0.211545  1.715687
C    1.264805  0.346200  2.320456
O    2.250211  0.028539  1.639106
H    0.097676  1.612293  0.227009
H    -0.906347  0.418207  -0.189505
H    -0.858334  0.867971  2.229634
C    -0.554635  -1.279870  1.936441
C    -1.540405  -1.909733  0.944515
C    -0.910742  -2.508970  -0.290670
O    0.257009  -2.283636  -0.668264
O    -1.722378  -3.307558  -0.939756
H    -0.999053  -1.337945  2.937991
H    0.342532  -1.914803  1.979766
H    -2.088904  -2.723100  1.443000
H    -2.341899  -1.224018  0.619458
O    1.442758  0.720478  3.562039
H    0.620563  0.990952  4.017776
H    -1.295768  -3.694648  -1.734395
Sr    2.081607  -0.766225  -0.611798
