20
Energy: -102204.640351 eV PBE+vdW (tier 2 basis)
N    0.287853  -0.277502  0.113014
C    0.008220  -0.238143  1.555842
C    1.283165  -0.624359  2.273457
O    1.838123  -1.760189  2.178035
H    -0.553700  0.003383  -0.395227
H    0.990667  0.423827  -0.133809
H    -0.256575  0.760095  1.939514
C    -1.135113  -1.232242  1.950481
C    -1.543955  -2.287132  0.915100
C    -0.583572  -3.325189  0.411420
O    -0.984944  -4.148724  -0.467749
O    0.643125  -3.468644  0.850719
H    -2.030599  -0.627549  2.140951
H    -0.906729  -1.709117  2.914102
H    -1.978746  -1.833714  0.011717
H    -2.385785  -2.864313  1.335586
O    1.808992  0.285286  3.030661
H    2.622747  -0.031081  3.485510
H    1.276499  -2.466183  1.577662
Sr    0.940830  -5.401224  -0.619430
