20
Energy: -102205.617862 eV PBE+vdW (tier 2 basis)
N    -0.350137  -0.269616  0.439580
C    -0.364275  -0.056590  1.929733
C    1.021504  0.423070  2.376009
O    1.859387  0.822830  1.492194
H    -1.240270  0.001123  0.007687
H    -0.185831  -1.347355  0.258156
H    -1.032173  0.795262  2.137343
C    -0.921044  -1.271399  2.694704
C    -0.098377  -2.570415  2.731149
C    0.006281  -3.338590  1.432597
O    -0.022577  -2.829195  0.305174
O    0.163884  -4.636408  1.618140
H    -1.931434  -1.476804  2.311108
H    -1.062877  -0.941306  3.731651
H    0.933641  -2.385315  3.074130
H    -0.528603  -3.240247  3.486832
O    1.286906  0.477384  3.619418
H    0.409604  0.281291  0.014011
H    0.253367  -5.089016  0.751993
Sr    3.335024  1.573296  3.216392
