20
Energy: -102204.972568 eV PBE+vdW (tier 2 basis)
N    0.830562  -2.049237  0.327534
C    0.361505  -1.211230  1.423316
C    0.857455  -1.858313  2.714514
O    0.236344  -2.776986  3.296967
H    1.827923  -1.992351  0.130276
H    0.533806  -3.022644  0.374848
H    0.844215  -0.226552  1.313598
C    -1.163994  -1.030426  1.320676
C    -1.806839  0.094821  2.145579
C    -2.212441  -0.204937  3.566275
O    -2.239142  -1.351418  4.053929
O    -2.598178  0.776836  4.351355
H    -1.673790  -1.986720  1.510709
H    -1.342156  -0.809444  0.260276
H    -2.742229  0.402319  1.643398
H    -1.183957  1.004666  2.143865
O    2.039684  -1.544899  3.208869
H    2.479980  -0.825275  2.714213
H    -2.583858  1.651868  3.913478
Sr    -1.457264  -3.411235  4.689113
