20
Energy: -102205.499988 eV PBE+vdW (tier 2 basis)
N    -0.228449  -1.537683  -0.020838
C    -0.011885  -0.364313  0.905815
C    1.515719  -0.356032  1.131095
O    2.195433  -1.301623  0.780423
H    0.671014  -2.079139  0.045500
H    -0.342581  -1.245147  -0.997466
H    -0.318255  0.555870  0.391439
C    -0.763883  -0.523239  2.235482
C    -2.302346  -0.467812  2.182030
C    -3.041562  -1.744804  1.862810
O    -4.193559  -1.934770  2.372604
O    -2.541525  -2.651712  1.075290
H    -0.429811  0.309505  2.868355
H    -0.424542  -1.438728  2.743988
H    -2.650429  0.288426  1.456031
H    -2.691000  -0.123158  3.148912
O    1.922028  0.746797  1.740173
H    2.892592  0.712997  1.880887
H    -1.059065  -2.106115  0.280516
Sr    -4.509981  -4.025576  1.460541
