20
Energy: -102205.964329 eV PBE+vdW (tier 2 basis)
N    -0.352720  0.942882  0.668247
C    0.006260  -0.142113  1.669693
C    1.524284  -0.336064  1.554198
O    2.026672  -0.161730  0.391958
H    -0.230359  1.886430  1.062042
H    -1.318232  0.869392  0.318755
H    -0.275058  0.204064  2.671113
C    -0.740069  -1.440130  1.279384
C    -0.512099  -2.659941  2.189795
C    0.694758  -3.529509  1.894502
O    1.611203  -3.213350  1.124238
O    0.793502  -4.690798  2.513078
H    -0.489465  -1.701858  0.240308
H    -1.817628  -1.220266  1.306997
H    -1.404655  -3.302135  2.132513
H    -0.435513  -2.362140  3.249537
O    2.157618  -0.788965  2.542295
H    0.320725  0.837931  -0.120124
H    0.026969  -4.897703  3.083804
Sr    3.614809  -1.931994  0.970667
