20
Energy: -102205.917067 eV PBE+vdW (tier 2 basis)
N    0.215456  0.848684  0.252863
C    -0.169484  0.400330  1.625812
C    1.062750  -0.177235  2.311493
O    2.048459  -0.596341  1.682769
H    0.517097  1.827448  0.313878
H    -0.633907  0.887073  -0.318827
H    -0.504985  1.258980  2.227108
C    -1.341494  -0.617230  1.653241
C    -1.092789  -2.102995  1.296203
C    -0.834621  -2.411643  -0.153882
O    0.198635  -2.069154  -0.767988
O    -1.794107  -3.093037  -0.730788
H    -2.157493  -0.206701  1.039678
H    -1.725341  -0.615896  2.681833
H    -0.240882  -2.506172  1.866708
H    -1.976147  -2.670942  1.610344
O    0.958707  -0.219095  3.616668
H    1.757386  -0.614708  4.030267
H    -1.578407  -3.303072  -1.665807
Sr    2.109167  -0.713293  -0.712573
