20
Energy: -102204.216639 eV PBE+vdW (tier 2 basis)
N    0.492567  -0.795401  -0.579711
C    0.163677  -0.466063  0.852136
C    1.476689  -0.242112  1.603771
O    2.553130  -0.086694  0.987435
H    -0.287314  -0.461463  -1.156827
H    0.429748  -1.818292  -0.672216
H    -0.331139  0.522228  0.851456
C    -0.792031  -1.493246  1.486032
C    -1.436483  -1.091664  2.820542
C    -2.844034  -1.712064  2.923525
O    -3.449837  -2.133970  1.966691
O    -3.274006  -1.680694  4.189630
H    -0.281044  -2.463827  1.585158
H    -1.627570  -1.648766  0.783476
H    -0.874798  -1.421181  3.710488
H    -1.590180  -0.001253  2.899933
O    1.495861  -0.166291  2.901737
H    0.611802  -0.334191  3.303869
H    -4.182395  -2.046665  4.223306
Sr    2.918171  -0.059820  -1.270084
