20
Energy: -102204.514166 eV PBE+vdW (tier 2 basis)
N    0.388659  -0.883191  0.239277
C    -0.016089  -0.212652  1.476744
C    1.015177  -0.553052  2.539909
O    1.232665  -1.734379  2.933932
H    -0.268384  -0.647707  -0.507285
H    1.299809  -0.549786  -0.083613
H    -0.040131  0.891749  1.404585
C    -1.436005  -0.679097  1.952457
C    -2.030668  -1.932831  1.297683
C    -1.402225  -3.289495  1.454730
O    -1.985491  -4.291968  0.936889
O    -0.298575  -3.511281  2.119812
H    -2.131096  0.139928  1.728545
H    -1.452992  -0.774881  3.047356
H    -2.175297  -1.804815  0.214029
H    -3.060121  -2.052262  1.675417
O    1.736062  0.356077  3.119435
H    1.549559  1.257200  2.784560
H    0.561404  -2.452599  2.518073
Sr    -0.508299  -5.901448  1.682769
