20
Energy: -102205.464058 eV PBE+vdW (tier 2 basis)
N    2.027419  1.237699  0.872648
C    0.772017  0.393860  1.018463
C    -0.314221  1.456529  1.303748
O    -0.015318  2.633982  1.384598
H    2.738878  1.028960  1.582315
H    1.660630  2.224607  1.026520
H    0.560938  -0.058804  0.039208
C    0.875172  -0.682570  2.104459
C    1.824812  -1.834817  1.757686
C    1.765236  -3.009587  2.720444
O    2.663781  -3.918362  2.626611
O    0.823812  -3.103698  3.584440
H    -0.138539  -1.077118  2.251857
H    1.152749  -0.214858  3.062443
H    2.881567  -1.532212  1.699666
H    1.587804  -2.253263  0.764702
O    -1.519457  0.926682  1.423659
H    -2.179346  1.636351  1.578948
H    2.461378  1.171323  -0.054926
Sr    1.663688  -5.184703  4.300510
