20
Energy: -102205.834434 eV PBE+vdW (tier 2 basis)
N    -0.014705  1.079779  0.403522
C    -0.095950  0.373231  1.715950
C    1.272962  -0.223355  2.034222
O    2.192069  -0.309021  1.204533
H    0.305620  2.038818  0.578462
H    -0.965649  1.203116  0.042816
H    -0.289862  1.089813  2.530726
C    -1.255792  -0.659462  1.798232
C    -1.611551  -1.517106  0.558302
C    -0.533950  -2.429719  0.043685
O    0.428305  -2.030834  -0.646288
O    -0.687505  -3.689283  0.371674
H    -2.166918  -0.095853  2.039539
H    -1.073125  -1.308361  2.664646
H    -2.483550  -2.124226  0.830225
H    -1.919082  -0.882350  -0.285681
O    1.380859  -0.617482  3.280056
H    2.275460  -0.977205  3.466948
H    0.022742  -4.251716  -0.007813
Sr    1.764624  -0.166784  -1.140755
