20
Energy: -102204.19474 eV PBE+vdW (tier 2 basis)
N    0.056806  -0.314331  -0.112920
C    0.201896  -0.057564  1.363045
C    1.386183  -0.812494  1.972211
O    1.765891  -0.631225  3.090133
H    -0.431934  0.464131  -0.574453
H    0.959041  -0.464897  -0.580813
H    0.372196  1.011802  1.540007
C    -1.145578  -0.547886  1.920791
C    -1.415869  -1.845139  1.149098
C    -0.939652  -1.614852  -0.298210
O    -1.825372  -1.351585  -1.230744
O    -0.093482  -2.689501  -0.827715
H    -1.920912  0.204491  1.721407
H    -1.095746  -0.690867  3.005191
H    -2.479230  -2.105451  1.132411
H    -0.870715  -2.685588  1.600522
O    1.929192  -1.729261  1.093966
H    2.707739  -2.127073  1.539505
H    0.610490  -2.948768  -0.198047
Sr    -1.706521  -3.020956  -2.714926
