20
Energy: -102204.171956 eV PBE+vdW (tier 2 basis)
N    -0.500030  0.065537  0.138688
C    -0.140476  -0.158814  1.597071
C    1.304991  -0.680815  1.701189
O    1.710439  -1.297906  2.646514
H    -1.214141  0.794959  0.022020
H    0.341828  0.317963  -0.403022
H    -0.153386  0.825961  2.086861
C    -1.165490  -1.102602  2.240072
C    -1.310245  -2.411951  1.511502
C    -2.521351  -2.941417  1.217678
O    -3.721473  -2.454432  1.334051
O    -2.638566  -4.291805  0.726119
H    -2.136341  -0.592941  2.311646
H    -0.816087  -1.265708  3.270988
H    -0.430033  -3.051020  1.419003
H    -0.881250  -0.833254  -0.218268
O    2.027054  -0.307296  0.613959
H    2.958956  -0.585928  0.732812
H    -1.786790  -4.762630  0.708291
Sr    -5.080384  -4.200189  1.027390
