20
Energy: -102205.175332 eV PBE+vdW (tier 2 basis)
N    0.831255  -1.264338  -0.012873
C    0.017949  -0.287477  0.807267
C    1.050737  0.589938  1.542929
O    2.205662  0.231009  1.618255
H    1.153247  -2.033360  0.643125
H    1.670600  -0.801434  -0.389971
H    -0.583001  0.304131  0.102932
C    -0.903386  -1.053083  1.782411
C    -0.293325  -1.523820  3.111979
C    0.839920  -2.520803  3.130730
O    1.230966  -2.949829  4.264635
O    1.437996  -2.941308  2.056693
H    -1.367113  -1.892894  1.242760
H    -1.739922  -0.386853  2.033938
H    -1.090689  -1.965887  3.729089
H    0.058216  -0.669802  3.715178
O    0.613511  1.695543  2.145251
H    -0.311673  1.924556  1.934882
H    0.279233  -1.663267  -0.781482
Sr    2.996821  -4.181020  3.463271
