20
Energy: -102204.424207 eV PBE+vdW (tier 2 basis)
N    -0.521194  -0.517867  -0.139688
C    -0.164921  0.031738  1.218175
C    1.366399  0.128389  1.218819
O    2.015962  -0.322948  0.293267
H    0.409799  -0.765307  -0.562661
H    -0.994650  0.168854  -0.735777
H    -0.617909  1.022682  1.342725
C    -0.733453  -0.990636  2.231227
C    -1.921162  -1.616418  1.494365
C    -1.391931  -1.844806  0.076625
O    -0.629016  -2.898075  -0.143315
O    -2.423712  -1.860816  -0.977801
H    -1.019546  -0.498767  3.165542
H    0.016707  -1.755891  2.468882
H    -2.776604  -0.921758  1.485070
H    -2.249464  -2.563245  1.936752
O    1.820437  0.708876  2.317113
H    2.800814  0.743570  2.299220
H    -3.226346  -1.363438  -0.735764
Sr    -1.582017  -4.150392  -1.707029
