20
Energy: -102204.981451 eV PBE+vdW (tier 2 basis)
N    -0.184118  0.041944  -0.112488
C    -0.086600  -0.014042  1.399255
C    1.431083  0.171839  1.674394
O    1.748914  0.346116  2.923022
H    -0.693175  -0.751422  -0.521335
H    -0.609385  0.910125  -0.459162
H    -0.632835  0.844302  1.810918
C    -0.688588  -1.335981  1.918897
C    -0.425763  -1.626012  3.407239
C    0.860384  -2.375753  3.631056
O    1.343198  -3.226576  2.952817
O    1.521206  -2.008991  4.879460
H    -0.296107  -2.179550  1.329798
H    -1.774353  -1.301612  1.757750
H    -1.208580  -2.311951  3.774467
H    -0.491801  -0.732443  4.037345
O    2.203139  0.136540  0.723580
H    0.838290  0.015712  -0.403325
H    1.993673  -2.826794  5.146541
Sr    2.897292  0.108547  4.774062
