20
Energy: -102204.909735 eV PBE+vdW (tier 2 basis)
N    0.132382  0.408196  0.221826
C    0.369310  0.041975  1.682585
C    1.871936  -0.181446  1.865292
O    2.337844  -0.240376  3.043625
H    0.863372  -0.054117  -0.348941
H    0.200154  1.420533  0.050829
H    0.048624  0.895137  2.295341
C    -0.406398  -1.226106  2.062282
C    -1.928142  -1.074967  2.031536
C    -2.575916  -2.317926  2.651129
O    -1.950145  -3.179337  3.226052
O    -3.904876  -2.293205  2.471569
H    -0.102595  -1.498494  3.082145
H    -0.086952  -2.063177  1.421051
H    -2.346424  -0.953685  1.018689
H    -2.260366  -0.201374  2.614351
O    2.606978  -0.357526  0.829606
H    -0.799870  0.098050  -0.088365
H    -4.290374  -3.084220  2.901758
Sr    4.495877  -0.785988  2.285005
