20
Energy: -102205.205539 eV PBE+vdW (tier 2 basis)
N    -0.931203  1.310794  2.191563
C    -0.336128  0.017346  2.704811
C    0.832007  0.540469  3.603655
O    1.632365  -0.335949  4.158053
H    -1.934667  1.411267  2.378248
H    -0.768807  1.461478  1.188800
H    -1.089596  -0.436025  3.364367
C    0.065512  -0.961216  1.573871
C    -0.362390  -2.429533  1.742349
C    0.413716  -3.329576  2.674793
O    0.263600  -4.588969  2.572835
O    1.223897  -2.866713  3.576176
H    1.145984  -0.893582  1.383971
H    -0.414716  -0.624097  0.644255
H    -0.331780  -2.927446  0.762259
H    -1.419927  -2.507341  2.048431
O    0.938594  1.745529  3.759099
H    -0.359870  2.032159  2.752982
H    1.425973  -1.284028  3.896526
Sr    1.808868  -5.121790  4.221313
