20
Energy: -102205.485434 eV PBE+vdW (tier 2 basis)
N    -0.880378  0.717804  0.619254
C    -0.027713  -0.243836  1.440486
C    1.249580  0.461067  1.909365
O    1.957917  0.047544  2.814505
H    -0.387283  1.027720  -0.232778
H    -1.139325  1.567167  1.144005
H    -0.615807  -0.502420  2.333927
C    0.279762  -1.527806  0.609986
C    0.063148  -2.838115  1.396587
C    0.890302  -2.801538  2.663163
O    2.133758  -3.081966  2.606830
O    0.351830  -2.336543  3.731232
H    1.307292  -1.485190  0.223373
H    -0.378056  -1.542550  -0.272475
H    0.383953  -3.674303  0.763942
H    -0.995516  -2.968287  1.653557
O    1.506135  1.551292  1.191528
H    2.345274  1.976215  1.474081
H    -1.754224  0.254159  0.327662
Sr    2.507353  -1.819414  4.532771
