29
Energy: -173816.27037 eV PBE+vdW (tier 2 basis)
C    -0.205714  1.573483  0.519632
C    -0.993574  0.314091  0.697127
O    -1.382162  -0.275367  -0.362213
H    0.699891  1.347974  -0.060073
H    0.073118  2.052918  1.463697
H    -0.799770  2.276110  -0.081298
N    -1.234598  -0.093064  1.955909
C    -2.063567  -1.171108  2.566944
C    -1.466225  -2.581325  2.392290
O    -1.401224  -3.188277  1.267232
H    -0.815414  0.517339  2.652945
H    -1.968451  -0.944021  3.636742
C    -3.596997  -1.079549  2.338561
C    -4.265917  -1.429368  1.001068
C    -5.806504  -1.227316  1.080755
O    -6.332953  -0.724691  2.038461
O    -6.385067  -1.671850  -0.037240
H    -3.889619  -0.053885  2.601889
H    -4.052308  -1.715367  3.111599
H    -4.171151  -2.503793  0.724770
H    -3.969206  -0.754137  0.174159
N    -1.038860  -3.192145  3.482897
C    -0.486991  -4.550904  3.527222
H    -1.070313  -2.681284  4.362310
H    0.609709  -4.509095  3.503891
H    -0.848334  -5.121164  2.668092
H    -0.810537  -5.028170  4.457630
H    -7.353569  -1.523956  0.015343
Cd    -2.137040  -2.255428  -0.500664
