29
Energy: -173816.490498 eV PBE+vdW (tier 2 basis)
C    0.660238  0.315120  -0.219342
C    0.222987  1.087070  0.984755
O    0.898247  2.157061  1.228729
H    0.091297  -0.610421  -0.355051
H    1.729170  0.080989  -0.121892
H    0.551075  0.948095  -1.110926
N    -0.814089  0.619652  1.678595
C    -1.346334  0.909304  3.034158
C    -2.037988  2.276490  3.185935
O    -1.418653  3.379716  3.430680
H    -1.050781  -0.355078  1.449481
H    -2.154142  0.171670  3.122298
C    -0.326626  0.598423  4.167574
C    -0.435461  -0.827167  4.739899
C    -0.410143  -1.973794  3.740499
O    -0.794379  -1.907048  2.577732
O    0.036050  -3.090214  4.307883
H    -0.483929  1.294157  5.004194
H    0.698863  0.761628  3.799265
H    -1.381168  -0.932919  5.298155
H    0.356263  -0.984584  5.482964
N    -3.355438  2.288385  3.148456
C    -4.204200  3.471676  3.321213
H    -3.831241  1.396339  3.025888
H    -4.541367  3.538344  4.364075
H    -5.076018  3.371156  2.666765
H    -3.640156  4.371352  3.064024
H    -0.029924  -3.830865  3.668630
Cd    0.549476  3.578624  2.716986
