29
Energy: -173816.142922 eV PBE+vdW (tier 2 basis)
C    -0.965399  1.437919  0.060827
C    -0.955552  0.714389  1.368589
O    -0.160390  1.058144  2.327218
H    -1.637962  0.986483  -0.675618
H    0.055763  1.449927  -0.344917
H    -1.269254  2.487165  0.206150
N    -1.769453  -0.314207  1.537161
C    -1.898799  -1.234519  2.670689
C    -2.834412  -2.334200  2.095352
O    -3.558848  -2.021515  1.137370
H    -2.400941  -0.619759  0.772011
H    -0.907448  -1.637883  2.923673
C    -2.515247  -0.626018  3.965294
C    -3.716463  0.319675  3.769057
C    -3.297071  1.726769  3.431623
O    -2.339798  2.260660  4.033840
O    -3.914254  2.430791  2.504777
H    -1.731045  -0.107620  4.527222
H    -2.836144  -1.462971  4.598296
H    -4.258832  0.388807  4.727788
H    -4.437733  -0.059252  3.030217
N    -2.833909  -3.530716  2.692863
C    -3.680244  -4.642975  2.260491
H    -2.127194  -3.723760  3.398231
H    -4.543108  -4.243499  1.719801
H    -4.009418  -5.204848  3.141081
H    -3.123020  -5.315484  1.593876
H    -4.689751  1.966152  2.129579
Cd    -0.438948  2.952012  3.256210
