29
Energy: -173816.991718 eV PBE+vdW (tier 2 basis)
C    -3.846839  -0.439859  -0.116164
C    -2.883651  -0.388230  1.021785
O    -1.657474  -0.619798  0.792816
H    -3.509931  0.252672  -0.899650
H    -4.872089  -0.188946  0.175954
H    -3.826553  -1.447321  -0.554452
N    -3.362875  -0.089859  2.256004
C    -2.472802  0.060221  3.397231
C    -2.140786  -1.280001  4.085566
O    -1.017363  -1.826392  3.807080
H    -4.363487  0.065267  2.351195
H    -1.537037  0.309391  2.907783
C    -2.635982  1.312179  4.287510
C    -1.652158  2.421893  3.831198
C    -0.170963  2.077581  3.890080
O    0.422731  1.164169  3.268572
O    0.500218  2.894838  4.666494
H    -2.445343  1.052144  5.337226
H    -3.655392  1.717956  4.246708
H    -1.805358  3.321836  4.436511
H    -1.866771  2.699079  2.785682
N    -2.961331  -1.872879  4.931766
C    -4.279106  -1.439337  5.394999
H    -2.616877  -2.760659  5.304778
H    -5.019599  -2.213703  5.161158
H    -4.577236  -0.505944  4.911083
H    -4.258787  -1.283895  6.480640
H    1.461511  2.689433  4.654243
Cd    0.040326  -0.798838  2.190200
