29
Energy: -173816.817303 eV PBE+vdW (tier 2 basis)
C    -3.720973  -0.625309  -0.079379
C    -2.747481  -0.509625  1.045176
O    -1.521048  -0.735436  0.815252
H    -3.397550  0.030648  -0.899114
H    -4.745844  -0.369392  0.209716
H    -3.695589  -1.652863  -0.468038
N    -3.219597  -0.161752  2.269659
C    -2.319858  0.043891  3.394516
C    -1.960480  -1.266293  4.126245
O    -0.832399  -1.806586  3.856212
H    -4.222492  -0.025812  2.369453
H    -1.392645  0.290440  2.888860
C    -2.498896  1.319190  4.249034
C    -1.536093  2.441526  3.764916
C    -0.047084  2.098642  3.785512
O    0.477713  1.180806  3.123533
O    0.772847  2.824537  4.512111
H    -2.299229  1.089034  5.304044
H    -3.525548  1.705902  4.202913
H    -1.719709  3.343097  4.362968
H    -1.775418  2.708391  2.722719
N    -2.763648  -1.843272  5.000406
C    -4.084123  -1.416664  5.461528
H    -2.400992  -2.712424  5.399211
H    -4.055577  -1.216346  6.539662
H    -4.811594  -2.214278  5.268481
H    -4.407029  -0.510715  4.942537
H    0.328671  3.555551  4.984887
Cd    0.203664  -0.844890  2.187976
