29
Energy: -173816.948984 eV PBE+vdW (tier 2 basis)
C    0.717249  0.486816  0.547288
C    -0.545004  1.078722  1.070172
O    -0.904770  2.228891  0.657216
H    1.104595  -0.326835  1.168393
H    1.468440  1.286647  0.494535
H    0.566501  0.136266  -0.484850
N    -1.308383  0.437531  1.981937
C    -1.476182  -0.992494  2.293944
C    -1.283610  -1.897885  1.077916
O    -1.835102  -1.660695  -0.069749
H    -2.004668  1.028861  2.436095
H    -0.745569  -1.294825  3.060792
C    -2.897616  -1.175857  2.914014
C    -4.137859  -0.937582  2.003512
C    -4.005429  0.340323  1.199126
O    -4.266950  1.463577  1.735334
O    -3.482635  0.288799  0.022484
H    -2.941173  -0.506744  3.786336
H    -2.968849  -2.195596  3.313924
H    -5.018232  -0.862538  2.653088
H    -4.294810  -1.775983  1.314356
N    -0.567071  -2.987439  1.214584
C    -0.373780  -4.025741  0.193048
H    -0.100900  -3.130601  2.109340
H    -0.508474  -5.005737  0.663798
H    0.645186  -3.956801  -0.208590
H    -1.099191  -3.890759  -0.611973
H    -2.512257  -0.872447  -0.082157
Cd    -3.028496  2.579516  0.275081
