29
Energy: -173816.416345 eV PBE+vdW (tier 2 basis)
C    0.380599  0.949110  0.337972
C    0.343341  0.407439  1.729677
O    1.447091  -0.051860  2.192208
H    0.743435  0.158580  -0.335026
H    1.113507  1.765857  0.287156
H    -0.593666  1.302844  -0.015497
N    -0.823134  0.430376  2.390944
C    -1.298685  -0.255057  3.619810
C    -0.940229  0.467449  4.922371
O    0.267612  0.539195  5.381503
H    -1.575882  0.868858  1.864778
H    -2.392256  -0.224909  3.524146
C    -0.991501  -1.768362  3.700158
C    -1.656835  -2.598800  2.596130
C    -3.180532  -2.507171  2.604864
O    -3.814374  -1.602763  3.128338
O    -3.721928  -3.530545  1.948250
H    -1.348512  -2.109780  4.683184
H    0.093195  -1.994458  3.678223
H    -1.370334  -3.653034  2.702575
H    -1.312024  -2.301913  1.593029
N    -1.890804  0.999384  5.661619
C    -3.341571  1.082494  5.426688
H    -1.552290  1.431700  6.525141
H    -3.831211  1.112884  6.405102
H    -3.711524  0.208591  4.881877
H    -3.584782  2.004558  4.883559
H    -4.697747  -3.434212  1.944482
Cd    1.841190  -0.263764  4.248152
