29
Energy: -173816.982127 eV PBE+vdW (tier 2 basis)
C    0.344120  0.248310  -0.342316
C    0.006698  -0.120936  1.062606
O    0.951730  -0.280326  1.894783
H    -0.538176  0.356115  -0.982078
H    1.013866  -0.513912  -0.762784
H    0.904944  1.193509  -0.334095
N    -1.301622  -0.263548  1.395202
C    -1.688598  -0.513606  2.774546
C    -1.655677  -2.020131  3.126155
O    -0.631455  -2.496228  3.717254
H    -1.998002  -0.130958  0.665975
H    -0.857274  -0.072187  3.320127
C    -2.845004  0.290889  3.379230
C    -2.725821  0.288805  4.931950
C    -1.430003  0.839620  5.529669
O    -0.284636  0.404664  5.292357
O    -1.494680  1.825698  6.395998
H    -3.838715  -0.094580  3.112460
H    -2.789590  1.319703  2.996874
H    -2.816162  -0.741012  5.316435
H    -3.583471  0.837444  5.340719
N    -2.680050  -2.786589  2.796937
C    -2.761919  -4.235589  3.019940
H    -3.474006  -2.347783  2.336013
H    -2.881922  -4.744748  2.056329
H    -3.627055  -4.458507  3.655384
H    -1.846312  -4.576123  3.507702
H    -2.405645  2.133886  6.569351
Cd    0.918434  -0.979882  3.987275
