29
Energy: -173817.273431 eV PBE+vdW (tier 2 basis)
C    0.265575  1.245731  -0.926945
C    -0.372304  0.851257  0.366791
O    0.119031  -0.101292  1.028278
H    0.412149  0.350998  -1.545178
H    1.267121  1.646123  -0.711158
H    -0.302612  1.993773  -1.489770
N    -1.464966  1.548423  0.761172
C    -2.259337  1.446981  1.999040
C    -1.387647  1.750473  3.246891
O    -0.754002  0.842320  3.879977
H    -1.758157  2.282651  0.122957
H    -2.963639  2.279702  1.908331
C    -3.136148  0.156350  2.209830
C    -3.218728  -0.908845  1.089920
C    -2.783584  -2.303650  1.509327
O    -1.827373  -2.545732  2.278157
O    -3.403936  -3.352820  1.033509
H    -4.154107  0.512842  2.403970
H    -2.852569  -0.321387  3.159972
H    -2.581535  -0.648630  0.228118
H    -4.238809  -0.952484  0.688482
N    -1.313597  2.995470  3.687866
C    -1.973492  4.201533  3.171557
H    -0.716118  3.111441  4.508474
H    -1.660288  4.416680  2.142832
H    -1.666865  5.042272  3.799859
H    -3.065739  4.116746  3.232350
H    -4.170959  -3.133541  0.468444
Cd    -0.431366  -1.043386  2.912945
