29
Energy: -173815.886974 eV PBE+vdW (tier 2 basis)
C    0.721262  -1.217380  -0.168695
C    0.431474  -0.178510  0.844442
O    1.265051  0.800449  0.964388
H    1.583918  -1.799012  0.198799
H    1.035658  -0.753936  -1.111426
H    -0.102012  -1.935343  -0.299206
N    -0.618292  -0.224066  1.682407
C    -1.895476  -0.974566  1.647426
C    -1.692026  -2.523441  1.742488
O    -1.351935  -3.151078  0.737662
H    -0.564527  0.462911  2.433131
H    -2.420097  -0.635607  2.550792
C    -2.764229  -0.648258  0.420864
C    -3.175598  0.847295  0.271022
C    -2.018327  1.734805  -0.082288
O    -1.515153  2.528209  0.740781
O    -1.437225  1.648935  -1.272342
H    -3.696104  -1.223364  0.512560
H    -2.278998  -1.026663  -0.489613
H    -3.630877  1.232589  1.190907
H    -3.933119  0.916189  -0.525589
N    -1.922748  -3.076645  2.943062
C    -1.842601  -4.518888  3.176797
H    -2.277379  -2.495507  3.696669
H    -1.504465  -4.692056  4.203584
H    -1.133718  -4.954872  2.466331
H    -2.823610  -4.992369  3.035528
H    -1.916226  1.072835  -1.902358
Cd    0.678530  2.836557  0.669627
