29
Energy: -173816.046437 eV PBE+vdW (tier 2 basis)
C    0.392760  -0.244104  0.513754
C    0.071423  -0.544911  1.938155
O    0.893966  -1.162606  2.714550
H    0.639828  -1.182340  -0.002551
H    1.279465  0.405114  0.458505
H    -0.430213  0.248912  -0.013264
N    -1.105644  -0.198559  2.433092
C    -1.651883  -0.504398  3.761211
C    -3.179540  -0.674170  3.461819
O    -3.611236  -0.122785  2.443828
H    -1.864321  0.135690  1.809378
H    -1.202708  -1.431977  4.138217
C    -1.508027  0.664542  4.775826
C    -0.253704  0.686803  5.696517
C    1.056884  0.794736  4.980160
O    1.954404  -0.055754  5.139649
O    1.280503  1.764332  4.101063
H    -2.361854  0.631831  5.466942
H    -1.625663  1.612433  4.229413
H    -0.205795  -0.209843  6.324484
H    -0.350829  1.550997  6.375677
N    -3.950825  -1.344832  4.330297
C    -3.537422  -2.197491  5.442225
H    -4.931600  -1.388533  4.051905
H    -4.386664  -2.305480  6.124498
H    -2.713041  -1.748613  6.007534
H    -3.241994  -3.198270  5.096961
H    0.569547  2.436081  4.078122
Cd    2.907457  -0.760955  3.291483
