29
Energy: -173816.89422 eV PBE+vdW (tier 2 basis)
C    0.369267  0.642103  0.960896
C    0.174351  -0.393184  2.010781
O    1.187712  -1.019841  2.468604
H    1.184843  1.303292  1.288232
H    -0.522324  1.244466  0.762743
H    0.715300  0.168259  0.030826
N    -1.041070  -0.666825  2.531585
C    -2.382214  -0.543443  1.923543
C    -3.394085  -0.977833  2.980734
O    -3.262614  -2.103748  3.616327
H    -0.991108  -1.271829  3.347869
H    -2.569618  0.512200  1.680618
C    -2.554057  -1.360547  0.602295
C    -2.502101  -2.911812  0.669418
C    -1.254558  -3.370432  1.389736
O    -0.173953  -3.518165  0.745037
O    -1.269859  -3.458969  2.679555
H    -1.785034  -1.000178  -0.094439
H    -3.518945  -1.078227  0.158047
H    -2.484029  -3.291677  -0.358709
H    -3.387437  -3.326871  1.167189
N    -4.433260  -0.227367  3.241594
C    -5.520886  -0.554504  4.175021
H    -4.486128  0.676561  2.774238
H    -6.475160  -0.317885  3.692043
H    -5.413143  0.054033  5.081932
H    -5.479514  -1.614711  4.433240
H    -2.493980  -2.711119  3.276473
Cd    1.092626  -3.203195  2.516301
