29
Energy: -173816.261812 eV PBE+vdW (tier 2 basis)
C    0.735328  2.278705  1.510650
C    0.305115  0.951281  2.036343
O    1.224773  0.274270  2.654148
H    1.537498  2.120211  0.774535
H    -0.087391  2.823339  1.035870
H    1.164188  2.877851  2.324625
N    -0.945434  0.558436  1.843601
C    -1.599272  -0.752657  1.927043
C    -2.401307  -0.802053  0.558646
O    -2.721409  0.284815  0.083462
H    -1.533570  1.144275  1.213382
H    -0.858307  -1.572700  1.943211
C    -2.661379  -0.848857  3.051420
C    -2.217288  -0.853005  4.543820
C    -1.684098  -2.182359  5.017776
O    -0.486807  -2.565139  4.863411
O    -2.455752  -3.058381  5.594638
H    -3.285025  -1.732872  2.857234
H    -3.328338  0.015954  2.928737
H    -3.089279  -0.576851  5.153643
H    -1.467289  -0.068428  4.738306
N    -2.721901  -1.997727  0.046386
C    -2.285785  -3.320598  0.486764
H    -3.269610  -1.941875  -0.811476
H    -2.772456  -4.066703  -0.147851
H    -1.200213  -3.453446  0.376220
H    -2.587694  -3.534263  1.521527
H    -3.366435  -2.738866  5.758923
Cd    0.845815  -1.372236  3.797756
