29
Energy: -173816.023853 eV PBE+vdW (tier 2 basis)
C    -0.326681  1.289490  -0.031850
C    -0.601044  0.495950  1.204030
O    0.148754  0.592630  2.255167
H    -0.952857  0.991335  -0.879092
H    0.730511  1.178343  -0.306749
H    -0.515665  2.359035  0.159707
N    -1.620330  -0.341861  1.212653
C    -2.084203  -1.228624  2.276710
C    -3.244038  -2.002525  1.584853
O    -3.709654  -1.529368  0.540067
H    -2.224454  -0.458448  0.375145
H    -1.270665  -1.916378  2.555222
C    -2.557231  -0.524749  3.579341
C    -3.470286  0.735151  3.399736
C    -2.727449  1.922901  3.951293
O    -1.866375  2.503033  3.252747
O    -2.888783  2.326259  5.190575
H    -1.662295  -0.277685  4.163198
H    -3.099788  -1.265824  4.179771
H    -4.431473  0.597515  3.909605
H    -3.684546  0.928976  2.341229
N    -3.686981  -3.121324  2.175919
C    -4.763851  -3.939647  1.619014
H    -3.154990  -3.509143  2.950923
H    -5.423841  -3.301923  1.023312
H    -5.320355  -4.403109  2.440206
H    -4.356667  -4.728769  0.971327
H    -3.620965  1.871563  5.653598
Cd    0.305855  2.506044  3.178287
