29
Energy: -173816.423272 eV PBE+vdW (tier 2 basis)
C    0.419641  1.656754  0.912028
C    0.343835  0.635001  2.000151
O    1.396516  0.496865  2.721714
H    -0.470571  1.670673  0.274607
H    1.309217  1.458255  0.298690
H    0.561916  2.648902  1.363464
N    -0.794505  -0.050018  2.144847
C    -1.136566  -1.272004  2.914482
C    -1.377913  -1.022795  4.411967
O    -0.425642  -0.923608  5.276778
H    -1.477717  0.114120  1.403954
H    -2.103563  -1.547667  2.483442
C    -0.225472  -2.488829  2.644212
C    0.014407  -2.798740  1.156254
C    -1.238296  -2.778134  0.284365
O    -2.113348  -1.925873  0.364983
O    -1.234119  -3.772901  -0.598322
H    -0.690667  -3.351461  3.143789
H    0.774152  -2.393147  3.118144
H    0.507981  -3.773153  1.065484
H    0.704680  -2.064574  0.711071
N    -2.612136  -0.967044  4.870944
C    -3.889557  -1.102816  4.155727
H    -2.675313  -0.848778  5.885232
H    -4.656490  -0.597462  4.750747
H    -4.164124  -2.160433  4.052713
H    -3.850001  -0.624214  3.172845
H    -2.019953  -3.695359  -1.180528
Cd    1.511865  -0.499475  4.569026
