29
Energy: -173816.838594 eV PBE+vdW (tier 2 basis)
C    1.080821  -0.009047  1.348357
C    0.405016  -0.058240  2.674182
O    1.097026  -0.316637  3.711981
H    0.386537  -0.069678  0.504145
H    1.781831  -0.853464  1.295427
H    1.689649  0.904102  1.271562
N    -0.923943  0.146051  2.803011
C    -1.889058  0.890393  1.976657
C    -1.271468  2.094170  1.275410
O    -0.471548  2.920199  1.878710
H    -1.307915  -0.141632  3.703307
H    -2.316736  0.225860  1.213344
C    -3.062453  1.339978  2.905982
C    -2.760231  2.384234  4.020311
C    -1.499500  2.038345  4.788924
O    -1.529747  1.155553  5.703791
O    -0.375036  2.536595  4.404401
H    -3.467282  0.420505  3.354266
H    -3.865370  1.745698  2.276795
H    -3.611139  2.387162  4.712313
H    -2.656704  3.394199  3.605794
N    -1.565778  2.369931  0.026711
C    -2.401695  1.612578  -0.917430
H    -1.170452  3.250052  -0.314472
H    -2.228708  2.023166  -1.915954
H    -3.465326  1.723082  -0.673299
H    -2.123673  0.552681  -0.928857
H    -0.392139  2.797058  2.906220
Cd    0.651653  0.772231  5.556119
