29
Energy: -173816.39578 eV PBE+vdW (tier 2 basis)
C    -1.612999  -1.860605  0.636068
C    -0.942987  -0.687550  1.281364
O    0.285465  -0.532403  1.296518
H    -1.245789  -2.777448  1.117840
H    -1.298767  -1.913362  -0.414485
H    -2.706598  -1.839497  0.690482
N    -1.760416  0.253443  1.875330
C    -1.300736  1.368367  2.694275
C    -0.417490  2.446867  2.024722
O    -0.536911  3.688169  2.425981
H    -2.760497  0.180631  1.718391
H    -2.234291  1.910601  2.927853
C    -0.610557  0.903633  4.021038
C    -1.549408  0.443667  5.142966
C    -2.207525  1.492367  6.016852
O    -2.133078  2.744881  5.888281
O    -2.931637  1.108829  7.031689
H    0.086677  1.675564  4.400071
H    0.058710  0.073676  3.757534
H    -0.988901  -0.212658  5.830216
H    -2.354843  -0.195481  4.740546
N    0.447598  2.120117  1.111156
C    1.351214  3.029355  0.406646
H    0.528619  1.078422  0.968114
H    2.364444  2.613642  0.450020
H    1.326181  4.023515  0.858309
H    1.044672  3.093921  -0.645303
H    -2.966799  0.137588  7.153300
Cd    -1.285961  3.868127  4.338699
