29
Energy: -173815.956117 eV PBE+vdW (tier 2 basis)
C    -0.824909  0.350353  -0.366305
C    -0.915121  -0.214717  1.018497
O    -0.295703  -1.230244  1.365586
H    0.143560  0.863988  -0.463531
H    -1.622965  1.064109  -0.599883
H    -0.830242  -0.470059  -1.092085
N    -1.722164  0.451939  1.918591
C    -1.617934  0.314173  3.368027
C    -2.165893  -1.047197  3.912569
O    -2.896866  -1.027998  4.963306
H    -2.178084  1.290817  1.571606
H    -0.543480  0.270004  3.632607
C    -2.178279  1.554730  4.084892
C    -3.667941  1.980775  3.850338
C    -4.629814  1.102726  4.593433
O    -5.215918  0.154263  4.026645
O    -4.823633  1.251143  5.892706
H    -1.568664  2.406725  3.752411
H    -1.983324  1.450399  5.159905
H    -3.943958  1.955546  2.788831
H    -3.777102  3.020919  4.189652
N    -1.801279  -2.148286  3.297839
C    -2.235280  -3.472232  3.697592
H    -1.130380  -1.995910  2.484232
H    -1.840969  -4.206128  2.988620
H    -3.344285  -3.556802  3.659381
H    -1.900686  -3.714336  4.714382
H    -4.378135  2.035167  6.272583
Cd    -4.935325  -1.746587  5.102816
