29
Energy: -173816.289677 eV PBE+vdW (tier 2 basis)
C    0.210577  -0.226743  0.066579
C    -0.361455  0.653942  1.126547
O    -0.474796  1.899439  0.855628
H    0.311292  -1.270475  0.383078
H    1.184581  0.166083  -0.252711
H    -0.452084  -0.183002  -0.811327
N    -0.742655  0.098206  2.287977
C    -1.638747  0.647133  3.330548
C    -0.820021  1.345595  4.439726
O    -0.312970  2.516155  4.243122
H    -0.555918  -0.900266  2.369568
H    -2.248884  1.438056  2.858929
C    -2.583939  -0.478476  3.783203
C    -3.687239  -0.051051  4.779955
C    -3.792739  -0.934031  6.013654
O    -4.817529  -1.310598  6.511995
O    -2.550547  -1.234469  6.529845
H    -1.985031  -1.303985  4.197511
H    -3.056542  -0.879695  2.877182
H    -4.672682  -0.050690  4.303885
H    -3.529242  0.973233  5.156679
N    -0.622699  0.758390  5.595606
C    0.158686  1.350618  6.689418
H    -1.119372  -0.117164  5.805711
H    0.240780  0.608736  7.487277
H    -0.341970  2.248584  7.073006
H    1.158387  1.622779  6.333683
H    -2.684732  -1.791579  7.324798
Cd    -0.421930  3.421531  2.330755
