29
Energy: -173817.418194 eV PBE+vdW (tier 2 basis)
C    0.744368  1.372549  -1.107183
C    -0.006134  0.862578  0.083749
O    0.271915  -0.307075  0.487451
H    0.404595  2.351890  -1.459463
H    0.652811  0.641340  -1.921452
H    1.811937  1.428940  -0.851749
N    -0.926359  1.688991  0.621483
C    -1.926391  1.590232  1.715238
C    -1.307749  1.464067  3.117881
O    -0.487146  0.554013  3.452228
H    -0.973647  2.580658  0.135762
H    -2.371234  2.592322  1.701218
C    -3.164392  0.685777  1.428774
C    -3.063653  -0.828582  1.099237
C    -3.020462  -1.783600  2.266879
O    -1.981715  -2.264210  2.781378
O    -4.201319  -2.119821  2.720939
H    -3.643815  1.140512  0.551808
H    -3.872546  0.835906  2.257327
H    -2.220068  -1.043936  0.429886
H    -3.973620  -1.080095  0.537949
N    -1.662828  2.356412  4.034773
C    -2.536713  3.531219  3.913221
H    -1.232046  2.197933  4.946986
H    -3.555120  3.248073  3.621156
H    -2.125010  4.263807  3.207406
H    -2.590104  4.007298  4.896263
H    -4.130285  -2.757172  3.466618
Cd    -0.116270  -1.258025  2.347235
