29
Energy: -173816.043944 eV PBE+vdW (tier 2 basis)
C    0.195762  -0.180542  0.327732
C    0.145430  0.094340  1.796061
O    1.222874  0.206813  2.501614
H    0.802856  -1.080199  0.156117
H    0.689958  0.650741  -0.200846
H    -0.794128  -0.326320  -0.116520
N    -1.032296  0.206564  2.385508
C    -1.360001  0.389926  3.803143
C    -2.899876  0.189328  3.808571
O    -3.489625  0.378027  2.729407
H    -1.911649  0.104396  1.841564
H    -0.835705  -0.374606  4.391514
C    -1.010367  1.788046  4.396739
C    -1.320423  3.002714  3.499817
C    -0.233508  3.274434  2.493131
O    0.969191  3.194885  2.827696
O    -0.508289  3.601015  1.247104
H    0.047498  1.803708  4.679891
H    -1.574660  1.899270  5.330755
H    -1.367679  3.899939  4.140887
H    -2.298962  2.923420  3.003730
N    -3.541821  -0.113634  4.942811
C    -3.008607  -0.535355  6.235243
H    -4.554633  -0.175832  4.826514
H    -3.241599  -1.593353  6.414282
H    -3.468015  0.062781  7.032279
H    -1.924183  -0.404894  6.280611
H    -1.468209  3.703711  1.085067
Cd    2.513622  1.852830  2.117156
