29
Energy: -173817.486063 eV PBE+vdW (tier 2 basis)
C    0.419781  0.557353  0.220329
C    0.092986  0.175022  1.628497
O    1.033390  -0.055503  2.435619
H    0.937628  1.527466  0.235358
H    -0.456827  0.631049  -0.431738
H    1.128122  -0.170347  -0.195945
N    -1.215687  0.090870  1.964500
C    -1.842607  -0.201244  3.266536
C    -1.459341  0.871338  4.320271
O    -0.436564  0.758276  5.075101
H    -1.866538  0.285918  1.208994
H    -2.909116  -0.063311  3.063523
C    -1.693887  -1.658019  3.844307
C    -0.978746  -2.746252  3.008424
C    0.195382  -3.401533  3.698719
O    1.057544  -2.815793  4.399793
O    0.272212  -4.688817  3.493236
H    -2.712951  -2.010647  4.039743
H    -1.253784  -1.600680  4.852445
H    -0.581477  -2.345574  2.061033
H    -1.675259  -3.538724  2.714456
N    -2.231643  1.935741  4.460942
C    -3.473140  2.278033  3.754988
H    -1.907184  2.595114  5.170676
H    -3.299199  2.394096  2.678485
H    -3.822950  3.237597  4.145452
H    -4.256824  1.532929  3.940703
H    1.070322  -5.075972  3.918532
Cd    1.072358  -0.659384  4.526022
