29
Energy: -173817.189102 eV PBE+vdW (tier 2 basis)
C    0.758499  1.393938  -1.079112
C    0.026259  0.886026  0.123480
O    0.471012  -0.161752  0.680912
H    1.772530  1.688946  -0.773827
H    0.269282  2.240017  -1.572522
H    0.872767  0.570300  -1.796436
N    -1.064087  1.580862  0.510223
C    -2.103872  1.406741  1.553342
C    -1.582659  1.576762  2.992813
O    -0.560968  0.980099  3.453205
H    -1.233568  2.394343  -0.075242
H    -2.734154  2.289894  1.391027
C    -3.120997  0.245426  1.315734
C    -2.710037  -1.247842  1.172466
C    -2.554244  -2.030228  2.460866
O    -1.482942  -2.143497  3.094028
O    -3.587675  -2.644652  2.987366
H    -3.615258  0.500723  0.369019
H    -3.899271  0.344351  2.087498
H    -1.791909  -1.357580  0.580486
H    -3.499549  -1.730144  0.578066
N    -2.239756  2.407528  3.793858
C    -3.377965  3.289217  3.503311
H    -1.852677  2.454290  4.737838
H    -4.261331  2.720226  3.189603
H    -3.118277  4.040263  2.746136
H    -3.631276  3.818536  4.426101
H    -4.391163  -2.603154  2.432845
Cd    0.202676  -0.874210  2.672161
