29
Energy: -173817.192381 eV PBE+vdW (tier 2 basis)
C    -0.136139  -0.958420  0.009107
C    -0.084367  -0.676663  1.478302
O    1.029302  -0.356966  1.986100
H    0.564578  -1.770941  -0.224769
H    0.223969  -0.067744  -0.525256
H    -1.134127  -1.216679  -0.360285
N    -1.247417  -0.766826  2.159547
C    -1.707351  -0.407763  3.528414
C    -0.922324  0.711159  4.246295
O    0.195258  0.531558  4.828120
H    -2.028455  -1.038066  1.566156
H    -2.698290  0.024408  3.327832
C    -2.054034  -1.625927  4.441900
C    -1.012289  -2.368524  5.322121
C    -0.017174  -3.249306  4.604083
O    1.111990  -2.868938  4.224196
O    -0.306090  -4.502594  4.340620
H    -2.587713  -2.350163  3.808908
H    -2.806381  -1.250162  5.149935
H    -1.592522  -2.997880  6.013164
H    -0.459450  -1.661598  5.953834
N    -1.529620  1.885510  4.329730
C    -0.991971  3.056363  5.027715
H    -2.452245  1.983339  3.912675
H    0.097076  2.983492  5.078197
H    -1.400036  3.107880  6.045730
H    -1.284692  3.955743  4.476690
H    -1.159159  -4.792128  4.719509
Cd    1.666736  -0.802082  3.978324
