29
Energy: -173816.685528 eV PBE+vdW (tier 2 basis)
C    0.085003  0.737448  1.252898
C    -0.977844  1.233879  2.159619
O    -0.864929  2.353335  2.743790
H    -0.037136  -0.313061  0.974766
H    1.050609  0.869927  1.765228
H    0.138815  1.372825  0.355592
N    -2.117666  0.500323  2.391102
C    -2.979841  -0.092721  1.366311
C    -3.308320  0.967405  0.291395
O    -3.355849  2.208199  0.586472
H    -2.565434  0.713817  3.281756
H    -2.466470  -0.946909  0.904755
C    -4.287964  -0.628648  2.005751
C    -5.407481  0.383508  2.394060
C    -5.214098  1.182007  3.669551
O    -4.434612  2.152522  3.794166
O    -5.890266  0.869091  4.748423
H    -4.012141  -1.259193  2.863646
H    -4.742295  -1.310133  1.275148
H    -6.338428  -0.192617  2.479859
H    -5.575074  1.108814  1.584062
N    -3.585706  0.592777  -0.947665
C    -3.620168  -0.751334  -1.534037
H    -3.838224  1.364544  -1.568364
H    -3.315787  -0.675886  -2.582750
H    -4.634901  -1.167757  -1.492456
H    -2.925095  -1.426112  -1.025442
H    -6.510531  0.124318  4.620496
Cd    -2.930626  3.119632  2.544174
