29
Energy: -173817.380917 eV PBE+vdW (tier 2 basis)
C    1.843419  1.378288  1.855499
C    0.582228  0.576223  1.911028
O    -0.056755  0.366959  0.845425
H    2.589175  0.811550  1.278953
H    2.260075  1.615834  2.839878
H    1.656354  2.306073  1.299998
N    0.189380  0.118845  3.123448
C    -0.949352  -0.738713  3.507289
C    -0.856696  -2.142370  2.850449
O    -1.289091  -2.390608  1.678087
H    0.808700  0.365487  3.890405
H    -0.789115  -0.890138  4.580798
C    -2.400443  -0.143745  3.362174
C    -2.592490  1.331200  2.935921
C    -3.420683  1.520995  1.675160
O    -3.377110  0.766527  0.678785
O    -4.226002  2.547038  1.571284
H    -2.877153  -0.272954  4.340549
H    -2.993636  -0.799703  2.706322
H    -1.629460  1.829556  2.734685
H    -3.044703  1.902853  3.755980
N    -0.314887  -3.113516  3.563736
C    -0.146895  -4.490360  3.080459
H    -0.022771  -2.911264  4.516196
H    -1.118488  -4.998785  3.041366
H    0.513677  -5.019157  3.772130
H    0.294807  -4.481918  2.078566
H    -4.270934  3.095088  2.379633
Cd    -1.874719  -0.748283  0.426755
