29
Energy: -173816.646189 eV PBE+vdW (tier 2 basis)
C    0.780506  -0.212708  0.205291
C    0.404578  -0.109291  1.644845
O    1.217185  -0.500078  2.533414
H    1.674805  0.399839  0.023192
H    -0.016464  0.101382  -0.477114
H    1.058702  -1.252555  -0.015212
N    -0.827374  0.385345  1.941862
C    -1.242908  0.581024  3.318181
C    -2.420854  -0.230529  3.832163
O    -2.307469  -0.712732  5.041843
H    -1.372923  0.745740  1.164328
H    -0.420544  0.095683  3.845820
C    -1.300626  2.060601  3.813825
C    -0.905095  2.231193  5.318900
C    0.330507  1.380895  5.503165
O    1.452336  1.831399  5.109727
O    0.181024  0.128252  5.783846
H    -2.295231  2.500476  3.662263
H    -0.592261  2.627530  3.196050
H    -1.701143  1.906950  5.998696
H    -0.686002  3.287497  5.508273
N    -3.550010  -0.458780  3.214730
C    -3.989436  0.037267  1.906013
H    -4.212676  -1.042994  3.732614
H    -3.623729  1.055449  1.734209
H    -5.083153  0.073756  1.910254
H    -3.665848  -0.639064  1.104961
H    -1.409852  -0.500785  5.454585
Cd    2.112190  -0.170641  4.508778
