29
Energy: -173816.732208 eV PBE+vdW (tier 2 basis)
C    0.363847  1.876864  1.713884
C    0.121058  0.418484  1.912343
O    1.151187  -0.335123  2.034935
H    -0.559328  2.454410  1.596696
H    1.015473  2.026941  0.843204
H    0.913220  2.256007  2.589136
N    -1.144830  -0.022028  1.970128
C    -1.674101  -1.301950  2.503013
C    -1.871536  -2.321031  1.359678
O    -0.842083  -2.900441  0.814548
H    -1.855226  0.691121  1.809762
H    -0.898011  -1.727810  3.164466
C    -2.894297  -0.945016  3.376654
C    -3.587737  -2.094774  4.136503
C    -4.960413  -2.421165  3.575865
O    -5.253934  -2.299327  2.387086
O    -5.799319  -2.854992  4.501217
H    -3.633690  -0.415466  2.755664
H    -2.529637  -0.213160  4.109157
H    -3.693903  -1.847004  5.198616
H    -3.005550  -3.030884  4.112405
N    -3.062950  -2.606229  0.915185
C    -3.320133  -3.547160  -0.181414
H    -3.918694  -2.271286  1.445012
H    -4.403112  -3.642869  -0.290639
H    -2.880302  -4.527238  0.040001
H    -2.888135  -3.167131  -1.114908
H    -6.661780  -3.080023  4.090929
Cd    1.090918  -2.352718  1.412872
