29
Energy: -173816.132319 eV PBE+vdW (tier 2 basis)
C    0.367514  0.160400  0.573893
C    -0.006010  0.050863  2.012032
O    0.984187  -0.047687  2.854326
H    0.923577  -0.732947  0.258922
H    1.060510  1.008079  0.465910
H    -0.494316  0.318576  -0.080652
N    -1.248722  0.062523  2.454568
C    -2.550396  -0.045854  1.792525
C    -3.488708  0.578698  2.874821
O    -3.012440  0.683687  4.021818
H    -1.505968  0.291913  3.463913
H    -2.578535  0.531342  0.859578
C    -2.914878  -1.523474  1.496101
C    -2.948497  -2.483173  2.727916
C    -1.590579  -2.678937  3.335721
O    -1.285002  -2.180159  4.444084
O    -0.637051  -3.323323  2.680547
H    -2.228296  -1.906887  0.726308
H    -3.915510  -1.557957  1.045619
H    -3.335051  -3.457889  2.392039
H    -3.617363  -2.108871  3.511531
N    -4.734586  0.931683  2.558245
C    -5.407318  0.908134  1.260347
H    -5.267762  1.299301  3.346685
H    -5.995894  1.825406  1.150241
H    -6.085298  0.047901  1.180067
H    -4.683508  0.878220  0.439755
H    -0.951665  -3.766776  1.866482
Cd    0.643533  -1.214519  4.571964
