29
Energy: -173816.237145 eV PBE+vdW (tier 2 basis)
C    0.447011  -0.618089  0.127730
C    0.322780  -0.981525  1.569303
O    1.337205  -1.532956  2.123733
H    0.749163  -1.500025  -0.451574
H    1.258943  0.118924  0.028830
H    -0.471336  -0.190197  -0.288551
N    -0.822793  -0.697354  2.208498
C    -1.077495  -0.580724  3.661531
C    -1.640505  -1.891270  4.259262
O    -0.912369  -2.959071  4.292048
H    -1.551062  -0.298874  1.618319
H    -0.095805  -0.448167  4.151441
C    -1.875337  0.707300  3.939322
C    -3.176861  0.911518  3.114111
C    -4.367619  1.309925  3.972520
O    -5.013929  2.313267  3.868080
O    -4.625313  0.331762  4.910340
H    -1.199590  1.550686  3.749755
H    -2.080395  0.739999  5.017982
H    -3.486404  -0.004634  2.581905
H    -3.052073  1.699413  2.364562
N    -2.844980  -1.944852  4.772783
C    -3.411370  -3.150407  5.391809
H    -3.445854  -1.106419  4.780172
H    -3.593116  -3.919273  4.630810
H    -4.357150  -2.874504  5.864243
H    -2.721960  -3.548781  6.144834
H    -5.398212  0.612674  5.443352
Cd    1.118753  -2.910638  3.714487
