29
Energy: -173817.382085 eV PBE+vdW (tier 2 basis)
C    -1.331102  0.178363  0.056234
C    -0.970509  0.020801  1.499206
O    0.239010  -0.141441  1.812558
H    -0.902452  1.124267  -0.306286
H    -2.409750  0.181211  -0.132407
H    -0.856736  -0.623606  -0.523534
N    -1.981200  0.056109  2.399717
C    -1.962663  -0.001599  3.874976
C    -1.191534  1.200489  4.486819
O    0.073024  1.200312  4.640492
H    -2.902979  0.195891  1.995534
H    -3.017072  0.142622  4.136640
C    -1.526777  -1.353988  4.554093
C    -1.246533  -2.601793  3.683339
C    0.151005  -3.179565  3.840045
O    1.186508  -2.496251  3.996889
O    0.332233  -4.474252  3.784204
H    -2.329433  -1.609871  5.255154
H    -0.668126  -1.163122  5.216329
H    -1.357954  -2.385543  2.607598
H    -1.987386  -3.382449  3.896651
N    -1.910427  2.242242  4.867656
C    -1.372433  3.473538  5.455701
H    -2.921785  2.184481  4.773167
H    -1.818869  4.334830  4.946403
H    -0.287258  3.489195  5.335963
H    -1.626931  3.513803  6.522319
H    -0.497814  -4.984416  3.703293
Cd    1.227946  -0.364260  3.734247
