29
Energy: -173815.881653 eV PBE+vdW (tier 2 basis)
C    0.062321  0.660512  1.008447
C    -0.231321  0.062264  2.341846
O    0.767127  -0.026073  3.169794
H    -0.819440  0.758610  0.369502
H    0.845487  0.087869  0.494913
H    0.482284  1.662988  1.183222
N    -1.430569  -0.346720  2.721049
C    -2.678810  -0.602705  2.000765
C    -3.746433  -0.064689  3.003372
O    -3.416903  -0.059385  4.197483
H    -1.654378  -0.417609  3.738179
H    -2.682425  -0.089093  1.033540
C    -2.925137  -2.132921  1.855287
C    -1.814602  -2.963019  1.189068
C    -0.542957  -3.089586  1.986464
O    -0.528724  -3.078823  3.236514
O    0.623350  -3.187528  1.368618
H    -3.841641  -2.270717  1.266019
H    -3.134086  -2.547936  2.851031
H    -1.569734  -2.598286  0.179659
H    -2.192294  -3.992548  1.049853
N    -4.957878  0.315344  2.571577
C    -5.507767  0.326420  1.223175
H    -5.575517  0.621208  3.325601
H    -4.729551  0.141993  0.476860
H    -5.956979  1.306104  1.018145
H    -6.288619  -0.440258  1.119365
H    0.544219  -3.256999  0.395340
Cd    0.993443  -1.849298  4.234244
