29
Energy: -173816.771988 eV PBE+vdW (tier 2 basis)
C    0.330170  -0.037802  0.465020
C    0.064214  0.392498  1.857660
O    0.993882  0.845664  2.589188
H    0.997013  -0.916046  0.524072
H    0.890211  0.731982  -0.080576
H    -0.570980  -0.338515  -0.077200
N    -1.195880  0.290796  2.406057
C    -2.434453  0.822240  1.829774
C    -2.207898  2.286442  1.378714
O    -1.410288  3.056430  2.005005
H    -1.189961  0.176056  3.419144
H    -2.732894  0.213805  0.963006
C    -3.585941  0.740901  2.867797
C    -3.657087  1.796625  4.011830
C    -2.725428  1.606243  5.192929
O    -1.498551  1.853141  5.183259
O    -3.191003  1.149179  6.329974
H    -3.603975  -0.281245  3.274170
H    -4.523023  0.849294  2.306970
H    -4.692014  1.793747  4.379077
H    -3.478800  2.808664  3.619649
N    -2.910168  2.717131  0.344434
C    -2.889013  4.080944  -0.195856
H    -3.508278  2.044512  -0.131981
H    -3.902968  4.497384  -0.173693
H    -2.534977  4.055799  -1.233341
H    -2.220555  4.697998  0.407848
H    -4.155123  0.987194  6.322086
Cd    -0.075447  2.462562  3.653966
