29
Energy: -173816.180911 eV PBE+vdW (tier 2 basis)
C    -0.070029  -0.396443  -0.520938
C    -0.535649  0.553723  0.538304
O    -0.330391  1.772741  0.491701
H    -0.609106  -0.163563  -1.450376
H    -0.232400  -1.451245  -0.273244
H    0.994250  -0.221322  -0.718839
N    -1.232065  0.019894  1.607287
C    -1.927244  0.881012  2.557015
C    -0.955887  1.497979  3.611592
O    -0.995786  1.331783  4.906031
H    -1.288378  -0.989153  1.687670
H    -2.245830  1.760408  1.970504
C    -3.228517  0.241842  3.075296
C    -3.171920  -1.218786  3.627515
C    -4.135360  -1.467201  4.773751
O    -4.074127  -0.831031  5.862665
O    -5.073481  -2.364889  4.713068
H    -3.945401  0.256453  2.243970
H    -3.687617  0.933371  3.807981
H    -2.172336  -1.472167  4.024138
H    -3.360831  -1.932754  2.816034
N    -0.017106  2.249658  3.103966
C    1.023576  2.961481  3.843429
H    -0.026342  2.284586  2.045719
H    1.287743  3.859509  3.276599
H    1.915843  2.327937  3.938218
H    0.667764  3.235972  4.840227
H    -5.110777  -2.851535  3.864833
Cd    -2.571803  0.642134  6.020154
