29
Energy: -173816.851743 eV PBE+vdW (tier 2 basis)
C    1.111882  1.048886  0.156402
C    0.188091  1.429323  1.267756
O    0.190387  2.591786  1.782298
H    1.119309  1.844757  -0.598657
H    0.856184  0.097221  -0.321702
H    2.132602  0.958770  0.559956
N    -0.668366  0.494985  1.718959
C    -1.621632  0.567633  2.846007
C    -2.247284  1.964149  3.012567
O    -1.919783  2.773113  3.965640
H    -0.656233  -0.395994  1.227074
H    -2.465121  -0.060977  2.524843
C    -1.130467  -0.066842  4.191529
C    0.376344  -0.081500  4.526092
C    1.074275  1.240574  4.329620
O    2.186863  1.267733  3.717280
O    0.485665  2.338140  4.667259
H    -1.445613  -1.118473  4.184663
H    -1.702770  0.396408  5.006931
H    0.918559  -0.832108  3.941761
H    0.483219  -0.369368  5.583980
N    -3.237892  2.306100  2.224720
C    -3.981042  3.571378  2.285553
H    -3.548653  1.623451  1.536278
H    -3.377095  4.328870  2.789922
H    -4.916756  3.421081  2.839575
H    -4.212516  3.888447  1.263716
H    -1.023378  2.526500  4.398883
Cd    1.812220  3.355959  3.093096
