29
Energy: -173816.402655 eV PBE+vdW (tier 2 basis)
C    1.602848  -1.075517  1.489985
C    0.779342  -0.994644  2.727303
O    1.380494  -1.303022  3.835224
H    1.974611  -2.104391  1.377819
H    2.483909  -0.427844  1.595044
H    1.037745  -0.794395  0.595164
N    -0.493683  -0.635516  2.644324
C    -1.521359  -0.574088  3.684241
C    -2.863444  -0.639001  2.867956
O    -2.861485  -0.052283  1.791766
H    -0.889530  -0.368487  1.729118
H    -1.443803  -1.460869  4.341583
C    -1.459519  0.790203  4.443459
C    -2.313577  0.946086  5.708893
C    -1.825036  0.318507  6.995403
O    -0.776783  -0.367090  7.146648
O    -2.514278  0.480180  8.090118
H    -1.786983  1.553486  3.721742
H    -0.411841  1.086152  4.649046
H    -3.344111  0.591905  5.536085
H    -2.422827  2.023701  5.921637
N    -3.929306  -1.256723  3.412450
C    -3.962198  -2.227794  4.506761
H    -4.750684  -1.227385  2.807491
H    -3.545992  -3.200041  4.207940
H    -5.005875  -2.380276  4.798575
H    -3.431334  -1.863623  5.395968
H    -3.311445  1.039250  7.982971
Cd    0.570654  -0.962230  5.682020
