29
Energy: -173817.529886 eV PBE+vdW (tier 2 basis)
C    -1.061630  0.472486  -0.148005
C    -0.526673  0.105365  1.198485
O    0.672125  -0.304714  1.263255
H    -0.980986  -0.401766  -0.808961
H    -0.425219  1.256559  -0.580488
H    -2.101249  0.815678  -0.129098
N    -1.362660  0.230632  2.252436
C    -1.180256  -0.118886  3.678844
C    -0.195220  0.853418  4.367674
O    1.060680  0.742606  4.244534
H    -2.284011  0.586691  2.013123
H    -2.164625  0.063648  4.128949
C    -0.881647  -1.639298  3.860957
C    -0.313364  -2.104595  5.221649
C    1.090607  -2.692018  5.189111
O    1.970448  -2.421472  4.345553
O    1.447151  -3.539183  6.122334
H    -0.252059  -2.013269  3.039828
H    -1.836065  -2.152012  3.687907
H    -0.985911  -2.850576  5.666043
H    -0.270078  -1.283183  5.957692
N    -0.727830  1.818363  5.105121
C    0.030890  2.864453  5.797882
H    -1.741392  1.862314  5.178768
H    1.098171  2.646362  5.721196
H    -0.270728  2.892190  6.851139
H    -0.181490  3.837664  5.338061
H    0.727525  -3.768350  6.743304
Cd    1.888473  -0.797706  2.942117
