29
Energy: -173817.066289 eV PBE+vdW (tier 2 basis)
C    -3.785127  -0.492818  -0.227937
C    -2.859162  -0.391851  0.936669
O    -1.623830  -0.621284  0.758382
H    -4.826806  -0.275551  0.031364
H    -3.715402  -1.502650  -0.654662
H    -3.451058  0.204965  -1.008417
N    -3.377946  -0.053442  2.145399
C    -2.495975  0.151996  3.282564
C    -2.129479  -1.167258  4.000954
O    -0.958333  -1.649668  3.821243
H    -4.377810  0.119890  2.205883
H    -1.577770  0.451848  2.780363
C    -2.686513  1.378336  4.188631
C    -1.338009  1.719215  4.884794
C    -0.175153  2.091559  3.979064
O    0.387541  1.367483  3.121782
O    0.253901  3.312526  4.191270
H    -3.443624  1.237842  4.968839
H    -3.014783  2.222854  3.566502
H    -0.996223  0.866462  5.494343
H    -1.496648  2.555186  5.574327
N    -2.973974  -1.808443  4.788317
C    -4.351765  -1.478636  5.154407
H    -2.597494  -2.672589  5.185632
H    -4.991039  -2.346171  4.952308
H    -4.723414  -0.629833  4.576335
H    -4.409709  -1.238250  6.223414
H    1.032196  3.520047  3.627390
Cd    0.078407  -0.662766  2.176841
