29
Energy: -173816.69399 eV PBE+vdW (tier 2 basis)
C    -1.632159  -1.934657  0.583502
C    -0.744786  -1.025868  1.365190
O    0.519936  -1.129843  1.157242
H    -2.686813  -1.830494  0.860038
H    -1.306999  -2.974127  0.718313
H    -1.517877  -1.699321  -0.485267
N    -1.300078  -0.149290  2.208468
C    -0.598058  0.929499  2.914646
C    0.058985  0.402435  4.212268
O    1.349789  0.290374  4.270651
H    -2.297783  -0.242361  2.413844
H    0.245299  1.216214  2.262520
C    -1.412869  2.253615  2.998871
C    -2.493727  2.505657  4.065730
C    -3.573117  1.456840  4.161855
O    -3.316990  0.245816  4.193544
O    -4.794672  1.950173  4.234275
H    -1.844318  2.395614  1.996749
H    -0.669285  3.054051  3.115214
H    -2.943928  3.485668  3.866366
H    -2.042784  2.586216  5.068800
N    -0.702712  0.056960  5.218649
C    -0.238940  -0.492657  6.493083
H    -1.727303  0.120500  5.040981
H    0.799822  -0.820732  6.406194
H    -0.887104  -1.332250  6.767432
H    -0.308872  0.276931  7.273203
H    -5.446025  1.225597  4.355340
Cd    2.078368  -0.411559  2.405300
