29
Energy: -173816.362845 eV PBE+vdW (tier 2 basis)
C    0.076173  0.588827  -0.151674
C    -0.307242  0.487577  1.285985
O    0.347138  1.269452  2.090381
H    1.134182  0.304239  -0.252256
H    -0.005933  1.631856  -0.484390
H    -0.533754  -0.058843  -0.789917
N    -1.256262  -0.366477  1.638621
C    -1.642156  -0.954893  2.926450
C    -1.728706  -2.500292  2.555289
O    -1.963558  -2.758854  1.376520
H    -1.587896  -1.033004  0.905968
H    -0.851084  -0.813130  3.686696
C    -3.052824  -0.535014  3.409279
C    -3.324469  0.936110  3.844005
C    -2.840579  1.260352  5.235679
O    -1.653325  1.601101  5.516040
O    -3.627813  1.166994  6.268578
H    -3.346940  -1.213845  4.222458
H    -3.745413  -0.744978  2.582191
H    -4.409319  1.105869  3.792552
H    -2.885282  1.650649  3.128232
N    -1.589003  -3.376651  3.553568
C    -1.702917  -4.828976  3.368827
H    -1.348379  -3.040587  4.480788
H    -2.470914  -5.229748  4.040044
H    -0.741837  -5.310193  3.584566
H    -1.984261  -5.025825  2.331358
H    -4.555743  0.951509  6.043082
Cd    -0.208988  1.635592  4.017884
