29
Energy: -173817.301052 eV PBE+vdW (tier 2 basis)
C    2.287820  1.514185  1.815839
C    0.978495  0.788283  1.828561
O    0.292810  0.801984  0.763500
H    2.788059  1.543316  2.789281
H    2.121026  2.539602  1.460470
H    2.949409  1.029890  1.083564
N    0.629895  0.182208  2.982833
C    -0.552147  -0.590971  3.440784
C    -0.769557  -1.915736  2.678968
O    -1.046190  -2.004711  1.445169
H    1.332105  0.292034  3.709640
H    -0.237951  -0.908972  4.443674
C    -1.828612  0.252229  3.763943
C    -2.484209  1.250331  2.764704
C    -3.575363  0.691009  1.873264
O    -3.379946  0.200770  0.740019
O    -4.823844  0.700482  2.275197
H    -1.535679  0.864314  4.626922
H    -2.583514  -0.449648  4.148980
H    -1.733897  1.745730  2.133722
H    -2.926180  2.054637  3.369995
N    -0.677889  -3.024728  3.400413
C    -0.893771  -4.369000  2.852091
H    -0.421066  -2.955342  4.380860
H    -0.938922  -5.076352  3.683893
H    -0.068874  -4.643318  2.182815
H    -1.834270  -4.397628  2.291344
H    -4.956831  1.153259  3.130882
Cd    -1.393901  -0.336853  0.131675
