29
Energy: -173816.600158 eV PBE+vdW (tier 2 basis)
C    0.239590  0.068674  -0.167497
C    0.221933  0.019822  1.324144
O    1.308432  -0.350980  1.900901
H    1.062602  0.711097  -0.506828
H    -0.706806  0.408463  -0.601284
H    0.457126  -0.944396  -0.539676
N    -0.911136  0.347028  1.961988
C    -1.425421  0.051328  3.327485
C    -1.015088  1.061236  4.415705
O    0.200361  1.449893  4.642202
H    -1.640637  0.678234  1.334111
H    -2.506892  0.190238  3.212067
C    -1.240064  -1.426785  3.752936
C    -2.066196  -1.848092  4.989195
C    -3.548449  -1.519550  4.900852
O    -3.990605  -0.384169  4.723665
O    -4.316900  -2.589435  5.049309
H    -0.186298  -1.674341  3.954940
H    -1.527473  -2.043078  2.889152
H    -1.689431  -1.354742  5.898668
H    -1.939021  -2.925734  5.141076
N    -1.990687  1.511407  5.165616
C    -1.851281  2.426364  6.298198
H    -2.920663  1.080248  4.986480
H    -2.129672  3.441331  5.984969
H    -0.820264  2.429578  6.660877
H    -2.534576  2.104000  7.090811
H    -5.261493  -2.322975  5.026055
Cd    1.808821  0.430453  3.783178
