29
Energy: -173816.785482 eV PBE+vdW (tier 2 basis)
C    -0.102103  -1.271103  0.939347
C    -0.605110  -0.613119  2.174887
O    0.027092  -0.772935  3.271753
H    0.975364  -1.064611  0.863292
H    -0.597551  -0.932149  0.024628
H    -0.197757  -2.362538  1.034015
N    -1.693271  0.186520  2.169672
C    -2.872437  0.169586  1.281300
C    -3.787629  1.302572  1.725966
O    -4.097317  1.460814  2.981009
H    -1.814710  0.692012  3.044067
H    -2.549402  0.363454  0.250754
C    -3.645140  -1.190792  1.276801
C    -4.350885  -1.651627  2.581614
C    -3.388885  -1.619428  3.748138
O    -2.643124  -2.617394  3.976869
O    -3.233900  -0.516729  4.405690
H    -2.927928  -1.959070  0.957719
H    -4.405730  -1.142134  0.484609
H    -4.696396  -2.680945  2.429939
H    -5.226947  -1.032172  2.811417
N    -4.324214  2.138095  0.873699
C    -4.112639  2.229720  -0.579622
H    -4.975540  2.809584  1.289493
H    -3.043877  2.277690  -0.816384
H    -4.581741  3.155223  -0.924119
H    -4.585417  1.385593  -1.096123
H    -3.797845  0.693878  3.610834
Cd    -1.121274  -1.413043  5.019242
