29
Energy: -173816.641726 eV PBE+vdW (tier 2 basis)
C    0.165125  1.563798  -0.016857
C    -0.106940  1.305642  1.417389
O    0.511587  1.961016  2.315876
H    1.255288  1.503287  -0.164478
H    -0.111715  2.596248  -0.275543
H    -0.324282  0.849985  -0.685290
N    -1.002307  0.349029  1.814599
C    -2.390480  0.242708  1.367039
C    -3.124535  1.595453  1.605636
O    -2.741860  2.439497  2.476405
H    -0.863538  0.064195  2.785953
H    -2.409390  0.044938  0.285046
C    -3.114202  -0.951423  2.060611
C    -2.764540  -1.318985  3.535640
C    -2.827682  -0.192296  4.541910
O    -1.837309  0.542312  4.736135
O    -3.916943  0.054378  5.231815
H    -2.897509  -1.856595  1.479026
H    -4.195323  -0.781463  1.973163
H    -1.750843  -1.739856  3.593921
H    -3.444942  -2.131992  3.825979
N    -4.188571  1.834005  0.855259
C    -5.039453  3.026404  0.944855
H    -4.419914  1.158500  0.129553
H    -6.084714  2.725190  0.820652
H    -4.773790  3.737708  0.152528
H    -4.901520  3.498818  1.920050
H    -4.616600  -0.617380  5.105065
Cd    -1.020274  2.356045  3.838864
