29
Energy: -173816.168661 eV PBE+vdW (tier 2 basis)
C    -0.067201  -0.285214  0.006759
C    0.099282  -0.270948  1.493953
O    1.272726  -0.484001  1.940361
H    0.561531  0.504125  -0.428228
H    -1.103235  -0.149404  -0.320511
H    0.312962  -1.241271  -0.379021
N    -1.000138  -0.044825  2.235242
C    -1.311838  -0.057994  3.693329
C    -0.702606  1.133034  4.458394
O    0.556141  1.317328  4.601575
H    -1.827577  0.113695  1.665634
H    -2.396217  0.111512  3.692719
C    -1.162073  -1.430828  4.413406
C    0.230991  -1.950324  4.778086
C    0.359094  -3.298063  5.547492
O    1.440790  -3.708635  5.878030
O    -0.833142  -3.866346  5.750183
H    -1.671704  -2.173773  3.784818
H    -1.755849  -1.356912  5.335858
H    0.744413  -1.270882  5.491169
H    0.834080  -2.169070  3.875808
N    -1.545084  1.982894  5.018565
C    -1.151774  3.142307  5.828003
H    -2.540767  1.850469  4.856712
H    -1.940452  3.336414  6.560906
H    -1.027301  4.023947  5.185878
H    -0.209211  2.930808  6.339804
H    -0.703960  -4.713132  6.229770
Cd    1.999786  -0.087449  3.894940
