29
Energy: -173816.412927 eV PBE+vdW (tier 2 basis)
C    -0.301468  -0.366943  0.019894
C    0.008294  -0.252890  1.476783
O    1.184058  -0.604306  1.841142
H    0.442643  0.200018  -0.554971
H    -1.309436  -0.023824  -0.236277
H    -0.195909  -1.421204  -0.275912
N    -0.953054  0.194692  2.298168
C    -1.079072  0.192247  3.777727
C    -0.332350  1.366428  4.437436
O    0.933609  1.328257  4.689503
H    -1.816546  0.442844  1.820209
H    -2.151369  0.354987  3.961011
C    -0.807680  -1.173233  4.441868
C    -1.353517  -1.295598  5.871587
C    -2.866520  -1.116467  5.971371
O    -3.514819  -0.356244  5.267192
O    -3.376378  -1.871355  6.940611
H    0.272619  -1.444231  4.482682
H    -1.252273  -1.943231  3.795610
H    -0.898495  -0.551007  6.545523
H    -1.085808  -2.276224  6.282958
N    -0.987690  2.447622  4.805245
C    -2.416813  2.775552  4.682579
H    -0.394880  3.170899  5.220590
H    -2.656893  3.500657  5.466121
H    -3.041088  1.888440  4.828700
H    -2.616909  3.236468  3.706872
H    -4.340687  -1.705115  7.009603
Cd    2.078533  -0.138725  3.691389
