29
Energy: -173816.358145 eV PBE+vdW (tier 2 basis)
C    0.873228  -0.049179  -0.087699
C    0.370969  -0.043328  1.313917
O    1.235509  0.194463  2.238709
H    1.685377  -0.785519  -0.172320
H    1.310955  0.932072  -0.318893
H    0.091027  -0.284985  -0.817177
N    -0.920730  -0.291070  1.548587
C    -1.608020  -0.415324  2.845817
C    -2.908737  -1.277325  2.607200
O    -3.968752  -0.677926  2.479923
H    -1.505874  -0.415121  0.722587
H    -0.954732  -0.993243  3.530293
C    -2.043026  0.967036  3.398590
C    -2.584936  0.998658  4.835465
C    -1.618441  0.985037  5.995430
O    -0.357849  0.924735  5.925668
O    -2.075670  1.055566  7.213382
H    -2.871929  1.286554  2.748529
H    -1.268234  1.743674  3.242126
H    -3.306989  0.178500  4.989529
H    -3.187089  1.915818  4.955339
N    -2.757008  -2.612770  2.530319
C    -1.541488  -3.408100  2.697171
H    -3.626891  -3.112184  2.349819
H    -1.790098  -4.453168  2.491234
H    -1.156597  -3.362578  3.726183
H    -0.755739  -3.115872  1.987984
H    -3.051267  1.125179  7.269887
Cd    0.736084  0.647386  4.185032
