29
Energy: -173817.413075 eV PBE+vdW (tier 2 basis)
C    -0.605030  0.709601  0.053317
C    -0.352531  0.331056  1.476855
O    0.791591  -0.129186  1.772007
H    -1.614077  1.095066  -0.126268
H    -0.434906  -0.170874  -0.581711
H    0.133454  1.465153  -0.248186
N    -1.366701  0.502213  2.353972
C    -1.449917  0.164268  3.790740
C    -0.527337  1.087404  4.616671
O    0.698912  0.820571  4.803691
H    -2.217758  0.878439  1.945477
H    -2.478111  0.419582  4.071424
C    -1.286808  -1.368267  4.027509
C    -0.999077  -1.856926  5.466840
C    0.328708  -2.575174  5.665154
O    1.360075  -2.389749  4.985740
O    0.441737  -3.450157  6.632889
H    -0.549491  -1.793121  3.329759
H    -2.227682  -1.819805  3.688680
H    -1.804743  -2.525627  5.798048
H    -0.992354  -1.028941  6.196237
N    -1.038154  2.188181  5.152890
C    -2.408392  2.711260  5.077941
H    -0.354923  2.756611  5.656383
H    -2.674616  2.986679  4.049972
H    -2.453562  3.614947  5.691969
H    -3.135241  1.996193  5.482362
H    -0.390470  -3.608041  7.121225
Cd    1.647402  -0.750355  3.627414
