29
Energy: -173816.220858 eV PBE+vdW (tier 2 basis)
C    -0.482055  1.530736  0.809894
C    -0.077505  0.554026  1.859516
O    1.159385  0.623546  2.263157
H    0.123320  1.385634  -0.095031
H    -0.247890  2.540946  1.177626
H    -1.546584  1.479192  0.564308
N    -0.896364  -0.334742  2.390297
C    -2.232039  -0.810216  2.026607
C    -2.703229  -1.454834  3.371961
O    -1.821476  -1.709138  4.210321
H    -0.692726  -0.822472  3.309755
H    -2.893041  0.018400  1.738007
C    -2.175443  -1.847593  0.876229
C    -1.301554  -3.115338  1.137049
C    0.159193  -2.789015  1.241535
O    0.768512  -2.831085  2.335724
O    0.840612  -2.366120  0.187447
H    -1.853604  -1.337517  -0.044399
H    -3.194105  -2.207069  0.676478
H    -1.454009  -3.814677  0.300387
H    -1.600034  -3.625455  2.060107
N    -4.002885  -1.718410  3.507061
C    -4.591386  -2.333423  4.700025
H    -4.640858  -1.409282  2.778477
H    -5.267963  -1.622718  5.189827
H    -3.787085  -2.605014  5.387874
H    -5.155306  -3.229626  4.416031
H    0.344958  -2.436632  -0.653803
Cd    2.106305  -1.187629  2.772635
