29
Energy: -173816.282422 eV PBE+vdW (tier 2 basis)
C    0.171300  -0.973955  0.629210
C    0.051212  -0.245421  1.931117
O    1.041183  0.188872  2.544788
H    0.753334  -0.359634  -0.069328
H    -0.789941  -1.237662  0.175406
H    0.750215  -1.892654  0.799697
N    -1.215682  -0.062366  2.432146
C    -1.533725  0.417159  3.780487
C    -1.162430  1.902332  4.013378
O    -2.035291  2.759061  4.482289
H    -1.995493  -0.387362  1.869579
H    -2.634144  0.381706  3.819991
C    -0.953596  -0.547017  4.857674
C    -1.303931  -0.279489  6.349088
C    -2.729742  -0.603876  6.727985
O    -3.698599  0.203881  6.645163
O    -3.058906  -1.792274  7.152552
H    0.140938  -0.532612  4.783910
H    -1.270200  -1.561327  4.577678
H    -1.086456  0.762595  6.633288
H    -0.627508  -0.892332  6.962084
N    0.039157  2.303790  3.712659
C    0.554596  3.665325  3.846497
H    0.641514  1.538737  3.271802
H    1.624682  3.604879  4.068712
H    0.029402  4.203238  4.640313
H    0.422724  4.204002  2.898207
H    -2.297713  -2.397638  7.261971
Cd    -3.524090  2.117733  5.764461
