29
Energy: -173816.1661 eV PBE+vdW (tier 2 basis)
C    -0.381061  1.772391  0.322530
C    -1.140384  0.510513  0.584163
O    -1.812310  0.030027  -0.384753
H    0.333393  1.596710  -0.493265
H    0.149580  2.155257  1.200399
H    -1.086748  2.536054  -0.033888
N    -1.065201  -0.013282  1.820777
C    -1.779585  -1.104635  2.539698
C    -1.285992  -2.510377  2.163608
O    -1.372994  -2.987631  0.976305
H    -0.454000  0.519193  2.434766
H    -1.452770  -0.938366  3.572265
C    -3.325513  -0.984001  2.643114
C    -4.267088  -1.364599  1.491826
C    -5.755418  -1.267396  1.933349
O    -6.070711  -0.939667  3.047127
O    -6.555383  -1.591127  0.914482
H    -3.538975  0.051993  2.939609
H    -3.615483  -1.594779  3.510282
H    -4.172935  -2.427926  1.179408
H    -4.211817  -0.668948  0.630676
N    -0.770869  -3.285196  3.102130
C    -0.511479  -2.987754  4.519309
H    -0.506227  -4.215902  2.772709
H    -1.440204  -2.752072  5.052736
H    0.213860  -2.172030  4.627111
H    -0.079933  -3.885037  4.971283
H    -7.491403  -1.523841  1.200506
Cd    -2.495862  -1.974985  -0.522454
