29
Energy: -173816.674971 eV PBE+vdW (tier 2 basis)
C    1.710654  -0.130574  1.638048
C    1.323508  -1.437394  1.019189
O    2.164252  -2.019936  0.247343
H    2.797589  -0.010811  1.605143
H    1.358611  -0.038774  2.672760
H    1.269307  0.689785  1.050201
N    0.144471  -2.067476  1.196494
C    -1.062555  -1.473147  1.738511
C    -1.088589  -1.657870  3.257935
O    -0.278436  -2.551563  3.762291
H    0.281966  -2.881294  3.012260
H    -1.134629  -0.395818  1.514629
C    -2.287941  -2.219713  1.127798
C    -2.389318  -2.095237  -0.424209
C    -2.251833  -3.418680  -1.160829
O    -1.183070  -4.055813  -1.285442
O    -3.300693  -3.974159  -1.717060
H    -3.213907  -1.834338  1.570549
H    -2.218018  -3.274541  1.429028
H    -1.603721  -1.431599  -0.814975
H    -3.341913  -1.623275  -0.694411
N    -1.862016  -1.019931  4.093714
C    -2.853516  0.021362  3.808411
H    -1.761002  -1.292083  5.076322
H    -3.864867  -0.386654  3.929205
H    -2.729039  0.411284  2.794984
H    -2.713464  0.839680  4.523352
H    -4.116777  -3.444381  -1.627799
Cd    0.732106  -3.500165  -0.478134
