29
Energy: -173816.75161 eV PBE+vdW (tier 2 basis)
C    0.902732  -0.920505  0.388689
C    0.540105  0.381329  1.021220
O    1.475769  1.213676  1.253186
H    1.515175  -0.738147  -0.503680
H    0.034138  -1.533827  0.126253
H    1.533605  -1.482678  1.094068
N    -0.759131  0.607523  1.313536
C    -1.376868  1.667780  2.133027
C    -1.526707  3.070746  1.486062
O    -2.260666  3.886321  1.987820
H    -1.387776  -0.148885  1.052216
H    -2.425275  1.362527  2.250577
C    -0.751439  1.696940  3.574314
C    -1.079087  2.883279  4.488958
C    -0.287146  4.159587  4.300562
O    0.669153  4.328816  3.505289
O    -0.562901  5.192240  5.052797
H    0.339209  1.556760  3.523097
H    -1.113305  0.787324  4.070901
H    -0.880392  2.566410  5.527830
H    -2.148541  3.140807  4.456285
N    -0.676841  3.409893  0.382930
C    -1.005806  4.672485  -0.342652
H    -0.535652  2.621457  -0.257227
H    -0.244431  4.838237  -1.110165
H    -1.016918  5.505533  0.365196
H    -1.994508  4.592320  -0.810252
H    -1.294907  5.036367  5.683510
Cd    1.265711  3.273532  1.763613
