29
Energy: -173816.064913 eV PBE+vdW (tier 2 basis)
C    -0.744629  -0.365474  -0.127922
C    -0.352387  -0.284765  1.314043
O    0.863674  -0.540162  1.591941
H    -0.159318  0.370560  -0.696557
H    -1.812395  -0.198072  -0.303212
H    -0.464917  -1.356425  -0.511553
N    -1.315380  0.037885  2.196835
C    -1.414553  0.096834  3.681441
C    -0.673391  1.293379  4.298166
O    0.584438  1.493881  4.148256
H    -2.209973  0.212593  1.746028
H    -2.482379  0.293972  3.827545
C    -1.179896  -1.240163  4.446497
C    0.248739  -1.749139  4.650790
C    0.480086  -3.035114  5.495470
O    1.595306  -3.444150  5.688206
O    -0.671975  -3.559352  5.925400
H    -1.772429  -2.008478  3.931600
H    -1.645560  -1.111528  5.434465
H    0.861053  -1.022201  5.225165
H    0.716549  -2.041155  3.691426
N    -1.347993  2.151797  5.043841
C    -2.789036  2.204690  5.333591
H    -0.770656  2.891392  5.449357
H    -2.963345  3.064573  5.986169
H    -3.122173  1.303882  5.862809
H    -3.372695  2.351594  4.416469
H    -0.477418  -4.369280  6.444891
Cd    1.901762  0.013609  3.359282
