26
Energy: -238669.291769 eV PBE+vdW (tier 2 basis)
N    -0.309675  0.601031  0.081334
C    0.411698  0.572286  1.422728
C    1.782497  -0.104045  1.162356
O    2.507051  -0.435685  2.140482
H    -0.961515  -0.187205  -0.029589
H    0.430831  0.499619  -0.646622
H    0.663167  1.622914  1.639112
C    -0.442027  0.047969  2.587972
C    -0.980961  -1.388482  2.467046
C    -1.637726  -1.945758  3.753971
C    -2.990219  -1.321391  4.105949
N    -3.628999  -2.027623  5.295149
H    -1.258215  0.768903  2.748050
H    0.205893  0.127983  3.473265
H    -0.153647  -2.070789  2.222153
H    -1.708046  -1.478712  1.641426
H    -0.939319  -1.827953  4.597609
H    -1.773509  -3.028169  3.605839
H    -3.712220  -1.409906  3.284042
H    -2.917667  -0.265478  4.393405
H    -3.040264  -1.972104  6.139899
H    -3.794317  -3.027576  5.103655
H    -4.541885  -1.609982  5.533613
O    2.159874  -0.205465  -0.055174
H    -0.834471  1.472145  -0.073948
Ba    4.595671  -0.851527  0.681277
