26
Energy: -238669.267330 eV PBE+vdW (tier 2 basis)
N    -0.349375  -0.682171  -0.089118
C    0.082129  -0.140399  1.267829
C    1.610760  0.094902  1.176742
O    2.263472  0.365688  2.221811
H    -0.432220  -1.708014  -0.092770
H    -1.246373  -0.291716  -0.407809
H    -0.348198  0.872154  1.325046
C    -0.471872  -0.946894  2.453732
C    0.027515  -2.394826  2.612984
C    -0.824119  -3.275624  3.558989
C    -0.745318  -2.891534  5.037738
N    -1.510603  -3.886701  5.901407
H    -1.570693  -0.927460  2.371361
H    -0.231283  -0.353174  3.346630
H    1.076631  -2.395440  2.944498
H    0.023237  -2.922970  1.645031
H    -0.475707  -4.313225  3.440479
H    -1.874576  -3.258316  3.226455
H    -1.186144  -1.910693  5.253691
H    0.286019  -2.899624  5.412442
H    -1.458568  -3.635386  6.900590
H    -2.510166  -3.927501  5.650884
H    -1.134935  -4.842859  5.808980
O    2.129312  0.098470  0.007216
H    0.406287  -0.424146  -0.760059
Ba    4.369789  1.102454  0.907221
