26
Energy: -238668.425768 eV PBE+vdW (tier 2 basis)
N    1.892377  -1.126823  0.736207
C    0.614737  -0.487136  1.173333
C    0.947132  0.393832  2.391947
O    2.111542  0.768523  2.604018
H    1.951621  -2.054339  1.173404
H    1.829547  -1.326390  -0.266566
H    0.332111  0.233163  0.385184
C    -0.548298  -1.498491  1.395708
C    -2.007796  -0.985219  1.248819
C    -2.529249  -0.982612  -0.202269
C    -3.963586  -0.484885  -0.409659
N    -5.038007  -1.497925  -0.023138
H    -0.423451  -1.966600  2.384113
H    -0.404596  -2.311828  0.669286
H    -2.137617  0.032385  1.660511
H    -2.631385  -1.636388  1.879362
H    -2.416355  -1.986251  -0.644090
H    -1.908523  -0.321355  -0.826310
H    -4.143791  -0.266213  -1.468726
H    -4.183834  0.423721  0.165143
H    -5.014952  -1.750848  0.974621
H    -5.978324  -1.115810  -0.212031
H    -4.955446  -2.369573  -0.567889
O    0.017477  0.798509  3.217101
H    -0.870314  0.444860  3.008725
Ba    4.324316  0.315960  1.639705
