26
Energy: -238668.257074 eV PBE+vdW (tier 2 basis)
N    1.440392  0.890312  1.459462
C    0.101076  0.538604  1.908865
C    0.155267  0.925756  3.391757
O    0.006222  2.113479  3.776662
H    2.128420  0.144912  1.536435
H    1.465986  1.291028  0.524960
H    -0.591262  1.270679  1.469964
C    -0.472304  -0.861888  1.556159
C    0.396365  -2.116261  1.783030
C    -0.217323  -3.347110  1.077205
C    0.634074  -4.605427  1.248559
N    0.036489  -5.792099  0.503916
H    -0.699208  -0.800492  0.481146
H    -1.448286  -0.979995  2.054242
H    0.508734  -2.364299  2.856265
H    1.413720  -1.955200  1.393809
H    -0.323218  -3.115738  0.005149
H    -1.231792  -3.526001  1.467421
H    0.713657  -4.918305  2.297233
H    1.647693  -4.479305  0.847686
H    -0.031517  -5.615140  -0.509533
H    0.614206  -6.637929  0.626189
H    -0.911313  -6.020425  0.839203
O    0.436542  0.043440  4.322702
H    0.508393  -0.861369  3.952953
Ba    0.175804  4.230632  4.898152
