26
Energy: -238668.642466 eV PBE+vdW (tier 2 basis)
N    0.739366  0.771184  0.399447
C    0.258983  0.104936  1.643036
C    1.422944  -0.709940  2.222339
O    2.583977  -0.544728  1.811183
H    0.148923  1.590821  0.226404
H    0.561922  0.153664  -0.400281
H    0.116622  0.910062  2.387443
C    -1.107248  -0.627802  1.556360
C    -1.206921  -1.887174  0.673932
C    -2.633720  -2.481879  0.722182
C    -2.771370  -3.742064  -0.134223
N    -4.178145  -4.320739  -0.061367
H    -1.840027  0.122722  1.222432
H    -1.429001  -0.867730  2.584965
H    -0.481480  -2.649074  1.001949
H    -0.957224  -1.646098  -0.372135
H    -3.354867  -1.721832  0.381440
H    -2.891030  -2.718195  1.767327
H    -2.099070  -4.544440  0.194658
H    -2.581654  -3.546393  -1.197025
H    -4.889084  -3.654208  -0.398657
H    -4.260851  -5.170434  -0.641035
H    -4.438567  -4.585181  0.900752
O    1.233673  -1.550420  3.206332
H    0.304382  -1.601436  3.507573
Ba    3.657540  1.208470  0.452245
