26
Energy: -238669.400903 eV PBE+vdW (tier 2 basis)
N    -0.339393  -0.090790  0.015554
C    0.980609  -0.319217  0.744140
C    2.042270  -0.532090  -0.366244
O    1.685821  -0.289912  -1.570682
H    -0.883142  0.697273  0.389530
H    -0.941328  -0.925655  0.025404
H    1.234416  0.641387  1.220013
C    0.900089  -1.421877  1.810577
C    -0.027032  -1.062193  2.989672
C    -0.196498  -2.145388  4.081390
C    0.968438  -2.236742  5.068682
N    0.628829  -3.162855  6.230149
H    1.933357  -1.583836  2.148770
H    0.581441  -2.366009  1.337583
H    -1.042059  -0.857127  2.615483
H    0.312778  -0.122770  3.454412
H    -0.376807  -3.126923  3.615058
H    -1.111126  -1.894328  4.640489
H    1.198298  -1.263936  5.521605
H    1.886368  -2.638596  4.622916
H    1.408378  -3.224759  6.902803
H    0.421825  -4.122156  5.914150
H    -0.196086  -2.830451  6.752887
O    3.214165  -0.872366  -0.048480
H    -0.077560  0.100831  -0.979051
Ba    4.139950  -0.627512  -2.443810
