26
Energy: -238669.358188 eV PBE+vdW (tier 2 basis)
N    -0.549648  1.874949  2.545294
C    -0.226911  0.410119  2.827409
C    1.320171  0.341878  2.932828
O    1.876720  -0.771654  3.135572
H    0.375680  2.367460  2.594110
H    -0.942903  2.017257  1.605114
H    -0.628167  0.179260  3.824857
C    -0.800063  -0.534214  1.759916
C    -2.337786  -0.686105  1.691623
C    -2.947069  -1.746439  2.634575
C    -4.430715  -1.949859  2.313217
N    -5.063914  -3.058118  3.143224
H    -0.329744  -1.513571  1.926890
H    -0.432879  -0.199174  0.776404
H    -2.575375  -0.968061  0.655765
H    -2.842427  0.282270  1.846684
H    -2.827433  -1.456476  3.690854
H    -2.407495  -2.697127  2.497082
H    -4.580484  -2.240562  1.265618
H    -5.028018  -1.049975  2.506466
H    -5.026823  -2.859247  4.153715
H    -6.058296  -3.180250  2.895345
H    -4.601425  -3.966680  2.989843
O    1.968168  1.438941  2.823858
H    -1.192739  2.296123  3.226659
Ba    4.259577  0.189257  3.227078
