26
Energy: -238668.738910 eV PBE+vdW (tier 2 basis)
N    0.028728  0.476682  0.270243
C    -0.008458  0.111020  1.714896
C    1.443140  0.050057  2.226882
O    2.386220  0.431209  1.512370
H    -0.068623  -0.380196  -0.285856
H    -0.805518  1.026033  0.047038
H    -0.448811  0.969450  2.254341
C    -0.836635  -1.156604  2.053645
C    -2.355804  -1.008410  1.836740
C    -3.135195  -2.249885  2.325143
C    -4.644579  -2.077950  2.141186
N    -5.420863  -3.284514  2.651397
H    -0.672462  -1.418666  3.111822
H    -0.440837  -2.008012  1.475865
H    -2.574916  -0.840288  0.770690
H    -2.714604  -0.117819  2.377177
H    -2.912528  -2.422246  3.390556
H    -2.792263  -3.142001  1.777118
H    -4.924826  -1.964101  1.086525
H    -5.032980  -1.214845  2.696381
H    -6.436239  -3.154154  2.521216
H    -5.161172  -4.150673  2.155951
H    -5.264314  -3.447885  3.657438
O    1.726177  -0.347095  3.437969
H    0.952253  -0.630525  3.964339
Ba    2.649193  1.653748  -0.582070
