26
Energy: -238669.239507 eV PBE+vdW (tier 2 basis)
N    0.292688  2.159728  0.993855
C    0.837675  0.793128  1.394835
C    1.121574  0.045799  0.068596
O    1.412753  -1.180961  0.085676
H    0.593673  2.327194  0.010170
H    0.631214  2.919555  1.599616
H    1.820320  0.987882  1.852828
C    -0.094260  0.102353  2.413265
C    0.608030  -0.822672  3.430258
C    -0.383881  -1.271038  4.525596
C    0.208008  -1.845148  5.813232
N    0.653010  -3.301965  5.708806
H    -0.889221  -0.440016  1.879780
H    -0.593210  0.899398  2.988489
H    1.436871  -0.268300  3.899413
H    1.052480  -1.681514  2.905557
H    -1.140922  -1.959447  4.116077
H    -0.956035  -0.392511  4.862778
H    -0.540131  -1.833781  6.614729
H    1.085443  -1.284894  6.160286
H    1.405305  -3.439628  5.020793
H    -0.130580  -3.917874  5.446015
H    1.008440  -3.639072  6.617152
O    1.091701  0.740000  -1.008000
H    -0.737248  2.182863  1.008754
Ba    1.887305  -1.229078  -2.485557
