26
Energy: -238668.374588 eV PBE+vdW (tier 2 basis)
N    0.570451  -0.587913  0.106108
C    0.396539  -0.153485  1.521651
C    1.754678  -0.253946  2.233242
O    2.702018  -0.880130  1.729154
H    -0.152175  -1.274696  -0.125531
H    0.391984  0.202530  -0.518615
H    0.110183  0.911656  1.545387
C    -0.664975  -0.994991  2.287568
C    -2.155456  -0.676833  2.023358
C    -2.673817  0.612986  2.699790
C    -4.131154  0.599448  3.170735
N    -5.169712  0.669942  2.054626
H    -0.482421  -0.911416  3.369880
H    -0.476242  -2.054925  2.053076
H    -2.709011  -1.540794  2.422432
H    -2.362044  -0.664470  0.941056
H    -2.489650  1.504911  2.080191
H    -2.110538  0.783646  3.631161
H    -4.335176  1.467424  3.809134
H    -4.367661  -0.306647  3.743062
H    -6.122523  0.677867  2.452269
H    -5.074005  1.528953  1.493234
H    -5.121802  -0.133860  1.413348
O    1.952368  0.310948  3.395663
H    1.192322  0.820985  3.739709
Ba    3.342159  -1.722618  -0.463330
