26
Energy: -238668.224852 eV PBE+vdW (tier 2 basis)
N    0.356635  0.945540  0.530162
C    0.044668  0.181254  1.731574
C    1.172281  0.432417  2.740142
O    1.181478  1.420380  3.525742
H    1.235565  0.700871  0.074808
H    0.272541  1.955634  0.624981
H    -0.863238  0.611369  2.177726
C    -0.189768  -1.313005  1.437246
C    -1.478418  -1.633698  0.638948
C    -1.376110  -1.456451  -0.886912
C    -2.661468  -1.715588  -1.670455
N    -3.037155  -3.193614  -1.771321
H    -0.249124  -1.845871  2.398491
H    0.676826  -1.735385  0.894051
H    -2.304563  -1.018095  1.028625
H    -1.737566  -2.675139  0.886478
H    -0.560516  -2.075585  -1.296808
H    -1.100596  -0.417717  -1.116624
H    -2.562013  -1.372760  -2.706970
H    -3.531770  -1.215508  -1.226696
H    -3.216316  -3.619687  -0.851828
H    -3.893885  -3.315631  -2.332421
H    -2.295029  -3.741970  -2.230139
O    2.256807  -0.316948  2.753013
H    2.177945  -1.101007  2.169606
Ba    2.094767  2.783109  5.318122
