26
Energy: -238668.271366 eV PBE+vdW (tier 2 basis)
N    1.047546  0.504385  0.819787
C    1.136837  -0.391324  1.971157
C    2.331224  -1.260131  1.549175
O    3.518833  -0.861021  1.647965
H    0.846748  1.469027  1.074220
H    0.381728  0.195017  0.112854
H    1.488536  0.190656  2.835265
C    -0.162177  -1.136819  2.350421
C    -0.103522  -1.940890  3.662474
C    -1.398567  -2.694992  4.045396
C    -2.529179  -1.789688  4.537373
N    -3.705889  -2.610279  5.050983
H    -0.493547  -1.782324  1.513183
H    -0.929845  -0.350649  2.408222
H    0.185265  -1.271921  4.488566
H    0.692402  -2.699446  3.606099
H    -1.138626  -3.404309  4.846496
H    -1.747074  -3.299871  3.192690
H    -2.938872  -1.141984  3.752858
H    -2.213967  -1.159589  5.378806
H    -4.469522  -2.004306  5.388032
H    -4.100767  -3.219074  4.318603
H    -3.431153  -3.218738  5.837061
O    2.152910  -2.420856  0.961334
H    1.207195  -2.676030  0.930017
Ba    5.750762  -0.323254  0.924944
