26
Energy: -238668.294723 eV PBE+vdW (tier 2 basis)
N    0.663817  0.875156  0.633039
C    0.135087  0.333555  1.921372
C    1.320165  -0.247427  2.704988
O    2.475158  -0.207335  2.250582
H    0.444504  0.203194  -0.111618
H    0.119787  1.707482  0.385743
H    -0.215849  1.193507  2.518304
C    -1.063900  -0.641764  1.706523
C    -1.923368  -1.001357  2.937964
C    -3.232104  -1.721291  2.534104
C    -4.073763  -2.093747  3.757328
N    -5.374261  -2.781057  3.365107
H    -0.696548  -1.560641  1.222448
H    -1.714000  -0.139171  0.974262
H    -2.175922  -0.086988  3.499075
H    -1.373338  -1.672157  3.620074
H    -2.988015  -2.628629  1.959299
H    -3.813592  -1.062856  1.869599
H    -4.364697  -1.213061  4.343762
H    -3.553176  -2.794622  4.422110
H    -5.929560  -3.025284  4.200069
H    -5.967574  -2.179790  2.773748
H    -5.209337  -3.656553  2.845836
O    1.154208  -0.764501  3.896321
H    0.227941  -0.741995  4.209377
Ba    3.597454  1.130611  0.521970
