26
Energy: -238669.298357 eV PBE+vdW (tier 2 basis)
N    -0.323706  1.698127  0.674697
C    0.656428  0.837188  1.464462
C    1.773862  0.448179  0.462790
O    2.642418  -0.406595  0.787482
H    -1.134393  1.154757  0.344804
H    0.190409  2.035584  -0.167909
H    1.122316  1.510277  2.201170
C    -0.076507  -0.316056  2.180161
C    0.634050  -0.876283  3.429974
C    -0.179885  -2.034830  4.041951
C    0.436683  -2.753233  5.243649
N    0.220630  -2.034873  6.574001
H    -0.265060  -1.127910  1.460547
H    -1.064383  0.063188  2.489034
H    0.770949  -0.058063  4.156569
H    1.637792  -1.233706  3.159746
H    -0.310817  -2.817387  3.279200
H    -1.203742  -1.708095  4.289570
H    1.520724  -2.890931  5.145575
H    -0.020782  -3.740511  5.377383
H    0.633181  -2.574288  7.350956
H    -0.782542  -1.925942  6.785410
H    0.647534  -1.098942  6.597564
O    1.787415  1.061772  -0.661161
H    -0.681260  2.498567  1.212945
Ba    4.005688  -0.070996  -1.407573
