26
Energy: -238668.569309 eV PBE+vdW (tier 2 basis)
N    -0.202857  2.080502  2.065120
C    -0.466971  0.628052  2.440811
C    0.709604  0.191733  3.349463
O    1.444777  1.119878  3.833807
H    0.239412  2.170761  1.140132
H    0.469127  2.448491  2.772596
H    -1.337852  0.657364  3.114974
C    -0.839713  -0.255317  1.239058
C    0.249365  -0.489229  0.175716
C    -0.269609  -1.033431  -1.177003
C    -0.798824  -2.468013  -1.130943
N    -1.177025  -2.954675  -2.524430
H    -1.736205  0.190055  0.777893
H    -1.171963  -1.209774  1.670564
H    1.026004  -1.158185  0.575521
H    0.768895  0.451467  -0.071581
H    0.566494  -0.983909  -1.891547
H    -1.052444  -0.361296  -1.564151
H    -1.705680  -2.574811  -0.523165
H    -0.045946  -3.174722  -0.759467
H    -1.916043  -2.373972  -2.948851
H    -1.528732  -3.924189  -2.501699
H    -0.371232  -2.939160  -3.168176
O    0.843874  -1.025093  3.654283
H    -1.057110  2.654053  2.064108
Ba    2.573070  -0.531963  5.517979
