26
Energy: -238668.174640 eV PBE+vdW (tier 2 basis)
N    0.126426  0.172358  0.459440
C    -0.101277  -0.171921  1.856769
C    1.270657  -0.330030  2.526384
O    1.908304  0.638314  3.024606
H    0.633917  -0.526250  -0.082870
H    0.518259  1.098593  0.301044
H    -0.578980  0.690439  2.343184
C    -0.994272  -1.414652  2.022579
C    -2.458119  -1.277775  1.536701
C    -2.678706  -1.433300  0.018266
C    -4.074931  -1.888141  -0.404152
N    -5.158276  -0.827141  -0.220215
H    -1.018843  -1.675367  3.091665
H    -0.545674  -2.280442  1.498473
H    -2.865461  -0.321182  1.901948
H    -3.020782  -2.067506  2.057957
H    -2.015343  -2.224305  -0.365272
H    -2.386371  -0.523233  -0.525884
H    -4.416350  -2.763367  0.163500
H    -4.096872  -2.142136  -1.470567
H    -4.951265  0.024217  -0.762137
H    -6.071815  -1.178653  -0.545645
H    -5.275234  -0.552098  0.764572
O    1.909488  -1.483835  2.509781
H    1.352599  -2.216031  2.169888
Ba    3.809108  1.577398  4.220001
