26
Energy: -238669.218018 eV PBE+vdW (tier 2 basis)
N    -0.219970  0.107329  0.245646
C    0.006399  -0.048629  1.745646
C    0.823821  1.196868  2.175721
O    0.984634  2.120230  1.303720
H    -0.015201  1.105982  0.020149
H    -1.176560  -0.131067  -0.047418
H    -0.984499  0.047049  2.214133
C    0.643749  -1.420431  2.060898
C    0.456151  -1.961947  3.497017
C    -0.931007  -2.575074  3.767412
C    -1.134446  -3.182727  5.158159
N    -0.483933  -4.552952  5.331523
H    1.718952  -1.364901  1.837063
H    0.220236  -2.155017  1.356498
H    0.673753  -1.171524  4.229486
H    1.241864  -2.721313  3.631416
H    -1.180816  -3.325779  2.999037
H    -1.713852  -1.805541  3.683043
H    -2.199793  -3.343628  5.360414
H    -0.726694  -2.551181  5.957418
H    -0.859322  -5.239725  4.660436
H    -0.668190  -4.925733  6.275944
H    0.538271  -4.528568  5.212936
O    1.270586  1.279883  3.352396
H    0.430123  -0.473136  -0.303807
Ba    2.246745  3.665529  2.981111
