26
Energy: -238669.215176 eV PBE+vdW (tier 2 basis)
N    -0.527916  1.229659  4.000856
C    -0.213037  -0.062821  3.254156
C    1.317964  -0.025976  2.996133
O    1.857061  -0.970851  2.358026
H    0.408304  1.678426  4.159944
H    -1.105767  1.874602  3.445480
H    -0.395952  -0.891831  3.953308
C    -1.035244  -0.224579  1.966348
C    -2.538984  -0.561424  2.094173
C    -2.849108  -2.003995  2.555668
C    -4.101249  -2.650818  1.958845
N    -5.422710  -2.076802  2.464085
H    -0.538644  -1.016315  1.387043
H    -0.923076  0.692705  1.365232
H    -2.952524  -0.407160  1.085593
H    -3.052079  0.175417  2.734601
H    -2.873368  -2.088799  3.653626
H    -2.034256  -2.670703  2.232133
H    -4.137183  -3.718810  2.204943
H    -4.131440  -2.551505  0.866276
H    -5.522301  -2.180365  3.484557
H    -5.537141  -1.079677  2.235107
H    -6.218250  -2.574649  2.034147
O    1.972304  0.964761  3.468946
H    -0.989314  1.084373  4.907000
Ba    4.249910  -0.061861  2.577772
