26
Energy: -238669.142610 eV PBE+vdW (tier 2 basis)
N    1.005471  -1.423871  0.197507
C    0.389116  -0.537088  1.274734
C    1.598511  0.016855  2.081605
O    2.769271  -0.244219  1.642416
H    0.681940  -1.209209  -0.753191
H    2.038205  -1.241067  0.263803
H    -0.051968  0.328467  0.757173
C    -0.660866  -1.235299  2.151879
C    -2.112678  -1.354926  1.635540
C    -2.383275  -2.392853  0.526955
C    -3.803098  -2.968001  0.488729
N    -4.885663  -1.971282  0.085267
H    -0.695819  -0.637773  3.073794
H    -0.281236  -2.224618  2.460377
H    -2.466327  -0.355705  1.334430
H    -2.705376  -1.628929  2.522254
H    -1.755325  -3.284012  0.691118
H    -2.113880  -2.009893  -0.471624
H    -4.105994  -3.355643  1.469802
H    -3.873576  -3.786419  -0.237623
H    -4.957380  -1.177388  0.737138
H    -4.730478  -1.590762  -0.859753
H    -5.809376  -2.432146  0.073410
O    1.382911  0.724540  3.102878
H    0.847017  -2.423949  0.375903
Ba    3.846875  1.254188  3.563479
