26
Energy: -238669.378638 eV PBE+vdW (tier 2 basis)
N    -0.351768  1.711634  1.735120
C    -0.168114  0.668152  2.830919
C    1.360381  0.426698  2.934185
O    1.792067  -0.501632  3.670936
H    -0.644176  1.293168  0.841819
H    -1.028932  2.445490  1.979690
H    -0.448788  1.168992  3.771577
C    -1.038218  -0.582605  2.644448
C    -2.545717  -0.305205  2.826135
C    -3.451284  -1.539149  3.047214
C    -3.740286  -2.368160  1.795357
N    -4.800314  -3.426141  2.077697
H    -0.691982  -1.294580  3.407989
H    -0.814407  -1.046647  1.669655
H    -2.942907  0.282989  1.982227
H    -2.675786  0.325456  3.718648
H    -4.405428  -1.161242  3.446712
H    -3.017005  -2.178469  3.832077
H    -2.864368  -2.913603  1.423370
H    -4.142839  -1.755437  0.978585
H    -5.690357  -3.001004  2.379969
H    -5.003461  -3.990844  1.238765
H    -4.507777  -4.078039  2.821014
O    2.124879  1.239193  2.309762
H    0.593819  2.135383  1.592476
Ba    4.259768  0.187602  3.442652
