26
Energy: -238669.546025 eV PBE+vdW (tier 2 basis)
N    0.976296  0.062532  -0.181792
C    0.276309  0.111708  1.171615
C    1.375911  0.485948  2.199862
O    2.515121  0.839273  1.740141
H    1.146519  -0.901765  -0.497869
H    0.467254  0.557022  -0.925071
H    -0.404895  0.976396  1.132898
C    -0.513083  -1.161941  1.499575
C    -1.774578  -1.372532  0.638454
C    -2.602732  -2.593785  1.093517
C    -3.855197  -2.769760  0.232462
N    -4.701346  -3.950302  0.689273
H    -0.794139  -1.071430  2.558825
H    0.156744  -2.036125  1.438423
H    -1.503784  -1.501822  -0.422729
H    -2.402531  -0.469029  0.692382
H    -2.892553  -2.461246  2.148142
H    -1.983600  -3.503579  1.041024
H    -3.612075  -2.964427  -0.819662
H    -4.514152  -1.893523  0.277192
H    -4.182006  -4.839652  0.643421
H    -5.031056  -3.836252  1.659344
H    -5.538381  -4.057172  0.095517
O    1.097685  0.481939  3.430297
H    1.906505  0.517509  -0.028024
Ba    3.351767  1.466015  4.163786
