26
Energy: -238668.176534 eV PBE+vdW (tier 2 basis)
N    2.660846  0.254748  0.600810
C    1.818855  -0.179260  1.754151
C    2.000916  -1.695796  1.919911
O    2.808467  -2.324611  1.216101
H    2.060923  0.328608  -0.228939
H    2.972676  1.215409  0.772771
H    2.269272  0.257914  2.663374
C    0.344565  0.325161  1.661183
C    -0.494356  0.209153  2.954790
C    -1.709873  1.163165  3.065760
C    -2.907534  0.787404  2.190761
N    -4.114576  1.658185  2.515637
H    -0.154782  -0.177031  0.817735
H    0.422671  1.390424  1.395253
H    0.143518  0.445241  3.821388
H    -0.867320  -0.820424  3.095221
H    -1.387505  2.193452  2.847399
H    -2.024268  1.152253  4.121026
H    -3.232834  -0.247224  2.359487
H    -2.720153  0.922140  1.118445
H    -4.927372  1.406472  1.931987
H    -4.406017  1.555536  3.500088
H    -3.925632  2.659634  2.357637
O    1.351572  -2.359751  2.841010
H    0.750179  -1.803832  3.377090
Ba    4.734611  -1.702746  -0.176180
