26
Energy: -238668.323142 eV PBE+vdW (tier 2 basis)
N    -0.126974  -0.214918  -0.279005
C    -0.112413  0.036641  1.155116
C    1.398775  0.046928  1.435347
O    2.120592  1.051322  1.205546
H    -0.256966  -1.190014  -0.539466
H    -0.748132  0.386902  -0.811296
H    -0.449856  1.067631  1.334246
C    -0.921447  -0.931635  2.044197
C    -2.441664  -0.799709  1.831052
C    -3.257337  -1.792123  2.684555
C    -4.757287  -1.623434  2.442421
N    -5.581425  -2.595296  3.276750
H    -0.680381  -0.742009  3.102879
H    -0.624973  -1.975642  1.825634
H    -2.677599  -0.954301  0.767306
H    -2.748351  0.229618  2.074773
H    -3.033426  -1.633944  3.751840
H    -2.956898  -2.824133  2.440954
H    -5.032581  -1.815753  1.397856
H    -5.110297  -0.620472  2.713149
H    -5.427922  -2.460289  4.287033
H    -6.590745  -2.472180  3.103339
H    -5.353516  -3.576925  3.060098
O    2.025378  -1.035532  1.837556
H    1.409429  -1.770585  2.039638
Ba    4.108884  2.283340  0.638468
