26
Energy: -238669.192940 eV PBE+vdW (tier 2 basis)
N    -0.363445  1.553660  3.868770
C    -0.198307  0.091023  3.467654
C    1.329930  -0.124119  3.300598
O    1.757548  -1.241207  2.901430
H    -0.771635  2.124650  3.115996
H    -0.931610  1.689218  4.714170
H    -0.502782  -0.508516  4.338905
C    -1.025534  -0.279855  2.226485
C    -2.561843  -0.263442  2.411334
C    -3.174410  -1.515728  3.082695
C    -3.589570  -2.654277  2.146039
N    -4.950459  -2.420558  1.495026
H    -0.680749  -1.275253  1.911174
H    -0.745764  0.400649  1.406282
H    -3.003154  -0.105206  1.415342
H    -2.870193  0.626289  2.981403
H    -4.037726  -1.227520  3.701996
H    -2.463938  -1.958304  3.797047
H    -3.692568  -3.598274  2.693784
H    -2.882632  -2.813385  1.321886
H    -4.981581  -1.561323  0.928012
H    -5.199678  -3.203463  0.870729
H    -5.698678  -2.350418  2.201495
O    2.097920  0.848957  3.614241
H    0.611193  1.897470  4.045016
Ba    4.246672  -0.608069  3.154493
