26
Energy: -238669.117597 eV PBE+vdW (tier 2 basis)
N    1.870754  -1.594403  -0.036129
C    0.716458  -1.125209  0.844166
C    1.372897  -0.348979  2.014136
O    2.632965  -0.132515  1.938322
H    1.692056  -1.468632  -1.041193
H    2.706013  -1.037630  0.250528
H    0.155695  -0.391033  0.246693
C    -0.177604  -2.320532  1.246519
C    -1.650970  -2.022863  1.603836
C    -2.546401  -1.641451  0.398972
C    -3.946891  -2.257401  0.373951
N    -4.900911  -1.700832  1.427382
H    0.294798  -2.843038  2.091261
H    -0.177794  -3.032768  0.405213
H    -1.696442  -1.259457  2.392803
H    -2.024600  -2.954284  2.056831
H    -2.090871  -2.008773  -0.534469
H    -2.618149  -0.549672  0.275024
H    -3.920878  -3.342281  0.538033
H    -4.436762  -2.069343  -0.588984
H    -5.044871  -0.686518  1.316035
H    -5.828448  -2.146446  1.346251
H    -4.570980  -1.868762  2.387984
O    0.663873  0.059850  2.973683
H    2.092915  -2.588314  0.120227
Ba    2.681149  1.222285  4.155922
