26
Energy: -238669.260287 eV PBE+vdW (tier 2 basis)
N    -0.192356  1.653895  1.642363
C    -0.188053  0.482416  2.618526
C    1.307377  0.142848  2.857135
O    1.610821  -0.869008  3.545698
H    -0.455926  1.368224  0.689231
H    -0.810408  2.424784  1.925407
H    -0.567455  0.876060  3.574459
C    -1.052907  -0.695299  2.146782
C    -2.569417  -0.409521  2.111009
C    -3.400329  -1.564032  1.498865
C    -3.855652  -2.687028  2.437245
N    -5.213950  -2.407658  3.077202
H    -0.825928  -1.529679  2.826002
H    -0.707081  -1.017403  1.149836
H    -2.769363  0.485656  1.502073
H    -2.921270  -0.158318  3.125480
H    -2.819917  -2.042513  0.696753
H    -4.279030  -1.147820  0.982498
H    -3.161416  -2.872298  3.266339
H    -3.988728  -3.627780  1.890614
H    -5.498191  -3.180482  3.699075
H    -5.222101  -1.545624  3.640245
H    -5.950801  -2.313050  2.361481
O    2.175544  0.948059  2.374067
H    0.799392  1.989813  1.613094
Ba    4.141146  -0.372241  3.526522
