26
Energy: -238669.204877 eV PBE+vdW (tier 2 basis)
N    0.692799  -0.286950  0.055959
C    -0.007343  -0.014662  1.383461
C    1.095221  0.578274  2.306852
O    0.822799  0.816138  3.514892
H    1.635545  0.166130  0.156143
H    0.837823  -1.290843  -0.112373
H    -0.715962  0.807813  1.200312
C    -0.740338  -1.223718  1.987313
C    -2.184099  -1.507384  1.511973
C    -2.343941  -2.215316  0.154871
C    -3.788415  -2.470196  -0.291882
N    -4.493065  -3.579486  0.482838
H    -0.788856  -1.009675  3.064055
H    -0.108310  -2.123723  1.897884
H    -2.755683  -0.565605  1.511144
H    -2.634156  -2.124145  2.305671
H    -1.778444  -3.162095  0.138053
H    -1.920652  -1.602355  -0.657419
H    -3.821337  -2.784681  -1.341624
H    -4.419689  -1.579208  -0.182314
H    -4.588558  -3.368080  1.486021
H    -5.447100  -3.724205  0.116266
H    -4.000222  -4.481058  0.398140
O    2.226941  0.843749  1.776851
H    0.209188  0.111997  -0.757701
Ba    3.069856  1.923285  4.057611
