26
Energy: -238668.184170 eV PBE+vdW (tier 2 basis)
N    1.933958  -0.186711  0.718658
C    0.660270  -0.190487  1.419830
C    0.304839  1.275283  1.692010
O    -0.274573  2.010268  0.843859
H    2.726163  0.197025  1.231942
H    1.914378  0.150486  -0.240353
H    -0.106562  -0.567840  0.729073
C    0.718797  -1.058949  2.694714
C    1.134650  -2.529504  2.461318
C    0.032160  -3.437650  1.891827
C    0.467500  -4.867097  1.566866
N    0.741835  -5.720755  2.802930
H    -0.249910  -1.010518  3.215783
H    1.470870  -0.636388  3.386934
H    1.473338  -2.908852  3.437956
H    2.012715  -2.546635  1.799136
H    -0.335941  -3.039278  0.934004
H    -0.845748  -3.457282  2.558572
H    1.389461  -4.896202  0.972406
H    -0.314810  -5.400362  1.014237
H    -0.089253  -5.793233  3.407996
H    1.003375  -6.681054  2.532148
H    1.512951  -5.349690  3.375009
O    0.707930  1.884217  2.790528
H    1.100446  1.261277  3.438777
Ba    -1.164309  4.157434  0.132371
