26
Energy: -238669.461538 eV PBE+vdW (tier 2 basis)
N    2.174225  -2.567758  0.510738
C    1.137653  -1.479992  0.769344
C    1.800830  -0.494004  1.763432
O    1.115833  0.419869  2.298562
H    3.097905  -2.170167  0.786817
H    2.010215  -3.402135  1.092148
H    1.036126  -0.931339  -0.180524
C    -0.218838  -2.096521  1.166615
C    -1.438065  -1.190720  0.903934
C    -2.765898  -1.944517  1.134049
C    -3.974914  -1.068497  0.803559
N    -5.286612  -1.820316  0.989378
H    -0.187971  -2.406966  2.222490
H    -0.341244  -3.015721  0.570340
H    -1.401920  -0.831267  -0.136699
H    -1.390008  -0.301874  1.548050
H    -2.825658  -2.281896  2.181161
H    -2.786158  -2.848274  0.503442
H    -3.968383  -0.731577  -0.240666
H    -4.039317  -0.185113  1.450824
H    -6.094721  -1.220526  0.762331
H    -5.345005  -2.649503  0.379394
H    -5.412554  -2.144558  1.959762
O    3.060026  -0.624430  1.959033
H    2.201027  -2.870877  -0.472029
Ba    3.190429  1.525679  3.410516
