26
Energy: -238669.371947 eV PBE+vdW (tier 2 basis)
N    -0.427510  -0.659031  -0.107517
C    0.001698  0.064234  1.162471
C    1.528250  0.294929  1.041259
O    2.176194  0.704071  2.043936
H    -0.487367  -1.677533  0.024106
H    -1.335557  -0.332585  -0.464767
H    -0.427668  1.075529  1.075258
C    -0.555833  -0.549865  2.454075
C    -0.178374  -2.001113  2.804825
C    -0.895694  -2.444452  4.101147
C    -0.584000  -3.892388  4.481464
N    -1.323102  -4.311040  5.745948
H    -1.651743  -0.447288  2.418345
H    -0.225402  0.122355  3.259148
H    0.911294  -2.090698  2.931296
H    -0.462126  -2.697073  1.996180
H    -1.983122  -2.325611  3.968368
H    -0.599946  -1.772737  4.922628
H    0.481599  -4.049767  4.689472
H    -0.893166  -4.603508  3.705096
H    -1.107847  -5.288362  5.997020
H    -1.066186  -3.726510  6.555526
H    -2.346208  -4.245994  5.634549
O    2.047588  0.160507  -0.119889
H    0.316898  -0.475156  -0.813978
Ba    4.250332  1.351081  0.656037
