26
Energy: -238668.277335 eV PBE+vdW (tier 2 basis)
N    -0.301740  -1.506036  -0.324813
C    -0.113079  -0.555697  0.760688
C    1.422050  -0.539379  0.862609
O    2.144116  0.150600  0.097733
H    -0.507720  -2.459022  -0.034617
H    -0.929697  -1.202765  -1.062440
H    -0.395983  0.446567  0.408893
C    -0.831850  -0.867412  2.089523
C    -2.369802  -0.778602  2.001057
C    -3.040400  -1.244442  3.308305
C    -4.558381  -1.418962  3.278500
N    -5.334926  -0.106475  3.359480
H    -0.466833  -0.182549  2.871925
H    -0.573692  -1.893309  2.416621
H    -2.724290  -1.406118  1.168906
H    -2.649822  0.259417  1.756715
H    -2.753596  -0.595091  4.151881
H    -2.652923  -2.240667  3.572449
H    -4.896917  -2.005182  4.140918
H    -4.907181  -1.920864  2.367122
H    -5.139914  0.518774  2.566062
H    -6.351216  -0.283391  3.362803
H    -5.115868  0.408353  4.225030
O    2.058541  -1.334745  1.694003
H    1.450736  -1.816312  2.293150
Ba    4.170170  0.699030  -1.094609
