26
Energy: -238668.276757 eV PBE+vdW (tier 2 basis)
N    1.460185  -0.604920  -0.316841
C    0.973411  -0.396155  1.037879
C    2.154827  -0.942027  1.858041
O    3.168754  -0.248238  2.129106
H    1.125883  -1.449327  -0.774469
H    1.395992  0.200241  -0.931320
H    0.947959  0.683315  1.243231
C    -0.388103  -1.023141  1.398889
C    -1.589791  -0.342282  0.710294
C    -2.925303  -0.965527  1.162365
C    -4.202870  -0.233899  0.752049
N    -4.609472  -0.459770  -0.702627
H    -0.528729  -0.969297  2.490879
H    -0.390446  -2.096852  1.129835
H    -1.467773  -0.407317  -0.382783
H    -1.585254  0.729213  0.966081
H    -2.956656  -0.979023  2.262781
H    -2.987858  -2.024877  0.862969
H    -4.125615  0.853301  0.879043
H    -5.055405  -0.586109  1.344656
H    -4.765709  -1.459222  -0.899605
H    -5.491906  0.030637  -0.914543
H    -3.905348  -0.115765  -1.369113
O    2.202295  -2.202178  2.229993
H    1.372690  -2.684602  2.033127
Ba    5.469677  0.150772  2.741321
