26
Energy: -238667.995795 eV PBE+vdW (tier 2 basis)
N    -1.124611  0.992833  1.630390
C    -0.583341  0.322720  2.805023
C    0.861097  0.791771  2.970414
O    1.166295  1.828838  3.624880
H    -1.405010  1.959849  1.773360
H    -0.597198  0.895484  0.765317
H    -1.114791  0.720802  3.679432
C    -0.832175  -1.208022  2.788276
C    -0.475362  -1.984420  1.506596
C    -0.987982  -3.446408  1.478158
C    -2.481933  -3.565609  1.170886
N    -2.896642  -5.023988  1.023876
H    -1.912453  -1.295532  2.972026
H    -0.337227  -1.663279  3.660604
H    0.618803  -2.068936  1.370564
H    -0.855497  -1.457055  0.618982
H    -0.756931  -3.940944  2.434924
H    -0.422792  -3.982931  0.700763
H    -2.745685  -3.081853  0.221995
H    -3.121746  -3.151797  1.959404
H    -3.902071  -5.108038  0.809862
H    -2.383608  -5.491430  0.261160
H    -2.721952  -5.563941  1.884475
O    1.857257  0.199363  2.342637
H    1.566755  -0.618874  1.885963
Ba    2.514908  3.555218  4.643401
