18
Energy: -98107.7712007 eV PBE+vdW (tier 2 basis)
N    0.251352  0.044733  0.266361
C    0.009649  -0.185160  1.757758
C    1.327282  -0.114238  2.514155
O    1.302206  -0.187583  3.782272
H    -0.147301  0.943150  -0.029092
H    -0.651134  0.611873  2.122737
C    -0.695216  -1.558266  1.835759
C    -1.414663  -1.666247  0.485643
C    -0.397593  -1.112400  -0.503061
H    -1.369790  -1.599152  2.696604
H    0.044246  -2.363956  1.947431
H    -2.336282  -1.067225  0.479188
H    -1.689898  -2.697752  0.239280
H    -0.809376  -0.725861  -1.440397
H    0.400207  -1.829664  -0.728162
O    2.426126  -0.002729  1.861614
H    1.273154  0.095078  0.113885
Sr    3.637032  0.011399  3.948023
