18
Energy: -98107.073728 eV PBE+vdW (tier 2 basis)
N    0.439267  0.007698  0.085608
C    0.210833  0.067908  1.578400
C    1.506164  0.342791  2.303265
O    2.617581  0.346554  1.724887
H    -0.214408  0.673022  -0.336302
H    -0.491237  0.880193  1.813903
C    -0.397305  -1.306410  1.995737
C    -0.995080  -1.839405  0.690279
C    0.010817  -1.374787  -0.358318
H    -1.130927  -1.183004  2.798533
H    0.388140  -1.980771  2.366990
H    -1.978101  -1.389541  0.490846
H    -1.121974  -2.927847  0.701755
H    -0.382113  -1.332991  -1.381100
H    0.892118  -2.046939  -0.355060
O    1.364704  0.544109  3.583056
H    2.226263  0.689697  4.033113
Sr    2.893260  0.236722  -0.581592
