18
Energy: -98106.9162646 eV PBE+vdW (tier 2 basis)
N    0.305074  -0.015338  -0.060733
C    0.154639  0.059891  1.440923
C    1.513746  0.211874  2.097414
O    2.566754  0.152548  1.430266
H    -0.345114  0.671688  -0.452698
H    -0.455126  0.939837  1.695581
C    -0.560121  -1.254768  1.891298
C    -1.212629  -1.770209  0.603020
C    -0.200500  -1.380246  -0.469438
H    -1.286510  -1.064970  2.689223
H    0.171992  -1.982116  2.270925
H    -2.171432  -1.266765  0.414984
H    -1.402447  -2.849011  0.635717
H    -0.610872  -1.336920  -1.485364
H    0.644830  -2.094949  -0.466555
O    1.617967  0.380470  3.388003
H    0.760445  0.417657  3.858978
Sr    2.754306  0.131325  -0.860543
