11
Energy: -161858.984834 eV PBE+vdW (tier 2 basis)
N    0.039665  -0.128817  0.101987
C    0.088107  -0.555748  1.546690
C    1.448376  -0.292211  2.188374
O    1.576155  -0.622728  3.407980
H    0.734258  -0.628364  -0.476030
H    -0.893976  -0.324310  -0.296437
H    -0.686331  -0.010599  2.103243
H    -0.138163  -1.629047  1.606458
O    2.378867  0.232807  1.502063
H    0.220479  0.881238  -0.012789
Cd    3.666562  0.092779  3.380462
