11
Energy: -161858.45469 eV PBE+vdW (tier 2 basis)
N    0.634750  -0.405888  0.026212
C    0.326642  -0.026860  1.432239
C    1.534708  -0.070007  2.381785
O    2.688904  -0.390647  2.019038
H    0.076957  -1.216537  -0.268792
H    0.401589  0.356518  -0.621618
H    -0.078959  0.996524  1.458601
H    -0.439595  -0.705252  1.838589
O    1.374579  0.238414  3.627416
H    0.463564  0.487657  3.897017
Cd    2.871861  -0.890924  -0.072487
