11
Energy: -161858.689358 eV PBE+vdW (tier 2 basis)
N    0.406928  -0.196079  0.003555
C    0.033062  0.130862  1.406394
C    1.169282  -0.032438  2.416313
O    2.331760  -0.407750  2.134874
H    -0.180928  -0.951732  -0.369237
H    0.264919  0.611959  -0.614886
H    -0.315904  1.172598  1.476034
H    -0.793984  -0.513771  1.741515
O    0.794652  0.264227  3.617164
H    1.508192  0.167893  4.291943
Cd    2.601022  -0.819769  0.014331
