32
Energy: -606846.055004 eV PBE+vdW (tier 2 basis)
C    -0.785109  -0.872826  -0.152558
C    -0.489857  -0.573011  1.277802
O    0.700096  -0.738802  1.712234
H    -1.828802  -0.694006  -0.430630
H    -0.538454  -1.927751  -0.343370
H    -0.125786  -0.274147  -0.795254
N    -1.489147  -0.170725  2.068960
C    -1.498450  0.021413  3.539994
C    -0.865360  1.374781  3.888612
O    0.358543  1.644295  3.636639
H    -2.393010  -0.072106  1.612745
H    -2.567205  0.115179  3.766338
C    -0.996357  -1.242791  4.323741
C    0.230660  -1.228323  5.256420
C    0.113649  -0.301514  6.466148
C    0.559914  -2.665540  5.674010
H    -0.867603  -2.042690  3.583805
H    -1.837283  -1.566989  4.953739
H    1.148696  -0.898185  4.666376
H    1.005290  -0.370805  7.100903
H    -0.743750  -0.612544  7.080547
H    -0.027995  0.755574  6.210338
H    1.450911  -2.698194  6.312136
H    0.723672  -3.323137  4.810971
H    -0.274167  -3.081348  6.258011
N    -1.645538  2.282770  4.447828
C    -1.234600  3.624478  4.867981
H    -2.618889  2.032965  4.610214
H    -1.473946  3.758022  5.929710
H    -1.780478  4.373653  4.281428
H    -0.161302  3.743216  4.708354
Pb    2.116086  0.356797  3.051357
