32
Energy: -606845.904333 eV PBE+vdW (tier 2 basis)
C    0.390328  -0.190089  0.287433
C    0.173414  -0.210288  1.760335
O    1.190044  -0.251439  2.538462
H    0.987210  0.697742  0.032222
H    -0.542290  -0.173122  -0.285861
H    0.985391  -1.065879  -0.005349
N    -1.071605  -0.163899  2.243506
C    -1.427072  -0.022928  3.665340
C    -1.174297  -1.366621  4.383108
O    -0.089593  -1.484449  5.075761
H    -1.828145  -0.082732  1.566037
H    -0.688332  0.662696  4.111677
C    -2.798968  0.656867  3.824615
C    -3.081163  1.247583  5.222493
C    -4.370589  2.076669  5.158274
C    -3.161517  0.193715  6.333620
H    -3.617076  -0.014269  3.529485
H    -2.802208  1.485856  3.098772
H    -2.250400  1.937034  5.458742
H    -4.560541  2.565083  6.121450
H    -5.241390  1.444232  4.932855
H    -4.314925  2.862578  4.393651
H    -3.943112  -0.552472  6.126913
H    -3.423743  0.669517  7.286544
H    -2.212464  -0.334598  6.508691
N    -1.969189  -2.413240  4.310615
C    -3.247464  -2.602619  3.617325
H    -1.640257  -3.212207  4.856919
H    -4.082945  -2.285466  4.253438
H    -3.352947  -3.670694  3.402898
H    -3.269855  -2.057668  2.670315
Pb    1.950266  -0.716263  4.591581
