32
Energy: -606845.335159 eV PBE+vdW (tier 2 basis)
C    0.194424  1.583507  0.086864
C    0.094537  0.757305  1.315082
O    1.163519  0.347039  1.900298
H    0.689389  2.541926  0.302289
H    -0.767958  1.752155  -0.403497
H    0.863615  1.052588  -0.608973
N    -1.094784  0.418127  1.847432
C    -2.199595  1.361531  2.067856
C    -1.639318  2.467477  2.988600
O    -0.645966  2.233477  3.777870
H    -1.059117  -0.345079  2.526795
H    -2.494081  1.813000  1.109911
C    -3.394365  0.563497  2.647034
C    -4.772193  1.255708  2.787026
C    -4.959199  2.044777  4.090076
C    -5.179406  2.052154  1.541713
H    -3.097497  0.142106  3.622244
H    -3.506609  -0.284344  1.953381
H    -5.469422  0.404652  2.848449
H    -6.011441  2.332725  4.205004
H    -4.376145  2.974641  4.131245
H    -4.692040  1.442326  4.968778
H    -6.232313  2.351396  1.607964
H    -5.064756  1.470216  0.616524
H    -4.612697  2.992723  1.415019
N    -2.198809  3.655079  2.942387
C    -1.873503  4.814411  3.774361
H    -3.001232  3.751333  2.317493
H    -1.660133  5.674401  3.128894
H    -1.007341  4.589224  4.398743
H    -2.734056  5.052732  4.412953
Pb    1.250193  1.028040  4.062994
