32
Energy: -606844.564519 eV PBE+vdW (tier 2 basis)
C    -0.819577  0.556770  -0.435253
C    -0.837861  0.796572  1.030955
O    0.034065  1.678515  1.520122
H    -0.891302  1.515085  -0.967194
H    -1.636252  -0.095251  -0.757520
H    0.135742  0.092386  -0.720790
N    -1.631196  0.221379  1.876736
C    -2.688506  -0.777302  1.690669
C    -3.448925  -0.622062  3.044007
O    -2.870134  0.007273  3.950364
H    -1.677920  0.457124  2.923244
H    -3.330526  -0.495062  0.844259
C    -2.079479  -2.189423  1.483396
C    -3.076175  -3.324897  1.170532
C    -3.958994  -3.026427  -0.046808
C    -2.282570  -4.623963  0.970252
H    -1.493434  -2.443561  2.379311
H    -1.365391  -2.121417  0.646391
H    -3.718854  -3.473502  2.054343
H    -4.610815  -3.880557  -0.267789
H    -3.350636  -2.845150  -0.945836
H    -4.621611  -2.155698  0.084581
H    -2.965322  -5.468329  0.813660
H    -1.658152  -4.858625  1.842219
H    -1.628944  -4.560387  0.088216
N    -4.659562  -1.169334  3.146362
C    -5.473748  -1.131134  4.359827
H    -5.035422  -1.659272  2.339350
H    -6.457328  -0.703629  4.131846
H    -4.966283  -0.514354  5.105212
H    -5.607520  -2.146243  4.754906
Pb    1.373583  3.093481  2.258603
