32
Energy: -606844.711393 eV PBE+vdW (tier 2 basis)
C    0.310063  1.084120  0.382961
C    -0.267416  0.284802  1.497079
O    0.515216  -0.018889  2.509607
H    0.701852  2.037326  0.763559
H    -0.420521  1.279787  -0.408020
H    1.162874  0.533719  -0.041235
N    -1.503126  -0.129159  1.446482
C    -2.240079  -1.068309  2.295869
C    -3.313811  -1.600297  1.275203
O    -3.491948  -0.922806  0.256354
H    -2.106497  0.023653  0.590762
H    -1.569112  -1.876038  2.618673
C    -2.967268  -0.387084  3.474784
C    -2.157075  0.021390  4.723519
C    -3.034866  0.776210  5.728406
C    -1.452235  -1.168075  5.394156
H    -3.753465  -1.070890  3.831682
H    -3.496045  0.493836  3.084151
H    -1.407677  0.803233  4.364422
H    -2.465306  1.109093  6.605656
H    -3.835936  0.115600  6.090345
H    -3.504314  1.654594  5.270278
H    -0.947302  -0.898917  6.340094
H    -0.766623  -1.745109  4.737084
H    -2.194814  -1.922899  5.700412
N    -3.993505  -2.719162  1.553898
C    -3.863302  -3.628567  2.686370
H    -4.695604  -2.950365  0.851593
H    -3.995605  -4.657067  2.333383
H    -4.621378  -3.428436  3.456797
H    -2.864386  -3.562712  3.131287
Pb    0.878583  0.317678  4.581596
