32
Energy: -606845.338584 eV PBE+vdW (tier 2 basis)
C    0.084326  -0.276821  0.459573
C    -0.032383  0.379861  1.787058
O    0.800773  0.068967  2.719907
H    -0.132505  0.413155  -0.362055
H    -0.621915  -1.121765  0.392514
H    1.093924  -0.689570  0.357890
N    -0.986328  1.284253  2.075206
C    -2.419511  1.153807  1.748415
C    -2.915261  -0.130454  2.454932
O    -2.223295  -0.698007  3.383188
H    -0.799248  1.814217  2.926438
H    -2.895631  1.992857  2.280876
C    -2.802598  1.291569  0.263228
C    -2.237430  2.554323  -0.421343
C    -2.653607  2.550034  -1.897487
C    -2.673458  3.844241  0.282259
H    -3.903024  1.358174  0.213971
H    -2.521607  0.389045  -0.297722
H    -1.135098  2.498872  -0.378682
H    -2.205931  3.401326  -2.424009
H    -3.744477  2.634421  -2.004647
H    -2.332848  1.635034  -2.414335
H    -2.294128  4.719511  -0.258702
H    -2.291481  3.930227  1.311294
H    -3.769461  3.932957  0.313922
N    -4.086972  -0.627706  2.125638
C    -4.722743  -1.789466  2.759184
H    -4.592301  -0.165646  1.371875
H    -5.762928  -1.832956  2.426579
H    -4.691581  -1.686330  3.848970
H    -4.210719  -2.713459  2.463110
Pb    -0.248939  -0.865419  4.487304
