32
Energy: -606846.034803 eV PBE+vdW (tier 2 basis)
C    -2.412545  -0.196631  0.472106
C    -1.546477  0.320979  1.570082
O    -0.349095  -0.114746  1.656436
H    -3.419406  0.233345  0.469574
H    -2.486780  -1.289274  0.570926
H    -1.927823  0.000085  -0.493966
N    -2.061959  1.210361  2.425835
C    -1.493636  1.765467  3.675585
C    -0.414368  2.808189  3.365067
O    0.753677  2.452018  2.968642
H    -3.030876  1.461721  2.246356
H    -2.336241  2.288669  4.141086
C    -1.014841  0.724964  4.704188
C    -2.046516  -0.351838  5.093453
C    -1.399452  -1.340303  6.070681
C    -3.319204  0.270004  5.686168
H    -0.696866  1.283291  5.599834
H    -0.098001  0.193354  4.362889
H    -2.321843  -0.908857  4.181626
H    -2.100046  -2.145271  6.322239
H    -1.112310  -0.846879  7.009857
H    -0.502074  -1.812698  5.644804
H    -4.009357  -0.521555  6.002231
H    -3.872170  0.896685  4.970524
H    -3.093057  0.878331  6.573781
N    -0.658313  4.093836  3.526308
C    -1.896352  4.749980  3.973444
H    0.135596  4.703275  3.319294
H    -1.748391  5.829976  3.888748
H    -2.111678  4.512945  5.022503
H    -2.743325  4.472673  3.335374
Pb    1.632729  0.440901  2.519327
