32
Energy: -606846.077591 eV PBE+vdW (tier 2 basis)
C    -0.993919  -1.304670  0.931860
C    -1.311866  -0.115740  1.772674
O    -0.627600  0.075601  2.835527
H    0.079861  -1.316865  0.704243
H    -1.568379  -1.346456  0.000684
H    -1.204578  -2.209439  1.521891
N    -2.310973  0.685201  1.391574
C    -2.952783  1.817184  2.099355
C    -2.038432  3.050210  2.098613
O    -1.034592  3.133271  2.891861
H    -2.767508  0.408922  0.525802
H    -3.826851  2.060431  1.480315
C    -3.497018  1.509167  3.509593
C    -4.730889  0.572444  3.589815
C    -5.922267  1.132406  2.801895
C    -4.439092  -0.889041  3.228068
H    -3.762822  2.478297  3.959879
H    -2.711573  1.068652  4.159161
H    -5.004494  0.596160  4.656852
H    -5.777585  1.064024  1.712152
H    -6.141352  2.177355  3.061321
H    -6.823294  0.548267  3.026369
H    -4.307798  -1.037221  2.146810
H    -5.284431  -1.521239  3.525487
H    -3.550356  -1.278778  3.745878
N    -2.329812  4.044629  1.284403
C    -1.595241  5.308083  1.168690
H    -3.142779  3.933653  0.681169
H    -0.834043  5.360530  1.949406
H    -2.300262  6.140380  1.276834
H    -1.120864  5.365484  0.181055
Pb    -0.142409  1.660099  4.322761
