32
Energy: -606846.013444 eV PBE+vdW (tier 2 basis)
C    -0.129882  -1.011983  0.382990
C    -0.386675  -0.464731  1.746680
O    0.221696  -0.990928  2.736447
H    -0.691860  -0.502606  -0.406576
H    -0.389695  -2.080291  0.379903
H    0.945279  -0.947615  0.166255
N    -1.257644  0.547883  1.871049
C    -1.794171  1.193183  3.093217
C    -0.722342  2.101926  3.705571
O    0.318494  1.609954  4.268579
H    -1.671857  0.862869  0.997155
H    -2.600631  1.838570  2.726951
C    -2.454780  0.189296  4.064188
C    -3.028879  0.756365  5.383126
C    -4.258135  -0.063058  5.800755
C    -1.988917  0.780501  6.512696
H    -1.779721  -0.656422  4.307383
H    -3.254167  -0.288631  3.479000
H    -3.359628  1.794794  5.201652
H    -5.042320  -0.032331  5.033699
H    -4.687832  0.326557  6.731279
H    -3.994886  -1.116932  5.973936
H    -2.437491  1.092697  7.464690
H    -1.151352  1.470042  6.334001
H    -1.605625  -0.243500  6.699749
N    -0.851676  3.414238  3.659520
C    -1.923182  4.221884  3.056580
H    -0.079129  3.926611  4.089704
H    -2.898618  3.971446  3.488921
H    -1.943415  4.101579  1.966585
H    -1.712105  5.271257  3.279577
Pb    0.795146  -0.502624  4.851737
