32
Energy: -606846.117855 eV PBE+vdW (tier 2 basis)
C    -1.102692  -3.805514  0.940929
C    -0.829339  -2.579346  1.740163
O    0.249707  -1.920594  1.516033
H    -2.037244  -4.302521  1.220660
H    -0.265552  -4.508910  1.043308
H    -1.149660  -3.522627  -0.121401
N    -1.723334  -2.177286  2.642010
C    -1.739624  -0.896395  3.371675
C    -0.798848  -1.001062  4.588221
O    0.471003  -0.879970  4.424098
H    -2.566399  -2.743635  2.724556
H    -1.288395  -0.137459  2.711595
C    -3.178569  -0.464685  3.690520
C    -4.037027  0.018284  2.490400
C    -3.384278  1.186725  1.743451
C    -4.474933  -1.096668  1.530555
H    -3.110512  0.371424  4.403118
H    -3.710622  -1.285179  4.205308
H    -4.950551  0.404423  2.969270
H    -4.089163  1.615737  1.020930
H    -2.503929  0.871463  1.159593
H    -3.082555  1.997442  2.421445
H    -5.257400  -0.724346  0.857997
H    -4.903418  -1.960734  2.060703
H    -3.656151  -1.443881  0.882832
N    -1.300288  -1.215783  5.783376
C    -0.546120  -1.357379  7.031782
H    -2.316470  -1.265405  5.850195
H    0.514978  -1.188041  6.840343
H    -0.697541  -2.366245  7.435242
H    -0.916636  -0.623388  7.757101
Pb    1.793559  -0.767446  2.620988
