32
Energy: -606845.37931 eV PBE+vdW (tier 2 basis)
C    0.646076  1.267140  0.454803
C    0.346593  0.721731  1.801310
O    1.301554  0.422446  2.603945
H    1.047318  2.289012  0.539058
H    -0.214958  1.256758  -0.219381
H    1.457316  0.662410  0.022537
N    -0.918239  0.532987  2.231123
C    -2.011266  1.493146  2.071800
C    -1.568091  2.811161  2.741262
O    -0.594937  2.830936  3.584495
H    -1.009618  -0.075255  3.046238
H    -2.155852  1.691606  0.999405
C    -3.330927  0.893204  2.624162
C    -3.534149  0.711927  4.150348
C    -2.468396  -0.124733  4.875080
C    -3.822644  2.017741  4.902557
H    -3.435131  -0.078791  2.118187
H    -4.158224  1.507936  2.245836
H    -4.455376  0.107809  4.206618
H    -2.799807  -0.388631  5.887340
H    -1.528008  0.455742  5.033020
H    -2.227191  -1.070424  4.365182
H    -4.172765  1.803189  5.920063
H    -4.611857  2.600382  4.409782
H    -2.935147  2.658875  5.005141
N    -2.163539  3.948244  2.442838
C    -3.297474  4.189704  1.546003
H    -1.809018  4.759595  2.952651
H    -3.175226  5.180590  1.097413
H    -4.239690  4.167380  2.108655
H    -3.332697  3.446960  0.743487
Pb    0.959266  1.504107  4.587576
