32
Energy: -606845.436281 eV PBE+vdW (tier 2 basis)
C    -1.218437  -0.076835  -1.110445
C    -0.876151  -0.477008  0.276221
O    0.270416  -0.990450  0.535623
H    -0.601714  0.779016  -1.424467
H    -2.278937  0.151219  -1.248473
H    -0.935405  -0.907873  -1.774495
N    -1.738971  -0.312670  1.300623
C    -2.518455  0.900419  1.550503
C    -1.529227  2.077504  1.677956
O    -0.281829  1.870509  1.918070
H    -1.511027  -0.847080  2.139821
H    -3.180942  1.084544  0.692596
C    -3.387626  0.731173  2.821957
C    -2.699211  0.821352  4.202636
C    -3.781277  0.744010  5.293210
C    -1.635724  -0.252729  4.484156
H    -3.915022  -0.230281  2.715974
H    -4.172424  1.498132  2.786761
H    -2.214693  1.809991  4.285989
H    -4.544043  1.520482  5.149536
H    -3.346000  0.887721  6.289418
H    -4.287783  -0.231165  5.284753
H    -0.700799  -0.099661  3.891614
H    -1.997769  -1.274531  4.291035
H    -1.308213  -0.217908  5.530756
N    -1.946780  3.321669  1.552308
C    -3.300912  3.823033  1.295908
H    -1.221152  4.028284  1.687757
H    -3.222044  4.724823  0.680377
H    -3.798216  4.079894  2.239999
H    -3.900079  3.084753  0.755155
Pb    1.265406  0.219749  2.199798
