32
Energy: -606845.409609 eV PBE+vdW (tier 2 basis)
C    -2.104283  -1.356764  0.395463
C    -1.121272  -1.108778  1.479652
O    0.034346  -1.678502  1.438973
H    -1.789010  -0.858540  -0.534468
H    -3.120769  -1.048353  0.655910
H    -2.092406  -2.435045  0.177401
N    -1.394265  -0.299025  2.514357
C    -2.031414  1.012531  2.394734
C    -1.019611  1.913723  1.639543
O    0.197755  1.546819  1.439083
H    -0.777073  -0.396037  3.322828
H    -2.936720  0.918479  1.774920
C    -2.411733  1.585622  3.776064
C    -3.689312  1.003519  4.418996
C    -3.613683  -0.500877  4.706302
C    -3.991700  1.792942  5.699467
H    -2.545419  2.671764  3.665136
H    -1.549422  1.466637  4.457285
H    -4.516694  1.179147  3.708364
H    -4.519563  -0.826675  5.232128
H    -2.761976  -0.743601  5.360661
H    -3.541784  -1.115129  3.798353
H    -4.934978  1.452140  6.143078
H    -4.086880  2.870057  5.507316
H    -3.203987  1.649626  6.453264
N    -1.425076  3.087557  1.204867
C    -0.584131  4.063867  0.499460
H    -2.392579  3.349251  1.385973
H    -1.181199  4.960885  0.318126
H    -0.248231  3.653555  -0.460276
H    0.286744  4.323475  1.112080
Pb    1.705353  -0.157759  1.439266
