32
Energy: -606845.426911 eV PBE+vdW (tier 2 basis)
C    -1.348848  -1.345192  -0.022024
C    -0.452661  -0.656496  0.940248
O    0.788939  -0.990785  1.010046
H    -1.087919  -1.076749  -1.056910
H    -2.409512  -1.151239  0.160615
H    -1.156369  -2.425301  0.066047
N    -0.899377  0.310654  1.760339
C    -1.757786  1.413025  1.330311
C    -0.861637  2.367196  0.504308
O    0.397733  2.143607  0.335277
H    -0.273947  0.536480  2.536551
H    -2.511746  1.001788  0.641179
C    -2.478664  2.093453  2.528935
C    -4.013441  2.200707  2.382116
C    -4.448139  3.130989  1.242882
C    -4.682394  0.826459  2.277595
H    -2.045829  3.088275  2.708494
H    -2.257725  1.492227  3.422816
H    -4.347229  2.664139  3.323985
H    -5.536204  3.271391  1.249018
H    -4.220692  2.710557  0.245343
H    -4.009294  4.137704  1.336223
H    -5.774421  0.928001  2.293124
H    -4.400342  0.169155  3.110650
H    -4.438856  0.309057  1.334254
N    -1.414625  3.428606  -0.035803
C    -0.713355  4.425379  -0.852953
H    -2.412810  3.571867  0.140221
H    -1.436594  5.186046  -1.156930
H    -0.286685  3.954732  -1.746433
H    0.087337  4.897402  -0.271455
Pb    2.168735  0.756275  0.608920
