32
Energy: -606845.439083 eV PBE+vdW (tier 2 basis)
C    -1.691130  1.991309  -0.641667
C    -0.983408  1.473045  0.555405
O    -0.286313  2.272773  1.283688
H    -2.484823  2.695196  -0.350064
H    -2.099079  1.202221  -1.279151
H    -0.964820  2.583002  -1.220520
N    -1.044144  0.177264  0.909394
C    -2.284947  -0.599813  0.969041
C    -3.154898  0.031682  2.069832
O    -2.638823  0.835108  2.943121
H    -0.337694  -0.116672  1.587164
H    -2.807057  -0.519005  0.004922
C    -1.963016  -2.079783  1.257332
C    -1.195029  -2.784379  0.120023
C    -0.816853  -4.199863  0.576696
C    -1.996148  -2.811168  -1.185761
H    -2.905173  -2.614902  1.444495
H    -1.393716  -2.136855  2.201238
H    -0.257961  -2.227635  -0.059786
H    -0.220963  -4.703051  -0.194129
H    -1.711492  -4.813159  0.755587
H    -0.222497  -4.188778  1.500190
H    -1.438458  -3.345501  -1.964332
H    -2.203466  -1.809055  -1.593141
H    -2.954717  -3.335494  -1.056670
N    -4.438906  -0.246911  2.162623
C    -5.262399  -1.115768  1.315334
H    -4.914475  0.190054  2.954782
H    -6.218906  -0.614139  1.132476
H    -5.452519  -2.067705  1.827651
H    -4.774792  -1.310467  0.356736
Pb    -0.979671  2.291849  3.441544
