32
Energy: -606846.010513 eV PBE+vdW (tier 2 basis)
C    -0.115612  -0.438301  0.194909
C    -0.327324  -0.110958  1.634147
O    0.383931  -0.711086  2.507430
H    0.936560  -0.258916  -0.065237
H    -0.761530  0.129726  -0.482434
H    -0.298014  -1.513046  0.050327
N    -1.265884  0.788337  1.955111
C    -1.756367  1.190915  3.297129
C    -0.694456  2.085242  3.959991
O    0.310283  1.572084  4.567193
H    -1.767514  1.190317  1.166787
H    -2.635009  1.813273  3.087828
C    -2.255280  0.017370  4.161665
C    -3.311122  0.372696  5.226845
C    -3.809183  -0.914087  5.893939
C    -2.818410  1.385093  6.265729
H    -1.421950  -0.495279  4.700100
H    -2.657400  -0.745501  3.480149
H    -4.160880  0.819214  4.678405
H    -4.192394  -1.636740  5.161756
H    -4.622110  -0.692082  6.595458
H    -3.008932  -1.401942  6.471765
H    -2.574916  2.368890  5.839495
H    -1.929512  1.015075  6.800709
H    -3.593690  1.561006  7.020946
N    -0.786470  3.399272  3.888714
C    -1.853338  4.214427  3.292306
H    -0.023168  3.901506  4.345691
H    -1.978527  3.987603  2.227042
H    -1.559600  5.263804  3.381209
H    -2.801485  4.076080  3.827087
Pb    1.054302  -0.542993  4.634807
