32
Energy: -606845.983902 eV PBE+vdW (tier 2 basis)
C    0.164321  -0.664826  0.004558
C    0.000063  -0.531556  1.480411
O    1.032229  -0.664317  2.220882
H    -0.761305  -0.494150  -0.554768
H    0.535740  -1.676434  -0.215349
H    0.935753  0.037245  -0.339355
N    -1.223045  -0.291116  1.965834
C    -1.690981  -0.249371  3.369940
C    -1.149937  1.006675  4.067591
O    0.027862  1.018217  4.579287
H    -1.954403  -0.226969  1.262606
H    -2.779790  -0.139667  3.292759
C    -1.429159  -1.527505  4.196483
C    -2.409733  -2.701085  3.957988
C    -2.461098  -3.187559  2.505902
C    -2.055301  -3.843434  4.916606
H    -1.474798  -1.252839  5.261346
H    -0.408226  -1.923578  4.006822
H    -3.410337  -2.323723  4.235803
H    -3.104702  -4.072563  2.432619
H    -1.466006  -3.483013  2.139714
H    -2.882207  -2.445794  1.812871
H    -2.795681  -4.648783  4.841264
H    -2.035456  -3.513571  5.964040
H    -1.075638  -4.281854  4.672601
N    -1.897180  2.086270  4.183097
C    -3.268880  2.312388  3.704189
H    -1.453241  2.856575  4.687326
H    -3.507836  3.366941  3.866397
H    -3.987989  1.705403  4.268101
H    -3.351382  2.107431  2.630879
Pb    1.743021  -0.396188  4.322015
