32
Energy: -606846.002061 eV PBE+vdW (tier 2 basis)
C    1.208096  -0.574226  -0.104829
C    0.582076  0.566011  0.621618
O    0.308659  1.637530  -0.031309
H    1.393317  -1.441957  0.536415
H    2.151773  -0.246347  -0.561451
H    0.543435  -0.868951  -0.930030
N    0.300700  0.432839  1.915860
C    -0.492256  1.341917  2.759563
C    0.388510  2.508820  3.253826
O    0.670658  3.464156  2.435659
H    0.511627  -0.473324  2.339235
H    -1.216759  1.839350  2.092550
C    -1.342295  0.556497  3.791839
C    -0.802544  -0.641794  4.625542
C    -0.413609  -1.886648  3.805474
C    0.283736  -0.318005  5.658227
H    -2.199964  0.175467  3.218319
H    -1.772018  1.303484  4.477084
H    -1.696944  -0.930523  5.199979
H    0.623391  -1.852236  3.421292
H    -1.104280  -2.082178  2.973806
H    -0.429368  -2.776264  4.447583
H    0.462966  -1.186259  6.305388
H    -0.014592  0.494580  6.342481
H    1.259674  -0.090587  5.197369
N    0.818343  2.552587  4.490775
C    1.640140  3.609656  5.083354
H    0.578630  1.760350  5.092809
H    1.668375  4.474083  4.417279
H    2.658708  3.235576  5.249134
H    1.204413  3.894068  6.047743
Pb    0.326398  3.837324  0.261413
