32
Energy: -606845.998322 eV PBE+vdW (tier 2 basis)
C    -1.304543  0.937929  0.054692
C    -0.911831  0.481781  1.419016
O    0.301505  0.139851  1.621088
H    -2.359347  1.220079  -0.025534
H    -1.092697  0.128270  -0.658667
H    -0.674011  1.788841  -0.237259
N    -1.849791  0.434352  2.372593
C    -1.763998  -0.095341  3.756145
C    -0.979415  0.899467  4.624550
O    0.301899  0.930328  4.594258
H    -2.777097  0.731669  2.078392
H    -2.802660  -0.099953  4.106044
C    -1.278697  -1.555493  3.844507
C    -1.704607  -2.332550  5.111485
C    -1.077463  -1.795973  6.402211
C    -3.231747  -2.455881  5.218857
H    -0.168782  -1.629223  3.773804
H    -1.652944  -2.073372  2.949908
H    -1.309578  -3.348068  4.949296
H    -1.487583  -0.818543  6.697925
H    0.016339  -1.699753  6.328307
H    -1.281109  -2.479042  7.235538
H    -3.683209  -2.841250  4.294993
H    -3.718836  -1.500951  5.470647
H    -3.490956  -3.154378  6.023883
N    -1.611776  1.756512  5.402548
C    -3.054183  1.889769  5.645688
H    -0.997383  2.375737  5.934621
H    -3.609622  1.982178  4.705760
H    -3.212091  2.805946  6.221281
H    -3.433285  1.042041  6.230755
Pb    1.776497  -0.123977  3.277666
