32
Energy: -606845.347798 eV PBE+vdW (tier 2 basis)
C    0.282332  0.314568  0.141837
C    0.030966  0.195574  1.598935
O    1.020942  0.132880  2.417136
H    0.804796  1.254796  -0.087876
H    -0.621870  0.220588  -0.465333
H    0.983134  -0.490097  -0.133269
N    -1.217043  0.149089  2.103028
C    -2.296915  1.070528  1.725889
C    -1.792934  2.492392  2.060555
O    -0.879842  2.682266  2.950881
H    -1.279571  -0.187515  3.066152
H    -2.472624  1.007246  0.642194
C    -3.585645  0.644221  2.466410
C    -4.848982  1.505424  2.229863
C    -6.093413  0.605239  2.223635
C    -4.997929  2.621467  3.273934
H    -3.377036  0.594629  3.549040
H    -3.769952  -0.387403  2.131624
H    -4.781463  1.957229  1.220748
H    -6.050033  -0.144860  1.423328
H    -7.001116  1.202310  2.074176
H    -6.200113  0.077485  3.181995
H    -4.105210  3.254646  3.378926
H    -5.207990  2.190897  4.263282
H    -5.839032  3.279560  3.023619
N    -2.321122  3.506157  1.410499
C    -2.048367  4.927411  1.633738
H    -3.069636  3.284283  0.753854
H    -1.903379  5.419130  0.665605
H    -1.153436  5.039462  2.248314
H    -2.904734  5.386875  2.145020
Pb    0.932813  1.782188  3.972484
