32
Energy: -606844.525433 eV PBE+vdW (tier 2 basis)
C    0.612024  1.040140  0.824215
C    -0.036771  -0.056288  1.587976
O    0.571801  -1.244349  1.590217
H    0.119451  2.002714  0.988095
H    0.579301  0.808050  -0.250795
H    1.669287  1.118432  1.110567
N    -1.145015  0.038567  2.247511
C    -2.048905  1.170831  2.465424
C    -2.968518  0.566009  3.575029
O    -2.796428  -0.635793  3.863887
H    -1.579199  -0.748797  2.851138
H    -1.477352  2.013814  2.884424
C    -2.813492  1.619116  1.182245
C    -2.772098  3.133987  0.898454
C    -3.434602  3.410021  -0.456962
C    -3.417474  3.975317  2.005960
H    -3.858184  1.280387  1.249766
H    -2.386507  1.082613  0.322866
H    -1.710337  3.434806  0.824736
H    -4.499843  3.138775  -0.441237
H    -2.956071  2.845988  -1.268871
H    -3.370038  4.475643  -0.709241
H    -3.390677  5.040963  1.746881
H    -2.893613  3.893301  2.972823
H    -4.478108  3.710430  2.140808
N    -3.876528  1.362806  4.130128
C    -4.821263  0.934093  5.159721
H    -3.935930  2.323116  3.797439
H    -5.844265  0.947744  4.762211
H    -4.762434  1.613490  6.018048
H    -4.566879  -0.080901  5.473874
Pb    1.501402  -3.105290  1.666819
