32
Energy: -606844.511962 eV PBE+vdW (tier 2 basis)
C    -2.517559  1.342278  0.345891
C    -1.889379  1.168551  1.678884
O    -1.183968  2.198490  2.157917
H    -3.179848  2.219475  0.365210
H    -3.093324  0.464044  0.044102
H    -1.740564  1.536645  -0.407309
N    -1.961335  0.116230  2.426243
C    -2.639718  -1.173026  2.260398
C    -2.558844  -1.691459  3.736323
O    -1.861026  -1.026024  4.531171
H    -1.570351  0.054798  3.438596
H    -3.689099  -1.005061  1.974924
C    -1.924755  -2.109106  1.232798
C    -2.840205  -2.937908  0.300788
C    -3.747577  -3.939350  1.023756
C    -3.642460  -2.072334  -0.675856
H    -1.249013  -2.777442  1.785089
H    -1.277969  -1.481309  0.602941
H    -2.127997  -3.529345  -0.298322
H    -4.236562  -4.602892  0.299568
H    -4.572737  -3.440412  1.562362
H    -3.186778  -4.586098  1.713752
H    -4.201335  -2.702697  -1.378807
H    -2.991114  -1.423108  -1.277766
H    -4.394865  -1.448374  -0.165232
N    -3.218686  -2.798927  4.052977
C    -3.202442  -3.409294  5.381239
H    -3.726922  -3.279288  3.313253
H    -2.645433  -4.354883  5.356327
H    -4.230636  -3.608521  5.704155
H    -2.720704  -2.723511  6.082081
Pb    -0.130295  3.798400  2.966236
