32
Energy: -606845.982783 eV PBE+vdW (tier 2 basis)
C    -1.905057  0.352478  0.563776
C    -1.212338  0.123978  1.863885
O    0.003959  -0.267776  1.842531
H    -2.915352  0.759978  0.673413
H    -1.963540  -0.608189  0.030408
H    -1.301666  1.025248  -0.059476
N    -1.899203  0.318689  2.993939
C    -1.537392  0.011666  4.396383
C    -0.491630  1.004240  4.913994
O    0.747551  0.887297  4.594963
H    -2.860427  0.620698  2.856692
H    -2.462388  0.188772  4.957158
C    -1.128201  -1.448752  4.683384
C    -2.273124  -2.494333  4.665521
C    -3.337124  -2.188737  5.727722
C    -2.892828  -2.724101  3.281962
H    -0.662625  -1.458980  5.681268
H    -0.353199  -1.796253  3.969906
H    -1.775553  -3.431710  4.961878
H    -4.036514  -3.030120  5.807317
H    -3.947565  -1.307741  5.473483
H    -2.899613  -2.035874  6.723919
H    -3.529678  -3.616696  3.302656
H    -2.132518  -2.890361  2.504891
H    -3.538817  -1.891784  2.967115
N    -0.839151  1.978196  5.731392
C    -2.173719  2.310986  6.252647
H    -0.063924  2.567268  6.042130
H    -2.071368  3.197466  6.884278
H    -2.571659  1.494985  6.867915
H    -2.866758  2.551222  5.437853
Pb    1.806558  -0.439992  3.141599
