32
Energy: -606846.033099 eV PBE+vdW (tier 2 basis)
C    -1.401429  0.212367  -0.360462
C    -0.926031  -0.050220  1.028490
O    0.330336  -0.044400  1.251210
H    -2.491738  0.201817  -0.459300
H    -0.971281  -0.548645  -1.027476
H    -1.012465  1.183269  -0.696694
N    -1.837620  -0.289602  1.980209
C    -1.650675  -0.695259  3.392738
C    -1.105883  0.476906  4.224167
O    0.144124  0.765691  4.209855
H    -2.803094  -0.267288  1.660827
H    -2.664391  -0.911063  3.749091
C    -0.839020  -1.982638  3.594624
C    -0.836561  -2.509271  5.043387
C    -2.209799  -3.074256  5.437990
C    0.264874  -3.562195  5.205932
H    0.220005  -1.856296  3.270854
H    -1.231904  -2.744641  2.904253
H    -0.599700  -1.667929  5.720381
H    -2.481988  -3.932066  4.807387
H    -3.021103  -2.334760  5.368710
H    -2.188986  -3.423282  6.477421
H    1.262186  -3.150135  4.982269
H    0.099023  -4.422655  4.542448
H    0.296242  -3.939104  6.234923
N    -1.909446  1.197393  4.980981
C    -3.356375  1.055357  5.195186
H    -1.440586  1.937968  5.506912
H    -3.714624  1.972714  5.670714
H    -3.571654  0.210224  5.861012
H    -3.888670  0.938119  4.245385
Pb    1.818233  0.022882  2.918576
