32
Energy: -606844.724284 eV PBE+vdW (tier 2 basis)
C    -0.710274  -1.320357  -1.548169
C    -0.912436  -0.176925  -0.621010
O    -0.098744  0.854541  -0.713226
H    -0.796938  -0.972279  -2.587284
H    -1.437383  -2.119992  -1.375068
H    0.305775  -1.720181  -1.421715
N    -1.861829  -0.184561  0.269869
C    -2.215327  0.823502  1.264017
C    -3.148283  -0.003293  2.212988
O    -3.551137  -1.094048  1.792476
H    -2.504604  -1.010031  0.429898
H    -1.306948  1.138552  1.802104
C    -2.961422  2.032002  0.628498
C    -2.655474  3.407981  1.245670
C    -1.237633  3.900035  0.899532
C    -3.688465  4.449571  0.799413
H    -4.041563  1.842644  0.690948
H    -2.738481  2.068017  -0.450004
H    -2.697255  3.333176  2.346618
H    -0.996792  4.883736  1.324198
H    -1.174319  4.018921  -0.209265
H    -0.472806  3.195702  1.305499
H    -3.474892  5.438305  1.223933
H    -4.692947  4.157690  1.131132
H    -3.714771  4.546755  -0.295666
N    -3.474908  0.541919  3.389250
C    -4.379675  -0.095339  4.349803
H    -3.042619  1.418639  3.661037
H    -5.182912  0.599559  4.620361
H    -3.829946  -0.384880  5.253612
H    -4.807940  -0.986696  3.884759
Pb    0.950768  2.682703  -0.718652
