32
Energy: -606844.694337 eV PBE+vdW (tier 2 basis)
C    -0.344599  0.727275  -0.214236
C    -0.126401  0.280629  1.187091
O    1.110835  0.137832  1.616952
H    0.123485  1.710244  -0.366320
H    -1.409019  0.796998  -0.459380
H    0.140492  0.022718  -0.904362
N    -1.126761  0.027027  1.977893
C    -1.161071  -0.437628  3.363463
C    -2.652023  -0.922101  3.455963
O    -3.404875  -0.616300  2.520274
H    -2.142603  0.033569  1.653115
H    -0.483078  -1.297269  3.479574
C    -0.838700  0.702400  4.380651
C    0.168868  0.390462  5.506095
C    -0.221734  -0.789196  6.404410
C    1.621639  0.221423  5.010039
H    -1.778899  1.022353  4.850076
H    -0.488823  1.579349  3.816651
H    0.187132  1.294787  6.135790
H    0.476219  -0.898478  7.243681
H    -0.220841  -1.750132  5.865308
H    -1.216571  -0.624038  6.839549
H    2.344602  0.141206  5.832183
H    1.898997  1.124560  4.418395
H    1.699059  -0.724786  4.424622
N    -3.032537  -1.606169  4.534290
C    -4.412994  -2.067777  4.719717
H    -2.348022  -1.831389  5.247074
H    -4.482404  -2.570653  5.687635
H    -4.692180  -2.767594  3.923225
H    -5.103481  -1.216837  4.698503
Pb    3.048311  0.049162  2.427239
