32
Energy: -606844.333517 eV PBE+vdW (tier 2 basis)
C    0.059550  -0.191180  -0.205415
C    -0.172987  -0.160731  1.261605
O    0.828349  -0.549037  2.050276
H    0.962293  0.385902  -0.448366
H    -0.786378  0.212548  -0.768387
H    0.234751  -1.227846  -0.527916
N    -1.268331  0.213296  1.842638
C    -2.559635  0.664180  1.298845
C    -3.123951  1.400985  2.552677
O    -2.675195  1.028304  3.654488
H    -1.400349  0.253584  2.900259
H    -2.399539  1.344487  0.452765
C    -3.370598  -0.590199  0.862642
C    -4.791840  -0.362918  0.296611
C    -5.099647  -1.471958  -0.722681
C    -5.862390  -0.334591  1.393780
H    -3.418843  -1.280207  1.719574
H    -2.757896  -1.085571  0.093609
H    -4.803997  0.593301  -0.251732
H    -5.052156  -2.465596  -0.254386
H    -6.112389  -1.348286  -1.126587
H    -4.399488  -1.456218  -1.568897
H    -6.843486  -0.087392  0.969037
H    -5.657037  0.389878  2.191864
H    -5.951853  -1.322412  1.867752
N    -4.012704  2.391166  2.435606
C    -4.601375  3.002119  1.249195
H    -4.308485  2.767137  3.336846
H    -4.042545  2.732867  0.349241
H    -5.645898  2.687414  1.125279
H    -4.572382  4.092296  1.359430
Pb    2.413524  -1.131947  3.273941
