32
Energy: -606845.476452 eV PBE+vdW (tier 2 basis)
C    0.016133  0.089079  -0.028600
C    0.095423  0.304760  1.437409
O    1.238225  0.526188  1.990021
H    0.290125  1.005031  -0.572981
H    -0.960898  -0.271442  -0.361672
H    0.783801  -0.655768  -0.290537
N    -0.994683  0.268957  2.221758
C    -2.251909  0.951398  1.911772
C    -1.978099  2.467540  2.052514
O    -0.865594  2.917543  2.521387
H    -0.802528  0.176979  3.221566
H    -2.516595  0.745372  0.864071
C    -3.382080  0.456659  2.833368
C    -3.708611  -1.042553  2.678771
C    -4.775859  -1.430026  3.711396
C    -4.150508  -1.396438  1.255075
H    -4.288003  1.044746  2.617516
H    -3.116476  0.686398  3.879565
H    -2.793757  -1.616820  2.910754
H    -4.979977  -2.506322  3.664142
H    -5.722951  -0.905389  3.520802
H    -4.459040  -1.197459  4.736954
H    -4.415495  -2.458732  1.191755
H    -3.366423  -1.231173  0.499590
H    -5.039958  -0.822094  0.956320
N    -2.918169  3.313161  1.688962
C    -2.818620  4.776073  1.774503
H    -3.789646  2.923744  1.333943
H    -3.763523  5.203097  1.429826
H    -2.004047  5.139658  1.137071
H    -2.637669  5.082278  2.811264
Pb    1.287445  2.490657  3.105325
