32
Energy: -606845.322597 eV PBE+vdW (tier 2 basis)
C    -0.221278  -0.008353  -0.747691
C    -0.206709  -0.237940  0.718042
O    0.902063  -0.486223  1.318078
H    0.387611  0.868477  -1.011363
H    -1.228121  0.082023  -1.163832
H    0.280699  -0.870820  -1.215597
N    -1.334801  -0.193681  1.452640
C    -2.337766  0.878435  1.364580
C    -1.580574  2.192977  1.630749
O    -0.522717  2.180069  2.379436
H    -1.255250  -0.607049  2.384239
H    -2.790127  0.884413  0.364590
C    -3.421200  0.603745  2.438893
C    -4.733149  1.402898  2.342056
C    -5.540182  1.037965  1.090525
C    -5.556982  1.151577  3.614226
H    -2.965625  0.757972  3.431839
H    -3.658234  -0.469889  2.356345
H    -4.493693  2.479881  2.323102
H    -6.445240  1.653489  1.021796
H    -5.861306  -0.012652  1.125730
H    -4.990722  1.176647  0.146186
H    -6.498595  1.712254  3.577694
H    -5.018626  1.464032  4.518974
H    -5.811800  0.087374  3.718134
N    -1.974165  3.351356  1.145044
C    -3.083196  3.678299  0.244015
H    -1.402478  4.144578  1.445222
H    -2.687855  4.261139  -0.596230
H    -3.826061  4.282946  0.778105
H    -3.566038  2.775461  -0.133248
Pb    1.313512  1.007174  2.980921
