32
Energy: -606845.300292 eV PBE+vdW (tier 2 basis)
C    -0.957959  -0.747693  -0.889495
C    0.044781  -0.381699  0.144539
O    1.012265  -1.194061  0.397638
H    -1.274463  0.113803  -1.484919
H    -1.853610  -1.177836  -0.409921
H    -0.530679  -1.522742  -1.534893
N    -0.012609  0.762252  0.852409
C    -1.222326  1.320699  1.485094
C    -1.697967  0.271918  2.516568
O    -0.950705  -0.720018  2.867730
H    0.853756  0.973529  1.348549
H    -0.852923  2.178376  2.071079
C    -2.295771  1.872804  0.518306
C    -3.176714  3.028365  1.057604
C    -2.358388  4.197227  1.613774
C    -4.112655  3.483236  -0.071057
H    -2.939284  1.061793  0.149175
H    -1.746924  2.268088  -0.349495
H    -3.837748  2.659371  1.869522
H    -1.775569  3.942433  2.512692
H    -3.022732  5.019012  1.907086
H    -1.666357  4.592709  0.856325
H    -3.538684  3.917917  -0.901680
H    -4.805504  4.252433  0.289738
H    -4.712371  2.653545  -0.468497
N    -2.878405  0.424286  3.071120
C    -3.449550  -0.443892  4.106535
H    -3.432747  1.222705  2.752627
H    -2.728523  -0.585839  4.918790
H    -3.719240  -1.419020  3.682327
H    -4.348823  0.038233  4.498084
Pb    0.927094  -1.940195  2.528225
