32
Energy: -606845.395075 eV PBE+vdW (tier 2 basis)
C    -1.030808  1.350811  -0.518704
C    -0.414388  1.013474  0.788845
O    0.281589  1.896470  1.416208
H    -1.841079  2.084139  -0.387283
H    -1.401079  0.476111  -1.060579
H    -0.263997  1.857176  -1.124382
N    -0.563892  -0.196619  1.351839
C    -1.836531  -0.914860  1.438476
C    -2.761249  -0.057674  2.323974
O    -2.276747  0.870490  3.083256
H    0.093188  -0.413315  2.103594
H    -2.277064  -0.996033  0.433722
C    -1.629521  -2.330335  2.025433
C    -1.088290  -3.389686  1.036805
C    -2.067432  -3.657762  -0.111038
C    0.327299  -3.099525  0.523728
H    -2.593205  -2.680292  2.420490
H    -0.965091  -2.244352  2.902525
H    -1.035143  -4.307833  1.644301
H    -1.713436  -4.493340  -0.727157
H    -2.162772  -2.798047  -0.795105
H    -3.068639  -3.928049  0.252677
H    0.714171  -3.969605  -0.020738
H    1.033081  -2.898273  1.342959
H    0.355530  -2.253399  -0.178356
N    -4.062646  -0.260652  2.342164
C    -4.858857  -1.236925  1.591675
H    -4.578116  0.333420  2.994836
H    -5.760232  -0.736709  1.221023
H    -5.156685  -2.062815  2.250681
H    -4.298479  -1.635880  0.742796
Pb    -0.566317  2.303839  3.477864
