32
Energy: -606845.781678 eV PBE+vdW (tier 2 basis)
C    -1.109838  0.891348  -0.592356
C    -1.212473  0.242265  0.751284
O    -0.720851  -0.922743  0.883467
H    -1.565791  1.885663  -0.638663
H    -1.588557  0.238830  -1.335666
H    -0.050003  0.966112  -0.872063
N    -1.820205  0.933196  1.725220
C    -2.211305  0.680950  3.134939
C    -1.057994  0.284035  4.055779
O    -0.225557  -0.649786  3.795973
H    -2.144333  1.842622  1.405360
H    -2.483042  1.692725  3.460286
C    -3.549447  -0.101823  3.357002
C    -3.742762  -1.634295  3.294867
C    -3.574922  -2.283494  1.923447
C    -3.041832  -2.435458  4.393443
H    -4.257348  0.360420  2.652402
H    -3.891074  0.219132  4.353459
H    -4.820492  -1.725811  3.520259
H    -3.997445  -3.295502  1.912058
H    -2.510165  -2.395353  1.622336
H    -4.041765  -1.709969  1.111771
H    -3.438658  -3.456387  4.449566
H    -3.140341  -1.981138  5.388316
H    -1.947714  -2.544033  4.226845
N    -0.919616  0.932115  5.201928
C    -1.682165  2.071989  5.728916
H    -0.153418  0.586635  5.782008
H    -2.733792  1.808287  5.893089
H    -1.605817  2.940916  5.063364
H    -1.245527  2.346134  6.693139
Pb    -0.143569  -2.423848  2.421827
