32
Energy: -606844.563677 eV PBE+vdW (tier 2 basis)
C    0.031472  -0.343152  0.271558
C    -0.243187  -0.196628  1.723855
O    0.780413  -0.362474  2.561930
H    -0.792212  0.030974  -0.343396
H    0.187632  -1.406507  0.034209
H    0.952440  0.192740  0.009547
N    -1.393912  0.070233  2.250943
C    -2.709343  0.306633  1.650084
C    -3.484928  0.863020  2.886140
O    -2.912438  0.811176  3.990749
H    -1.554905  0.231957  3.300281
H    -2.618084  1.095122  0.886767
C    -3.373440  -0.942699  1.018572
C    -3.820734  -2.072742  1.962894
C    -4.636431  -3.092549  1.152882
C    -2.660180  -2.763305  2.691336
H    -2.698990  -1.345104  0.245884
H    -4.247736  -0.570937  0.462164
H    -4.489721  -1.639239  2.725630
H    -5.022730  -3.883250  1.807515
H    -4.020833  -3.573687  0.378973
H    -5.495540  -2.623661  0.655606
H    -3.025180  -3.637938  3.244174
H    -2.174203  -2.109760  3.430418
H    -1.900609  -3.124105  1.979592
N    -4.706489  1.351529  2.677350
C    -5.563642  1.887734  3.734058
H    -5.077884  1.339271  1.731641
H    -5.889451  2.899754  3.466875
H    -4.994851  1.917476  4.666436
H    -6.446595  1.249192  3.863975
Pb    2.357391  -0.635981  3.893268
