32
Energy: -606845.934714 eV PBE+vdW (tier 2 basis)
C    0.139105  -0.095389  -0.064494
C    -0.021270  0.027569  1.410260
O    0.935613  0.526979  2.101090
H    0.292293  0.909755  -0.484432
H    -0.722741  -0.560817  -0.553610
H    1.045856  -0.673339  -0.288316
N    -1.163687  -0.360007  1.981879
C    -1.523804  -0.141978  3.388735
C    -0.753585  -1.128034  4.290853
O    0.308306  -0.699210  4.886953
H    -1.902656  -0.688402  1.362482
H    -1.120856  0.843573  3.673485
C    -3.047690  -0.076200  3.598059
C    -3.679442  1.310292  3.316373
C    -3.156109  2.394760  4.264451
C    -3.587755  1.743603  1.847797
H    -3.253187  -0.342200  4.645695
H    -3.544695  -0.841169  2.982273
H    -4.746266  1.163088  3.548199
H    -3.733600  3.319036  4.140969
H    -2.107032  2.667158  4.057643
H    -3.235553  2.097521  5.319040
H    -4.199262  2.638323  1.678744
H    -3.962535  0.969922  1.161318
H    -2.561609  2.011226  1.550764
N    -1.111392  -2.378189  4.498315
C    -2.249535  -3.141967  3.974493
H    -0.496235  -2.880314  5.142249
H    -3.140213  -2.988365  4.595898
H    -1.978438  -4.201654  4.001752
H    -2.464583  -2.867319  2.938470
Pb    1.846476  0.738012  4.132651
