32
Energy: -606845.448554 eV PBE+vdW (tier 2 basis)
C    -0.216114  -0.751245  -0.026837
C    -0.194989  -0.125150  1.318252
O    0.927741  0.212809  1.848748
H    0.129364  -0.040180  -0.792060
H    -1.192731  -1.158598  -0.301610
H    0.525465  -1.565452  -0.019363
N    -1.323238  0.101802  2.015137
C    -2.531390  0.708530  1.449889
C    -2.152499  2.154733  1.057027
O    -1.073920  2.713570  1.490925
H    -1.181927  0.298642  3.008298
H    -2.817149  0.163726  0.538925
C    -3.679165  0.618868  2.482767
C    -5.076510  1.085717  2.029995
C    -5.547669  0.395978  0.742697
C    -6.070180  0.839300  3.175796
H    -3.385427  1.176404  3.388098
H    -3.735414  -0.444347  2.766128
H    -5.048114  2.177764  1.867357
H    -6.564546  0.715687  0.485513
H    -5.569361  -0.697093  0.860537
H    -4.923508  0.606839  -0.144695
H    -7.062161  1.224776  2.912270
H    -5.755670  1.337605  4.102260
H    -6.174955  -0.234513  3.384856
N    -2.965175  2.826845  0.272668
C    -2.769461  4.215813  -0.160041
H    -3.812863  2.349450  -0.034361
H    -3.664591  4.534320  -0.699859
H    -1.902065  4.288643  -0.827373
H    -2.617270  4.864471  0.709740
Pb    0.998652  2.417484  2.360554
