32
Energy: -606845.249925 eV PBE+vdW (tier 2 basis)
C    0.136449  -0.023233  1.569627
C    -0.913966  0.575571  2.431721
O    -0.599358  1.507347  3.264645
H    -0.195572  -0.074659  0.525887
H    0.362463  -1.053028  1.892845
H    1.053614  0.567425  1.651862
N    -2.198456  0.176331  2.395046
C    -2.655527  -1.227760  2.369508
C    -2.013429  -1.903378  3.612182
O    -1.583565  -1.200126  4.603401
H    -2.840055  0.821083  2.856001
H    -3.731326  -1.162305  2.604188
C    -2.551738  -2.000560  1.042197
C    -3.372176  -1.418973  -0.135979
C    -2.715845  -0.207740  -0.809487
C    -3.619915  -2.534063  -1.161831
H    -2.969545  -3.002113  1.237709
H    -1.503634  -2.157140  0.748418
H    -4.352301  -1.106665  0.266818
H    -3.340444  0.141383  -1.640960
H    -1.739951  -0.475927  -1.242188
H    -2.584211  0.650237  -0.137457
H    -4.216979  -2.157343  -2.000872
H    -4.164598  -3.381251  -0.723590
H    -2.674523  -2.912672  -1.576993
N    -1.949613  -3.214323  3.675808
C    -1.449281  -3.981524  4.823160
H    -2.280375  -3.735117  2.865725
H    -0.362086  -3.866646  4.914121
H    -1.686730  -5.035538  4.658770
H    -1.931965  -3.637200  5.744114
Pb    -0.956925  0.834876  5.389745
