32
Energy: -606844.695374 eV PBE+vdW (tier 2 basis)
C    0.581680  0.725270  1.334407
C    -0.438283  -0.125091  2.003390
O    -0.175870  -0.595439  3.205765
H    0.786640  1.611994  1.950883
H    0.255743  1.048546  0.340844
H    1.522973  0.165315  1.241916
N    -1.564699  -0.411658  1.420713
C    -2.692062  -1.231711  1.860291
C    -3.420903  -1.462437  0.487425
O    -3.042177  -0.773487  -0.470274
H    -1.786578  -0.137007  0.414749
H    -2.318724  -2.191377  2.249717
C    -3.595339  -0.491190  2.896974
C    -4.009198  -1.264651  4.165733
C    -4.772003  -2.567777  3.899250
C    -2.842954  -1.523280  5.144896
H    -4.512699  -0.167536  2.386578
H    -3.089693  0.439997  3.191439
H    -4.689416  -0.587251  4.707112
H    -5.128703  -3.018400  4.833692
H    -4.150037  -3.327793  3.399553
H    -5.660042  -2.371415  3.283509
H    -3.178159  -1.943273  6.102092
H    -2.349290  -0.549572  5.369642
H    -2.148584  -2.270746  4.694325
N    -4.406599  -2.359980  0.447773
C    -5.193051  -2.644767  -0.755020
H    -4.627502  -2.878624  1.291516
H    -5.099801  -3.704538  -1.019360
H    -4.812485  -2.029746  -1.574058
H    -6.248939  -2.406094  -0.579687
Pb    0.096580  -1.214442  5.196056
