32
Energy: -606846.07282 eV PBE+vdW (tier 2 basis)
C    2.236396  -0.363193  0.904166
C    1.295525  0.528489  1.637908
O    1.175363  1.749198  1.255638
H    1.910131  -0.424532  -0.144770
H    2.286340  -1.373356  1.323323
H    3.239418  0.083737  0.897139
N    0.583713  0.033238  2.647814
C    -0.526724  0.692253  3.362197
C    0.039660  1.632564  4.440182
O    0.511940  2.781075  4.100147
H    0.739768  -0.945868  2.890001
H    -1.005837  1.367003  2.633556
C    -1.614717  -0.327146  3.769126
C    -1.368845  -1.456589  4.803382
C    -2.607431  -2.366672  4.803064
C    -0.090438  -2.279830  4.587461
H    -1.928513  -0.800189  2.824595
H    -2.484103  0.262449  4.096179
H    -1.328621  -1.027417  5.824949
H    -2.528446  -3.125725  5.590373
H    -2.706627  -2.890635  3.841777
H    -3.530919  -1.799640  4.976858
H    0.838861  -1.710366  4.754457
H    -0.069863  -2.734405  3.582644
H    -0.053921  -3.117504  5.294890
N    0.039669  1.278768  5.703264
C    0.555625  2.096465  6.806643
H    -0.371082  0.369773  5.924565
H    0.171975  3.119162  6.726250
H    1.652385  2.118165  6.782524
H    0.222916  1.651438  7.747663
Pb    0.928401  3.772292  2.136033
