32
Energy: -606846.133444 eV PBE+vdW (tier 2 basis)
C    0.034795  0.988886  0.154113
C    -0.081717  0.452351  1.540351
O    0.983515  0.077532  2.138359
H    -0.923404  1.295430  -0.277750
H    0.486562  0.214801  -0.483073
H    0.727330  1.841626  0.152760
N    -1.294793  0.374059  2.096492
C    -1.716272  -0.247910  3.373506
C    -1.322441  0.633635  4.567381
O    -0.107416  0.701608  4.968146
H    -2.056014  0.704106  1.508223
H    -2.812688  -0.255382  3.316971
C    -1.287881  -1.714413  3.563469
C    -1.640373  -2.673873  2.410071
C    -1.098090  -4.071108  2.732926
C    -3.152241  -2.707036  2.142934
H    -1.751734  -2.063195  4.500384
H    -0.192019  -1.807558  3.741669
H    -1.132316  -2.316277  1.498241
H    -0.011160  -4.062139  2.902054
H    -1.290056  -4.758900  1.900990
H    -1.578884  -4.491918  3.627161
H    -3.712398  -3.008665  3.039681
H    -3.376171  -3.439662  1.358120
H    -3.554093  -1.744389  1.793121
N    -2.271299  1.303770  5.190350
C    -2.088512  2.169436  6.359444
H    -3.221048  1.214116  4.834031
H    -2.291589  3.210376  6.078409
H    -1.063963  2.077533  6.724903
H    -2.793949  1.864704  7.141024
Pb    1.760317  -0.276545  4.198541
