32
Energy: -606844.809127 eV PBE+vdW (tier 2 basis)
C    0.485169  0.869498  0.521315
C    -0.043084  -0.005942  1.602323
O    0.811127  -0.496953  2.472171
H    1.010304  1.731630  0.954794
H    -0.304739  1.222915  -0.148633
H    1.226221  0.302774  -0.061575
N    -1.312718  -0.301353  1.656423
C    -2.046274  -1.268380  2.475858
C    -3.276748  -1.570463  1.536328
O    -3.496589  -0.764538  0.626434
H    -1.984362  0.009005  0.901180
H    -1.437637  -2.173878  2.613909
C    -2.559960  -0.684960  3.808837
C    -1.575142  -0.499109  4.983501
C    -2.255984  0.196605  6.167991
C    -0.916673  -1.815348  5.426041
H    -3.358986  -1.347622  4.179832
H    -3.049242  0.275933  3.594828
H    -0.799775  0.254757  4.621959
H    -1.561127  0.370048  6.999792
H    -3.071793  -0.434071  6.549817
H    -2.685817  1.161092  5.873338
H    -0.279823  -1.704190  6.323227
H    -0.374686  -2.367288  4.628381
H    -1.687858  -2.535583  5.745212
N    -4.007232  -2.654536  1.812126
C    -5.195228  -3.041378  1.045078
H    -3.699789  -3.282294  2.548160
H    -6.044100  -3.183868  1.723423
H    -5.005560  -3.972925  0.498373
H    -5.424212  -2.243545  0.334287
Pb    1.443838  -0.455683  4.506598
