32
Energy: -606844.422177 eV PBE+vdW (tier 2 basis)
C    -0.719737  1.964393  0.081176
C    -0.312932  1.232437  1.307883
O    0.852466  1.570733  1.862304
H    -1.772548  1.800099  -0.166501
H    -0.105742  1.625665  -0.767226
H    -0.540599  3.039118  0.210419
N    -0.981304  0.287586  1.883258
C    -2.264197  -0.343443  1.555164
C    -2.548349  -1.086576  2.897437
O    -1.610460  -1.137650  3.720644
H    -0.700442  -0.184198  2.811369
H    -3.023612  0.439386  1.405447
C    -2.219906  -1.228802  0.278380
C    -1.304975  -2.470885  0.221233
C    0.189465  -2.162486  0.382385
C    -1.740877  -3.622180  1.136414
H    -1.966753  -0.561154  -0.559407
H    -3.255722  -1.542878  0.088679
H    -1.440614  -2.822527  -0.816185
H    0.447139  -1.922175  1.426134
H    0.788644  -3.040090  0.108944
H    0.513101  -1.334297  -0.266696
H    -2.809796  -3.848057  1.025064
H    -1.192100  -4.536260  0.877096
H    -1.534613  -3.421104  2.195942
N    -3.750377  -1.610242  3.135798
C    -4.941808  -1.618635  2.292301
H    -3.813961  -2.092798  4.031460
H    -5.824830  -1.591635  2.939132
H    -4.989002  -2.526505  1.675542
H    -4.975945  -0.736138  1.645345
Pb    2.678077  1.992556  2.766524
