32
Energy: -606845.812078 eV PBE+vdW (tier 2 basis)
C    0.034179  0.219096  0.361504
C    0.027619  0.600009  1.805770
O    0.992291  1.298701  2.255464
H    -0.861653  -0.326411  0.047412
H    0.920380  -0.401216  0.164054
H    0.140749  1.126043  -0.248659
N    -0.998384  0.188257  2.558776
C    -1.286128  0.358112  3.996788
C    -1.005368  1.784695  4.493318
O    0.124962  2.134968  4.985543
H    -1.681093  -0.381601  2.064452
H    -2.378591  0.267406  4.036003
C    -0.777573  -0.749987  4.978975
C    0.520232  -1.571501  4.802605
C    0.517849  -2.520106  3.596022
C    1.848338  -0.811215  4.907091
H    -1.587208  -1.491982  5.014255
H    -0.773077  -0.285175  5.977105
H    0.503838  -2.211892  5.701221
H    1.335476  -3.247151  3.678867
H    0.651434  -1.997994  2.639042
H    -0.416756  -3.093156  3.542936
H    2.691222  -1.485313  5.112570
H    1.837866  -0.073325  5.729707
H    2.105993  -0.370392  3.916165
N    -1.993586  2.662323  4.503012
C    -3.386569  2.497981  4.064849
H    -1.747640  3.565875  4.911488
H    -3.861252  3.482920  4.087594
H    -3.937387  1.835761  4.745511
H    -3.435455  2.119201  3.038146
Pb    2.150144  2.034323  4.037680
