32
Energy: -606845.294472 eV PBE+vdW (tier 2 basis)
C    0.079024  0.013802  0.389417
C    -0.332550  0.143403  1.812799
O    0.499622  0.625850  2.670013
H    -0.674626  0.435252  -0.286078
H    0.200949  -1.047223  0.116518
H    1.038354  0.518639  0.243898
N    -1.540159  -0.244982  2.262753
C    -2.216577  -1.499399  1.889016
C    -1.272465  -2.645588  2.323683
O    -0.260741  -2.428494  3.097008
H    -1.756200  0.095969  3.199902
H    -3.084669  -1.551873  2.567422
C    -2.772162  -1.555150  0.436996
C    -4.238794  -2.035221  0.303337
C    -4.455816  -3.511320  0.655949
C    -5.213874  -1.126303  1.058559
H    -2.109840  -2.155665  -0.203928
H    -2.735489  -0.529353  0.049011
H    -4.451951  -1.928020  -0.772306
H    -5.480094  -3.818806  0.410451
H    -4.343174  -3.712702  1.735485
H    -3.800248  -4.182609  0.073909
H    -6.250365  -1.406282  0.833974
H    -5.090800  -0.071346  0.779795
H    -5.109537  -1.206605  2.153465
N    -1.529486  -3.868822  1.924552
C    -0.763783  -5.060141  2.307401
H    -2.360025  -4.004540  1.341525
H    0.263357  -4.990316  1.930322
H    -1.250342  -5.933450  1.866118
H    -0.744894  -5.166395  3.398298
Pb    1.072032  -0.953465  4.179268
