32
Energy: -606844.598031 eV PBE+vdW (tier 2 basis)
C    -0.800900  0.960321  -0.279633
C    -1.097039  0.332809  1.034744
O    -0.348375  0.653079  2.062909
H    -0.800268  2.054806  -0.189320
H    -1.505575  0.651424  -1.058053
H    0.216356  0.667531  -0.582007
N    -2.065506  -0.537895  1.157437
C    -2.418053  -1.404901  2.283737
C    -3.580073  -2.267632  1.664056
O    -4.033614  -1.895879  0.576250
H    -2.716852  -0.769255  0.366507
H    -1.562345  -2.065159  2.492450
C    -2.807472  -0.688687  3.599754
C    -3.532869  0.669641  3.557745
C    -4.831701  0.668003  2.739542
C    -3.784076  1.181198  4.985256
H    -1.876870  -0.616525  4.227304
H    -3.415166  -1.372381  4.211755
H    -2.880313  1.425160  3.007584
H    -5.313812  1.651436  2.781206
H    -5.528582  -0.063211  3.176464
H    -4.681103  0.403826  1.687970
H    -4.180935  2.203287  4.984054
H    -2.889050  1.162472  5.641572
H    -4.516363  0.541009  5.496127
N    -4.014239  -3.349598  2.321659
C    -3.477619  -3.997466  3.516526
H    -4.774365  -3.830535  1.841172
H    -3.512308  -5.082971  3.373417
H    -4.066255  -3.751079  4.411016
H    -2.429288  -3.725446  3.680889
Pb    -0.700842  1.557507  3.984416
