32
Energy: -606845.264528 eV PBE+vdW (tier 2 basis)
C    0.427939  0.013818  1.544047
C    -0.611739  0.647494  2.394393
O    -0.282171  1.592920  3.205881
H    0.106049  -0.016346  0.495881
H    0.608756  -1.027184  1.858689
H    1.365593  0.568694  1.639750
N    -1.901502  0.264829  2.369069
C    -2.374632  -1.132846  2.374982
C    -1.719088  -1.801547  3.608903
O    -1.271413  -1.093300  4.589208
H    -2.536582  0.929561  2.810572
H    -3.444234  -1.049496  2.630642
C    -2.311206  -1.919490  1.052205
C    -3.115577  -1.314666  -0.129200
C    -4.546160  -0.936190  0.268886
C    -2.396399  -0.170403  -0.852856
H    -2.765268  -2.902800  1.259519
H    -1.271036  -2.111542  0.754635
H    -3.186728  -2.147030  -0.847653
H    -5.137110  -0.695259  -0.623018
H    -4.581488  -0.038434  0.907915
H    -5.068764  -1.754183  0.785938
H    -2.955451  0.110155  -1.754302
H    -1.391897  -0.465489  -1.188029
H    -2.317962  0.738641  -0.239905
N    -1.659651  -3.112630  3.681842
C    -1.148207  -3.872246  4.829507
H    -2.006336  -3.638548  2.882029
H    -0.066853  -3.722247  4.934820
H    -1.348926  -4.931990  4.654056
H    -1.652945  -3.552057  5.747643
Pb    -0.636377  0.951509  5.341876
