32
Energy: -606845.541324 eV PBE+vdW (tier 2 basis)
C    0.326534  0.046873  0.171183
C    0.080584  0.311991  1.614472
O    0.989347  0.887530  2.313110
H    0.498804  1.004534  -0.341241
H    -0.503639  -0.476543  -0.314159
H    1.247921  -0.540779  0.059400
N    -1.084171  -0.039914  2.168359
C    -1.414805  0.297461  3.551413
C    -0.495535  -0.462644  4.534750
O    0.249494  0.275428  5.297025
H    -1.807939  -0.453599  1.581156
H    -1.061409  1.333285  3.689203
C    -2.931729  0.447423  3.849024
C    -3.996219  -0.660864  3.691094
C    -4.044931  -1.309988  2.299880
C    -4.040730  -1.667882  4.845091
H    -3.226508  1.290804  3.203893
H    -2.984184  0.837456  4.877181
H    -4.929346  -0.078512  3.773912
H    -4.958269  -1.907798  2.190783
H    -3.216958  -2.011067  2.104131
H    -4.070849  -0.558169  1.495137
H    -3.166727  -2.327057  4.890247
H    -4.919006  -2.317927  4.746036
H    -4.124279  -1.156984  5.813343
N    -0.350866  -1.767615  4.623563
C    -0.924425  -2.864181  3.847269
H    0.327200  -2.047833  5.336868
H    -1.382020  -3.591229  4.528345
H    -0.118546  -3.362235  3.292126
H    -1.681538  -2.501378  3.154244
Pb    1.668308  1.702520  4.311215
