32
Energy: -606845.429887 eV PBE+vdW (tier 2 basis)
C    -0.444012  0.741345  0.156357
C    -0.181082  0.608256  1.609719
O    0.993402  0.828268  2.077095
H    -0.382074  1.797878  -0.146800
H    -1.403257  0.317068  -0.152968
H    0.371587  0.229914  -0.377063
N    -1.150967  0.266046  2.483988
C    -2.502754  0.824318  2.499325
C    -2.373050  2.359440  2.647501
O    -1.286396  2.904664  3.057700
H    -0.817546  -0.058743  3.392725
H    -2.985911  0.618548  1.532200
C    -3.350999  0.150706  3.609141
C    -3.064950  0.442353  5.104925
C    -1.630623  0.166508  5.581079
C    -3.553517  1.816812  5.582366
H    -3.270733  -0.930577  3.419167
H    -4.403349  0.400766  3.413325
H    -3.684200  -0.307318  5.625967
H    -1.571186  0.182305  6.676720
H    -0.927343  0.971670  5.254898
H    -1.235029  -0.808351  5.256238
H    -3.521633  1.873258  6.677686
H    -4.592877  2.001203  5.281503
H    -2.935518  2.646021  5.207260
N    -3.414880  3.098120  2.328025
C    -3.504494  4.555681  2.459605
H    -4.254826  2.612419  2.017560
H    -4.157516  4.938687  1.669625
H    -2.509494  4.996463  2.362154
H    -3.928527  4.817676  3.438246
Pb    0.820327  2.366651  3.757776
