32
Energy: -606844.754417 eV PBE+vdW (tier 2 basis)
C    -0.025143  -0.122406  -0.446376
C    -0.230333  -0.076450  1.027376
O    0.538282  -0.828662  1.786047
H    1.002975  0.175356  -0.696354
H    -0.728433  0.522053  -0.982808
H    -0.151323  -1.159445  -0.789999
N    -1.162693  0.675440  1.543456
C    -1.722101  0.738785  2.897975
C    -3.229949  1.054724  2.559447
O    -3.462872  1.506668  1.431270
H    -1.877866  1.158707  0.925592
H    -1.629831  -0.243868  3.381602
C    -1.169183  1.887687  3.776311
C    0.244326  1.784342  4.395943
C    0.462623  0.493616  5.194739
C    1.395210  2.075893  3.422600
H    -1.877340  1.997889  4.610456
H    -1.247918  2.824646  3.205094
H    0.284664  2.603049  5.132616
H    1.453460  0.466638  5.678419
H    0.294846  -0.426629  4.585471
H    -0.263900  0.366268  6.011697
H    2.377299  2.032960  3.925818
H    1.341434  3.085499  2.987216
H    1.380155  1.435861  2.510047
N    -4.135498  0.841990  3.515865
C    -5.563266  1.134723  3.356178
H    -3.836602  0.429580  4.393888
H    -5.883348  1.860972  4.112379
H    -6.148349  0.214096  3.464300
H    -5.722066  1.552522  2.359000
Pb    2.251085  -0.805151  3.062736
