32
Energy: -606845.935691 eV PBE+vdW (tier 2 basis)
C    -0.487947  1.690577  0.154822
C    -1.004517  1.015874  1.377029
O    -1.476314  1.730374  2.330579
H    -1.309432  2.260899  -0.303474
H    -0.081328  0.991654  -0.583271
H    0.284345  2.418985  0.436527
N    -0.989849  -0.316968  1.447676
C    -1.611185  -1.121690  2.508439
C    -0.761748  -1.039256  3.794751
O    -1.138955  -0.219368  4.718047
H    -0.661556  -0.820188  0.625198
H    -2.555363  -0.621534  2.782004
C    -1.975681  -2.538740  2.027599
C    -3.350706  -2.647590  1.330921
C    -3.468041  -1.791423  0.063360
C    -3.634571  -4.123848  1.027388
H    -1.981251  -3.203247  2.904300
H    -1.189801  -2.924265  1.357606
H    -4.108473  -2.299560  2.055895
H    -4.437905  -1.963788  -0.418982
H    -2.695701  -2.057169  -0.675499
H    -3.408689  -0.710199  0.258057
H    -4.636937  -4.240596  0.598197
H    -3.587671  -4.744975  1.931723
H    -2.916573  -4.527459  0.298829
N    0.319277  -1.758021  4.015571
C    0.985958  -2.759543  3.175599
H    0.742601  -1.592153  4.931278
H    0.544661  -3.751856  3.329651
H    2.039264  -2.791458  3.470249
H    0.930583  -2.486904  2.118575
Pb    -2.021506  1.823134  4.496564
