32
Energy: -606844.424796 eV PBE+vdW (tier 2 basis)
C    0.393887  -0.255217  0.682386
C    -0.105002  0.612276  1.780482
O    0.662685  1.643887  2.141050
H    -0.395396  -0.891450  0.270987
H    1.195672  -0.904242  1.067028
H    0.821366  0.359450  -0.119080
N    -1.212610  0.452236  2.426688
C    -2.284783  -0.544090  2.296811
C    -3.399639  0.158400  3.132029
O    -3.065190  1.180017  3.770396
H    -1.599078  1.134256  3.173183
H    -2.607202  -0.596141  1.245096
C    -1.856371  -1.957598  2.764186
C    -1.264619  -2.105892  4.180307
C    -2.301398  -1.934355  5.298204
C    -0.582956  -3.477887  4.279173
H    -1.127428  -2.328799  2.027743
H    -2.728535  -2.618543  2.658152
H    -0.483113  -1.334427  4.312641
H    -1.846021  -2.147479  6.273355
H    -3.134376  -2.641512  5.171821
H    -2.715237  -0.920556  5.358200
H    -0.116711  -3.609776  5.263322
H    0.198343  -3.607150  3.517334
H    -1.311029  -4.291912  4.151696
N    -4.645313  -0.313794  3.129865
C    -5.199294  -1.468922  2.429320
H    -5.280738  0.211857  3.729272
H    -6.239625  -1.249238  2.167685
H    -5.180575  -2.365848  3.063348
H    -4.655600  -1.667545  1.500274
Pb    1.780102  3.313023  2.685907
