32
Energy: -606844.530543 eV PBE+vdW (tier 2 basis)
C    0.039952  -0.614760  0.376088
C    -0.439911  -0.169520  1.710203
O    0.464884  -0.036347  2.680172
H    -0.637254  -0.299256  -0.424425
H    0.096482  -1.714625  0.360196
H    1.044139  -0.223627  0.179917
N    -1.670961  0.085871  2.016325
C    -2.899780  0.062197  1.215356
C    -3.889361  0.744162  2.215254
O    -3.440869  1.076402  3.329909
H    -1.992270  0.480372  2.966400
H    -2.777015  0.745450  0.358182
C    -3.299967  -1.333285  0.682895
C    -3.306351  -2.511088  1.675780
C    -4.345344  -2.368102  2.794690
C    -3.522693  -3.811441  0.889561
H    -2.635583  -1.573542  -0.160139
H    -4.298033  -1.231827  0.226430
H    -2.304820  -2.568095  2.142578
H    -4.353915  -3.268642  3.421365
H    -5.357690  -2.255773  2.379885
H    -4.153921  -1.518022  3.462499
H    -3.475582  -4.680674  1.557055
H    -2.766936  -3.950602  0.104355
H    -4.510833  -3.822765  0.407720
N    -5.136651  0.957159  1.802885
C    -6.170155  1.583885  2.624870
H    -5.404224  0.627981  0.879787
H    -6.710174  2.325863  2.026449
H    -5.695051  2.070880  3.480020
H    -6.880048  0.827762  2.985810
Pb    1.886742  0.251239  4.176105
