27
Energy: -172205.726314 eV PBE+vdW (tier 2 basis)
C    0.650913  -1.006004  -0.295305
C    0.252031  -0.231204  0.920298
O    0.900602  -0.076032  1.923196
H    1.741558  -1.090937  -0.327252
H    0.276577  -0.572249  -1.231727
H    0.238049  -2.025110  -0.214838
N    -1.083266  0.401111  0.825796
C    -1.862408  0.592158  2.087937
C    -3.156968  1.357266  1.731357
O    -3.150140  2.296157  0.868452
H    -1.654113  -0.101175  0.136806
H    -2.150556  -0.398645  2.465448
C    -1.111234  1.299169  3.269193
C    -0.023683  2.332910  3.002091
O    0.029914  3.100004  1.984273
N    0.880084  2.493923  3.952493
H    -0.680977  0.517844  3.903605
H    -1.869706  1.816227  3.881231
H    0.912184  1.912227  4.783809
H    1.595840  3.211125  3.847457
N    -4.282339  1.048050  2.350572
C    -4.523963  -0.007021  3.346540
H    -5.080261  1.628966  2.086289
H    -3.934953  0.156344  4.256857
H    -4.316037  -1.000838  2.931241
H    -5.582745  0.031189  3.616707
Cd    -1.123755  2.724926  0.234564
