27
Energy: -172206.434213 eV PBE+vdW (tier 2 basis)
C    -1.327542  0.652618  0.347583
C    -0.723510  0.780165  1.709938
O    0.386242  1.363762  1.833592
H    -0.628072  0.109688  -0.302322
H    -1.438152  1.658525  -0.080972
H    -2.299643  0.148582  0.338723
N    -1.431182  0.269943  2.748966
C    -1.176762  0.326280  4.198637
C    -0.685805  1.714518  4.683800
O    0.540914  1.974390  4.902048
H    -2.311073  -0.167284  2.488245
H    -2.177039  0.224662  4.639109
C    -0.390673  -0.877813  4.823427
C    0.745609  -1.558389  4.072288
O    1.751970  -0.959380  3.586572
N    0.698956  -2.881308  3.984887
H    -1.135267  -1.641845  5.076432
H    0.034092  -0.545670  5.785116
H    -0.057369  -3.431790  4.378121
H    1.483898  -3.382929  3.571515
N    -1.596203  2.637542  4.953165
C    -3.059292  2.547228  4.881575
H    -1.203260  3.517116  5.293969
H    -3.454391  1.872795  5.653069
H    -3.388488  2.227614  3.886301
H    -3.465035  3.545702  5.066829
Cd    1.880077  1.175276  3.406388
