27
Energy: -172205.440313 eV PBE+vdW (tier 2 basis)
C    0.393732  -0.792740  0.380509
C    -0.166198  0.128144  1.418963
O    0.524993  0.930445  2.061697
H    1.236884  -1.347856  0.809749
H    0.800376  -0.181182  -0.437419
H    -0.340537  -1.493472  -0.031481
N    -1.526598  0.069728  1.650009
C    -2.178952  1.054449  2.506446
C    -1.992443  0.667216  4.004165
O    -2.935352  0.240883  4.788646
H    -2.071151  -0.682896  1.238769
H    -1.608440  1.988730  2.372606
C    -3.631689  1.267905  2.005438
C    -4.284987  2.582163  2.391605
O    -4.879675  2.770736  3.512568
N    -4.258144  3.584574  1.533494
H    -4.290835  0.443808  2.322741
H    -3.589483  1.212098  0.909792
H    -3.842194  3.499433  0.610351
H    -4.699225  4.472640  1.773342
N    -0.749318  0.707312  4.416410
C    -0.260816  0.343157  5.741542
H    -0.054416  0.926221  3.650969
H    -1.073253  0.363562  6.471781
H    0.529258  1.047820  6.024259
H    0.170435  -0.667315  5.710397
Cd    -4.711031  1.317723  5.049594
