27
Energy: -172206.530164 eV PBE+vdW (tier 2 basis)
C    1.196132  -1.368165  1.793831
C    0.329830  -0.176292  2.054316
O    0.700268  0.947777  1.621244
H    1.326602  -1.472882  0.707617
H    0.797743  -2.303977  2.199442
H    2.193419  -1.181667  2.214179
N    -0.825409  -0.393070  2.730764
C    -1.953678  0.500836  3.058804
C    -2.392708  1.429774  1.893378
O    -1.949330  2.609139  1.732858
H    -0.975531  -1.363297  2.994323
H    -2.793958  -0.194542  3.183453
C    -1.890146  1.224695  4.449975
C    -0.573643  1.737610  5.017485
O    0.224772  2.508851  4.405587
N    -0.288600  1.400239  6.268451
H    -2.331103  0.538276  5.182472
H    -2.566057  2.095038  4.413417
H    0.536011  1.796455  6.717513
H    -0.896227  0.814703  6.832069
N    -3.330276  0.952605  1.089693
C    -3.892868  1.674646  -0.055714
H    -3.727892  0.039235  1.295745
H    -4.832323  2.163085  0.234242
H    -4.091961  0.957269  -0.858352
H    -3.181501  2.431757  -0.394070
Cd    0.110431  2.920897  2.302277
