27
Energy: -172205.412698 eV PBE+vdW (tier 2 basis)
C    0.441405  0.060814  0.141166
C    -0.717044  0.294962  1.064701
O    -1.688538  -0.463064  1.121547
H    0.703550  -1.003411  0.159058
H    1.324865  0.665408  0.374833
H    0.118767  0.292086  -0.884898
N    -0.645278  1.419945  1.866411
C    -1.712862  1.954522  2.701621
C    -1.656906  1.464205  4.162414
O    -2.413973  1.980121  5.068075
H    0.127118  2.055311  1.683684
H    -1.476580  3.025952  2.797280
C    -3.148561  1.923353  2.051875
C    -4.199914  0.917539  2.508800
O    -5.143682  1.264432  3.325158
N    -4.202888  -0.287467  2.003336
H    -3.005852  1.811355  0.970181
H    -3.610457  2.913926  2.174617
H    -3.389546  -0.568572  1.426037
H    -4.928544  -0.955997  2.260658
N    -0.736206  0.588895  4.491420
C    -0.469395  0.069063  5.833599
H    -0.117415  0.301214  3.731775
H    -0.317832  -1.013824  5.768263
H    -1.312321  0.293039  6.490751
H    0.439547  0.535173  6.235615
Cd    -4.466455  2.495021  4.895024
