27
Energy: -172205.540573 eV PBE+vdW (tier 2 basis)
C    -3.627933  -4.014866  0.302273
C    -2.477193  -3.333599  0.974939
O    -1.295005  -3.515933  0.727428
H    -3.831895  -3.505119  -0.651441
H    -4.546101  -4.009417  0.901339
H    -3.344363  -5.045165  0.062436
N    -2.800039  -2.394173  1.988159
C    -1.708233  -1.599647  2.471233
C    -0.815477  -2.358472  3.484433
O    0.401489  -1.985304  3.665428
H    -3.754303  -2.052455  2.066540
H    -1.019142  -1.498933  1.597821
C    -2.115138  -0.195149  2.996561
C    -1.574336  0.962582  2.163779
O    -0.353451  1.038098  1.792004
N    -2.385447  1.955265  1.851343
H    -1.722200  -0.031976  4.014231
H    -3.205382  -0.122914  3.091387
H    -3.366191  1.962761  2.115704
H    -2.024506  2.767852  1.351218
N    -1.329382  -3.359400  4.149536
C    -0.634388  -4.209346  5.120306
H    -2.300684  -3.578537  3.917089
H    0.431381  -3.970812  5.118782
H    -0.784528  -5.258132  4.840071
H    -1.051267  -4.040166  6.120746
Cd    1.049716  -0.492046  2.305654
