27
Energy: -172205.729198 eV PBE+vdW (tier 2 basis)
C    -0.172498  0.213610  0.182194
C    -0.284855  0.135736  1.666829
O    0.741610  0.356543  2.376150
H    0.590064  -0.500537  -0.157410
H    0.185764  1.215044  -0.094133
H    -1.119075  0.011914  -0.330619
N    -1.501654  -0.170564  2.206629
C    -1.616464  -0.186054  3.650250
C    -1.224846  -1.532257  4.293926
O    -0.091772  -1.609518  4.879621
H    -2.276691  -0.371050  1.580695
H    -0.769531  0.452784  3.867992
C    -2.654577  0.655215  4.400078
C    -1.900745  1.446159  5.509818
O    -0.638961  1.496120  5.597795
N    -2.651327  2.113706  6.372960
H    -3.469580  0.077174  4.853217
H    -3.111669  1.389760  3.719508
H    -3.665367  2.124688  6.316847
H    -2.210954  2.672758  7.101380
N    -2.012815  -2.590835  4.247026
C    -3.325004  -2.728614  3.616702
H    -1.627237  -3.428503  4.689254
H    -4.041402  -3.123202  4.346890
H    -3.261055  -3.425899  2.771873
H    -3.690254  -1.762477  3.257266
Cd    1.050372  0.248596  4.627487
