27
Energy: -172205.489983 eV PBE+vdW (tier 2 basis)
C    -2.497273  -3.808881  -0.438922
C    -1.638812  -2.928682  0.404701
O    -0.489504  -2.595444  -0.055515
H    -2.679431  -3.293867  -1.394764
H    -3.460345  -4.048670  0.024206
H    -1.955756  -4.732911  -0.680709
N    -2.113034  -2.508700  1.587825
C    -1.662443  -1.375412  2.431128
C    -0.681694  -1.861845  3.529072
O    0.319236  -2.627512  3.202242
H    -3.011548  -2.907815  1.855577
H    -1.086510  -0.694927  1.778090
C    -2.969847  -0.652227  2.863444
C    -2.840817  0.633222  3.688185
O    -2.277784  0.617635  4.798464
N    -3.399385  1.740571  3.191554
H    -3.575697  -1.340002  3.476001
H    -3.535216  -0.458017  1.943064
H    -3.916108  1.760473  2.320285
H    -3.397047  2.585007  3.760248
N    -0.861819  -1.509721  4.768412
C    0.028702  -1.853912  5.874845
H    -1.590971  -0.726193  4.941304
H    1.029304  -2.104224  5.512040
H    -0.383637  -2.715463  6.417929
H    0.066075  -0.999202  6.558448
Cd    1.159362  -2.559281  1.279849
