27
Energy: -172205.768172 eV PBE+vdW (tier 2 basis)
C    0.604342  0.745475  1.218537
C    -0.282021  1.073009  2.358539
O    -0.023133  2.034781  3.141326
H    1.523618  0.304120  1.643912
H    0.911150  1.653369  0.686360
H    0.173127  0.003953  0.538334
N    -1.404627  0.317264  2.625607
C    -2.511815  0.046082  1.698586
C    -2.813309  1.287682  0.825089
O    -2.634578  2.466730  1.266542
H    -1.677193  0.359260  3.607551
H    -2.266217  -0.803381  1.046412
C    -3.756343  -0.365579  2.522335
C    -4.333832  0.625300  3.545511
O    -3.709317  1.603771  4.059922
N    -5.562979  0.362817  3.966521
H    -3.500143  -1.282020  3.080772
H    -4.555401  -0.657738  1.828094
H    -6.098235  -0.436156  3.638600
H    -5.976203  0.938571  4.698873
N    -3.274905  1.113196  -0.404724
C    -3.501399  -0.140800  -1.136001
H    -3.486433  1.982160  -0.897846
H    -2.596607  -0.760265  -1.156259
H    -3.755562  0.116521  -2.167810
H    -4.337588  -0.710576  -0.712275
Cd    -2.071696  2.872413  3.359860
