27
Energy: -172205.573747 eV PBE+vdW (tier 2 basis)
C    -0.225719  1.695828  -0.434553
C    0.107842  1.277205  0.956284
O    1.330403  1.491973  1.331519
H    -0.004860  2.764821  -0.557536
H    -1.272979  1.499978  -0.687192
H    0.427081  1.152694  -1.133203
N    -0.835658  0.723131  1.704608
C    -0.782189  0.059959  3.002018
C    -1.986685  -0.965033  2.896925
O    -2.831400  -0.731252  2.037145
H    -1.768225  0.517188  1.283136
H    0.156210  -0.513070  3.108960
C    -1.026229  1.028465  4.216230
C    -0.043963  0.934786  5.367668
O    1.231536  0.954789  5.202057
N    -0.501560  0.871915  6.601769
H    -2.051505  0.899576  4.585814
H    -0.983098  2.071358  3.858446
H    -1.496621  0.861726  6.809418
H    0.147505  0.885349  7.389252
N    -2.036340  -1.989739  3.759942
C    -1.073882  -2.401406  4.775656
H    -2.868013  -2.569609  3.647523
H    -1.060883  -3.495408  4.828014
H    -1.336885  -2.016100  5.770501
H    -0.057040  -2.082739  4.516929
Cd    1.969154  1.262613  3.271670
