27
Energy: -172205.793754 eV PBE+vdW (tier 2 basis)
C    0.208626  0.008468  -0.334517
C    -0.077320  0.151539  1.121698
O    0.727298  0.809742  1.846900
H    1.188822  -0.471212  -0.461292
H    0.285303  1.009535  -0.781188
H    -0.554617  -0.569889  -0.866151
N    -1.205693  -0.434840  1.619160
C    -1.508433  -0.236457  3.021256
C    -0.823207  -1.259013  3.955892
O    0.215296  -0.894350  4.599622
H    -1.795381  -0.972912  0.989920
H    -0.945910  0.678284  3.166649
C    -2.853282  0.317025  3.496674
C    -2.540473  1.443279  4.526958
O    -1.380591  1.915837  4.711593
N    -3.569950  1.929456  5.203574
H    -3.523167  -0.424876  3.949715
H    -3.393225  0.778319  2.655505
H    -4.519495  1.598959  5.059522
H    -3.428409  2.691757  5.863828
N    -1.311235  -2.481501  4.060323
C    -0.736108  -3.556918  4.878589
H    -2.150615  -2.704788  3.530027
H    -0.547319  -4.430502  4.244152
H    -1.441672  -3.831590  5.671879
H    0.199739  -3.209383  5.321171
Cd    0.735016  1.178032  4.090540
