27
Energy: -172205.83209 eV PBE+vdW (tier 2 basis)
C    -0.061545  -0.084280  -0.334953
C    -0.644390  0.386002  0.959552
O    -0.937114  1.517020  1.252156
H    1.035347  -0.127110  -0.232183
H    -0.293038  0.642295  -1.119974
H    -0.404258  -1.084438  -0.630240
N    -0.873846  -0.690590  1.949562
C    -0.808328  -0.335448  3.400108
C    -1.155141  -1.610504  4.205834
O    -2.117873  -2.367193  3.854245
H    -0.246030  -1.478293  1.753373
H    0.228914  -0.057219  3.640727
C    -1.695530  0.875945  3.859535
C    -2.979480  1.245197  3.127676
O    -3.755915  0.418887  2.541141
N    -3.351994  2.511044  3.191530
H    -1.054080  1.762770  3.875325
H    -1.991568  0.689208  4.905871
H    -2.779819  3.230021  3.622986
H    -4.234196  2.796325  2.769554
N    -0.439205  -1.862117  5.285033
C    -0.664610  -2.977765  6.212978
H    0.339634  -1.239642  5.493611
H    -1.558129  -3.527148  5.909668
H    -0.794792  -2.580764  7.226429
H    0.205934  -3.644482  6.196086
Cd    -3.110912  -1.559418  2.105526
