27
Energy: -172205.187004 eV PBE+vdW (tier 2 basis)
C    -0.171946  1.042637  0.193624
C    -0.223278  1.132102  1.683706
O    -0.016566  2.301977  2.217660
H    -0.921162  1.736147  -0.216424
H    -0.373004  0.033417  -0.179619
H    0.805161  1.388202  -0.169238
N    -0.520280  0.037257  2.358729
C    -0.892981  -0.286391  3.741990
C    -0.350865  0.552546  4.892633
O    0.871470  0.959433  4.937674
H    -0.692184  -0.872185  1.801280
H    -1.993585  -0.246658  3.773978
C    -0.450873  -1.759801  4.019707
C    -0.917820  -2.739939  2.928074
O    -1.001135  -2.375715  1.740100
N    -1.184631  -3.990059  3.314093
H    -0.823198  -2.069558  5.004229
H    0.648442  -1.803708  4.057072
H    -1.106625  -4.304069  4.274379
H    -1.425922  -4.679814  2.605629
N    -1.115203  0.738968  5.956977
C    -2.495055  0.304467  6.205980
H    -0.635322  1.193632  6.736550
H    -3.135014  0.519147  5.342492
H    -2.873997  0.865843  7.064743
H    -2.536233  -0.766223  6.444520
Cd    1.460482  2.552764  3.664760
