27
Energy: -172205.769376 eV PBE+vdW (tier 2 basis)
C    -0.594043  -0.649059  0.375243
C    -0.066555  -0.401064  1.747921
O    1.143696  0.019810  1.840816
H    0.064295  -1.353644  -0.149682
H    -0.560012  0.296352  -0.186558
H    -1.622267  -1.026036  0.378350
N    -0.874510  -0.603957  2.794991
C    -0.627281  -0.231017  4.195788
C    0.154134  -1.340175  4.949016
O    1.435888  -1.210740  5.121181
H    -1.769516  -1.065964  2.621924
H    0.047498  0.640209  4.184264
C    -1.915853  0.290991  4.874549
C    -3.117847  -0.647574  4.744235
O    -2.943042  -1.839780  4.417726
N    -4.323971  -0.132597  4.987731
H    -2.149036  1.277924  4.450125
H    -1.707398  0.455742  5.942932
H    -4.472081  0.837478  5.244860
H    -5.136933  -0.743785  4.951553
N    -0.492272  -2.380622  5.397423
C    0.091878  -3.519522  6.104151
H    -1.516374  -2.378224  5.158478
H    -0.332015  -4.440524  5.688678
H    -0.172083  -3.461485  7.168426
H    1.179496  -3.516241  5.999944
Cd    2.390206  -0.194498  3.539936
