27
Energy: -172205.429817 eV PBE+vdW (tier 2 basis)
C    0.834986  2.810704  1.362414
C    0.789903  1.524908  2.114334
O    1.885427  0.965207  2.501456
H    1.398688  3.563282  1.929630
H    -0.154788  3.207207  1.113006
H    1.395330  2.639156  0.430217
N    -0.389667  0.938960  2.328500
C    -0.639943  -0.426313  2.848449
C    -2.172939  -0.653761  2.793575
O    -2.881097  -0.220641  3.717116
H    -1.206863  1.434285  1.973068
H    -0.110210  -1.129975  2.188381
C    -0.129488  -0.703351  4.289652
C    -0.202320  0.432588  5.299933
O    0.869003  0.962635  5.796371
N    -1.378945  0.838977  5.698800
H    0.906888  -1.065495  4.251919
H    -0.712361  -1.547032  4.687934
H    -2.206207  0.450425  5.194069
H    -1.470536  1.579407  6.393794
N    -2.640395  -1.295583  1.716875
C    -4.059461  -1.591739  1.505727
H    -1.979256  -1.665087  1.039373
H    -4.255978  -2.654748  1.695438
H    -4.328790  -1.355053  0.470662
H    -4.653089  -0.985753  2.195006
Cd    2.535112  0.986790  4.504298
