27
Energy: -172206.52828 eV PBE+vdW (tier 2 basis)
C    1.289094  -1.972567  1.530406
C    0.620413  -0.721480  1.999144
O    1.318267  0.332919  2.083172
H    1.686808  -1.804883  0.519991
H    0.630994  -2.847653  1.523573
H    2.152252  -2.174031  2.180220
N    -0.688269  -0.802798  2.327065
C    -1.597699  0.186771  2.940732
C    -2.076869  1.223859  1.896868
O    -1.283410  1.992309  1.277935
H    -1.099405  -1.721346  2.183852
H    -2.479221  -0.409832  3.200521
C    -1.048288  0.725654  4.325582
C    -1.031629  2.221277  4.612424
O    -0.268345  3.029650  3.999024
N    -1.797678  2.681475  5.591517
H    -0.007862  0.391328  4.446265
H    -1.611520  0.211150  5.112123
H    -1.741479  3.665937  5.850692
H    -2.383214  2.077541  6.159301
N    -3.378446  1.250383  1.641055
C    -4.004513  2.149123  0.665188
H    -3.980279  0.568449  2.094927
H    -4.014619  1.681599  -0.327989
H    -3.439787  3.084050  0.615709
H    -5.032310  2.347827  0.982777
Cd    0.671016  2.373289  2.172925
