27
Energy: -172205.337458 eV PBE+vdW (tier 2 basis)
C    0.447178  0.420352  0.539966
C    -0.208100  -0.609396  1.407116
O    0.357997  -1.625491  1.821666
H    0.777649  -0.065869  -0.388206
H    1.351231  0.789261  1.041516
H    -0.204110  1.264926  0.290217
N    -1.536695  -0.402367  1.751066
C    -2.139330  -1.389520  2.621765
C    -3.673896  -1.366630  2.582168
O    -4.401778  -1.397317  3.650798
H    -1.960132  0.512462  1.624821
H    -1.843501  -2.368963  2.198748
C    -1.518161  -1.314116  4.057881
C    -1.191566  -2.667347  4.650380
O    -1.972513  -3.259078  5.492606
N    -0.081371  -3.249574  4.262447
H    -2.143293  -0.732989  4.754161
H    -0.585103  -0.748300  3.967778
H    0.487900  -2.801424  3.533134
H    0.179709  -4.170783  4.613256
N    -4.317706  -1.333005  1.429758
C    -3.808584  -1.350972  0.052227
H    -5.334909  -1.317012  1.530658
H    -2.859872  -1.889301  -0.009337
H    -3.683239  -0.330994  -0.331720
H    -4.553021  -1.867541  -0.562687
Cd    -3.924670  -2.459417  5.418060
