18
Energy: -165034.941548 eV PBE+vdW (tier 2 basis)
N    0.478424  -0.077162  0.037768
C    0.284289  0.038798  1.534960
C    1.558948  0.367365  2.305970
O    2.697268  0.523866  1.805238
H    -0.096197  0.636983  -0.423090
H    -0.409891  0.873444  1.723473
C    -0.344533  -1.312086  1.976642
C    -1.026633  -1.815893  0.699627
C    -0.025090  -1.458428  -0.390668
H    -1.034038  -1.153285  2.812930
H    0.433053  -2.012625  2.313938
H    -1.988546  -1.310305  0.533883
H    -1.217917  -2.895686  0.727161
H    -0.432311  -1.381639  -1.404784
H    0.820226  -2.158508  -0.395849
O    1.344765  0.461913  3.583139
H    2.160277  0.676275  4.093165
Cd    2.635908  0.403972  -0.379501
