26
Energy: -32075.9343063 eV PBE+vdW (tier 2 basis)
N    -0.307360  1.700449  0.659719
C    0.677187  0.832018  1.437330
C    1.786085  0.428065  0.446629
O    2.648221  -0.446113  0.763905
H    -1.050417  1.135661  0.220140
H    0.195297  2.186362  -0.106239
H    1.153223  1.504744  2.169553
C    -0.060820  -0.314892  2.163157
C    0.646031  -0.865809  3.420568
C    -0.172064  -2.018565  4.040174
C    0.448738  -2.740965  5.239056
N    0.219787  -2.043640  6.577995
H    -0.253134  -1.131126  1.449652
H    -1.047730  0.072698  2.464742
H    0.783400  -0.042291  4.140649
H    1.649259  -1.229814  3.157077
H    -0.312152  -2.801132  3.279106
H    -1.192229  -1.684865  4.293029
H    1.534461  -2.866746  5.143475
H    0.002003  -3.734969  5.358347
H    0.633384  -2.592599  7.348096
H    -0.785200  -1.947072  6.787561
H    0.639017  -1.104810  6.620594
O    1.841890  1.030721  -0.684570
H    -0.765811  2.400975  1.260253
Ca    3.725935  -0.087285  -1.176998
