26
Energy: -32075.7588262 eV PBE+vdW (tier 2 basis)
N    1.028711  -1.419908  0.208711
C    0.419426  -0.536271  1.294336
C    1.609046  0.018240  2.112761
O    2.799315  -0.169895  1.676669
H    0.578339  -1.305289  -0.708412
H    2.035322  -1.164526  0.125230
H    -0.011499  0.336152  0.776799
C    -0.647705  -1.234384  2.154996
C    -2.096661  -1.336108  1.623575
C    -2.376835  -2.379853  0.521534
C    -3.797688  -2.956458  0.496320
N    -4.886927  -1.969805  0.086364
H    -0.687966  -0.644494  3.081722
H    -0.277982  -2.228608  2.459444
H    -2.434753  -0.334118  1.314664
H    -2.697632  -1.594553  2.509218
H    -1.748443  -3.270749  0.685118
H    -2.115972  -2.002324  -0.481515
H    -4.094351  -3.335464  1.482687
H    -3.867682  -3.783213  -0.220647
H    -4.964831  -1.169952  0.730425
H    -4.738543  -1.597309  -0.863171
H    -5.807669  -2.437549  0.081312
O    1.391682  0.686096  3.166698
H    0.988620  -2.417758  0.461391
Ca    3.569678  1.087098  3.411770
