26
Energy: -32075.918412 eV PBE+vdW (tier 2 basis)
N    -0.287202  0.599752  0.067951
C    0.437104  0.563106  1.408743
C    1.801717  -0.114553  1.173059
O    2.517144  -0.463467  2.159866
H    -0.854306  -0.245506  -0.090884
H    0.419444  0.637800  -0.690680
H    0.695164  1.613817  1.623953
C    -0.427233  0.048329  2.573198
C    -0.979673  -1.384142  2.456166
C    -1.628355  -1.938378  3.749512
C    -2.983502  -1.321257  4.107031
N    -3.613325  -2.029270  5.299541
H    -1.236060  0.779255  2.725051
H    0.216549  0.129639  3.461713
H    -0.160853  -2.074518  2.203984
H    -1.714693  -1.465880  1.637061
H    -0.926009  -1.815842  4.589133
H    -1.758581  -3.021781  3.604331
H    -3.708195  -1.415451  3.288100
H    -2.916311  -0.264323  4.392375
H    -3.023564  -1.968349  6.143420
H    -3.774158  -3.030769  5.111211
H    -4.528289  -1.616372  5.539371
O    2.233431  -0.216043  -0.029875
H    -0.909855  1.416576  -0.014049
Ca    4.241611  -0.847373  0.785717
