26
Energy: -32074.3951363 eV PBE+vdW (tier 2 basis)
N    1.660322  1.405181  1.063832
C    0.571022  0.849209  1.859601
C    1.420001  0.380046  3.047943
O    1.849137  1.185248  3.936991
H    1.999871  0.792848  0.323745
H    1.497419  2.344498  0.709562
H    -0.065366  1.666282  2.226932
C    -0.268516  -0.227248  1.142360
C    -1.580840  -0.709399  1.804810
C    -2.783030  0.216171  1.532028
C    -4.138447  -0.263005  2.058616
N    -4.785531  -1.340910  1.192326
H    0.368774  -1.100901  0.908823
H    -0.493974  0.194401  0.150889
H    -1.452452  -0.841493  2.891710
H    -1.780533  -1.717188  1.409253
H    -2.862256  0.427560  0.452729
H    -2.622035  1.197777  2.002630
H    -4.861127  0.561116  2.077070
H    -4.076213  -0.684822  3.069691
H    -5.705536  -1.611246  1.573681
H    -4.946409  -1.008185  0.229718
H    -4.221597  -2.200142  1.133753
O    1.853664  -0.846297  3.148863
H    1.473295  -1.435315  2.461160
Ca    3.237430  2.036142  5.203471
