26
Energy: -32074.4805785 eV PBE+vdW (tier 2 basis)
N    -0.184461  0.415069  0.128480
C    -0.181097  0.097142  1.542204
C    1.325799  0.246239  1.803344
O    1.872812  1.373023  2.040701
H    -0.214976  -0.363821  -0.523071
H    -0.725359  1.217292  -0.174000
H    -0.679493  0.896480  2.107703
C    -0.740639  -1.284184  1.929967
C    -2.252075  -1.510008  1.693449
C    -3.191827  -0.778281  2.674388
C    -4.528113  -1.469650  2.951547
N    -5.486363  -1.494503  1.763173
H    -0.506383  -1.483633  2.987944
H    -0.218981  -2.061799  1.340774
H    -2.405169  -2.595704  1.790836
H    -2.498736  -1.260761  0.649527
H    -3.366798  0.265711  2.369860
H    -2.716866  -0.719547  3.666491
H    -5.072511  -0.958304  3.754301
H    -4.391675  -2.518317  3.245175
H    -5.104350  -2.010291  0.958203
H    -6.371246  -1.957809  2.022791
H    -5.727497  -0.545167  1.443437
O    2.155957  -0.755975  1.682653
H    1.702317  -1.617718  1.557861
Ca    3.483430  2.657863  2.238276
