26
Energy: -32075.0026619 eV PBE+vdW (tier 2 basis)
N    1.927243  -1.106198  0.751262
C    0.630354  -0.467395  1.176467
C    0.959113  0.405385  2.399320
O    2.143432  0.726612  2.634048
H    1.951145  -2.059429  1.138636
H    1.896455  -1.255798  -0.263599
H    0.354262  0.251578  0.384921
C    -0.522910  -1.490529  1.385081
C    -1.986070  -0.981344  1.248946
C    -2.524341  -0.988184  -0.196820
C    -3.962875  -0.493899  -0.393672
N    -5.035955  -1.514379  -0.023784
H    -0.392313  -1.969666  2.367242
H    -0.375174  -2.290919  0.644681
H    -2.114241  0.037868  1.657586
H    -2.599474  -1.629920  1.891378
H    -2.413685  -1.994299  -0.633341
H    -1.911498  -0.329577  -0.831470
H    -4.142863  -0.260244  -1.449595
H    -4.186027  0.406498  0.192816
H    -5.019010  -1.781002  0.970651
H    -5.976178  -1.130611  -0.211985
H    -4.951673  -2.378724  -0.580164
O    0.043555  0.859017  3.201103
H    -0.862895  0.557529  2.984825
Ca    3.936959  0.119896  1.641976
