26
Energy: -32076.0015295 eV PBE+vdW (tier 2 basis)
N    1.048395  -0.088641  0.285296
C    0.078206  0.066254  1.452888
C    0.910508  0.559123  2.655739
O    2.120864  0.930838  2.455932
H    1.367915  -1.062715  0.178335
H    0.646070  0.211768  -0.612773
H    -0.584620  0.906368  1.187928
C    -0.748341  -1.199390  1.725719
C    -1.801247  -1.556409  0.653330
C    -2.559164  -2.846182  1.036235
C    -3.510634  -3.434804  -0.009489
N    -4.890261  -2.782032  -0.047785
H    -1.245852  -1.028896  2.691630
H    -0.064012  -2.049404  1.888385
H    -1.321284  -1.711112  -0.327529
H    -2.493788  -0.707037  0.534949
H    -3.087341  -2.713768  1.994594
H    -1.824734  -3.643789  1.226256
H    -3.704088  -4.491903  0.207573
H    -3.114472  -3.367995  -1.030621
H    -5.373223  -2.862373  0.859654
H    -4.858933  -1.784171  -0.297433
H    -5.490383  -3.247313  -0.747221
O    0.377854  0.640599  3.802453
H    1.889306  0.488364  0.489244
Ca    2.235260  1.558622  4.631713
