26
Energy: -32075.9062952 eV PBE+vdW (tier 2 basis)
N    0.578095  -0.115374  0.257683
C    0.335964  -0.241930  1.760164
C    1.678781  -0.679215  2.383722
O    1.742762  -0.953099  3.619013
H    0.202115  -0.923129  -0.260670
H    0.171147  0.737008  -0.149523
H    0.149958  0.777999  2.131788
C    -0.837248  -1.179606  2.094621
C    -2.261896  -0.680613  1.750003
C    -2.854540  0.320022  2.761002
C    -4.262228  0.840819  2.450571
N    -5.379058  -0.153588  2.756879
H    -0.766674  -1.389388  3.171755
H    -0.658747  -2.145987  1.595929
H    -2.887188  -1.584783  1.697305
H    -2.296901  -0.250026  0.735019
H    -2.230699  1.225719  2.817447
H    -2.831170  -0.106065  3.777332
H    -4.387063  1.118599  1.396237
H    -4.488093  1.722463  3.061822
H    -5.384079  -0.429362  3.750450
H    -6.300731  0.267828  2.559559
H    -5.319465  -1.013953  2.194505
O    2.721059  -0.718879  1.638409
H    1.608261  -0.102105  0.105697
Ca    3.945636  -1.283353  3.463283
