26
Energy: -32076.0316825 eV PBE+vdW (tier 2 basis)
N    -0.330209  -0.086108  0.006112
C    0.995538  -0.323721  0.723372
C    2.059088  -0.542016  -0.371563
O    1.749839  -0.278041  -1.587810
H    -0.915479  0.619429  0.474297
H    -0.885206  -0.950897  -0.075778
H    1.256187  0.637969  1.196226
C    0.911544  -1.424239  1.795252
C    -0.017685  -1.061545  2.972764
C    -0.184889  -2.143970  4.066689
C    0.975592  -2.230847  5.060986
N    0.630904  -3.152535  6.223978
H    1.943969  -1.584368  2.137260
H    0.594495  -2.369499  1.323740
H    -1.033762  -0.862975  2.597816
H    0.319787  -0.120102  3.435224
H    -0.361377  -3.126688  3.601529
H    -1.102990  -1.894135  4.620442
H    1.202655  -1.256089  5.511213
H    1.896262  -2.633843  4.621792
H    1.408090  -3.211098  6.900077
H    0.426290  -4.113852  5.911921
H    -0.196028  -2.818911  6.743089
O    3.229357  -0.912811  -0.057203
H    -0.120522  0.235414  -0.959706
Ca    3.894550  -0.672521  -2.178720
