26
Energy: -32075.1096813 eV PBE+vdW (tier 2 basis)
N    0.836363  0.841061  3.076592
C    0.510785  -0.358033  3.923067
C    1.828929  -1.103826  4.175674
O    2.918195  -0.551690  3.906881
H    0.662032  0.603616  2.091941
H    0.149126  1.575066  3.283181
H    0.238597  0.032471  4.920860
C    -0.685955  -1.226919  3.450791
C    -0.529895  -1.952126  2.099396
C    -1.595380  -3.037831  1.802157
C    -2.994599  -2.507607  1.475943
N    -3.923227  -3.636672  1.047973
H    -1.568384  -0.569510  3.454381
H    -0.895197  -1.959158  4.250232
H    0.442727  -2.467247  2.062106
H    -0.521629  -1.228781  1.267632
H    -1.649484  -3.739702  2.649780
H    -1.225676  -3.618036  0.942745
H    -2.981246  -1.798662  0.638224
H    -3.486297  -2.026680  2.330444
H    -4.037252  -4.348538  1.785756
H    -4.865832  -3.281199  0.823237
H    -3.575868  -4.123181  0.206903
O    1.868973  -2.279849  4.725222
H    0.993855  -2.656137  4.951539
Ca    3.266621  1.467510  3.292959
