26
Energy: -32075.9758141 eV PBE+vdW (tier 2 basis)
N    1.022350  -0.133923  -0.279037
C    0.495683  -0.070253  1.151298
C    1.720169  0.162707  2.062347
O    2.841436  0.467139  1.521289
H    0.394865  0.319810  -0.956513
H    1.946204  0.343232  -0.301690
H    -0.095110  0.858681  1.214557
C    -0.373761  -1.273811  1.544356
C    -1.785113  -1.321360  0.916163
C    -2.640699  -2.423329  1.580689
C    -4.147753  -2.405698  1.306917
N    -4.570050  -3.082708  0.005016
H    -0.473465  -1.211957  2.638227
H    0.179515  -2.207716  1.348691
H    -1.720337  -1.480083  -0.173580
H    -2.276629  -0.346806  1.066650
H    -2.559780  -2.308326  2.672440
H    -2.228275  -3.423572  1.370550
H    -4.559456  -1.389286  1.268479
H    -4.679053  -2.954269  2.093588
H    -5.598080  -3.070969  -0.089561
H    -4.188571  -2.623001  -0.832660
H    -4.280097  -4.071838  -0.020137
O    1.589461  0.110055  3.321508
H    1.175692  -1.104815  -0.588490
Ca    3.704852  0.758095  3.599904
