26
Energy: -32076.1788907 eV PBE+vdW (tier 2 basis)
N    0.977020  0.079345  -0.172640
C    0.295770  0.114057  1.191898
C    1.383700  0.475947  2.223511
O    2.523186  0.882732  1.799840
H    1.269138  -0.874511  -0.431671
H    0.376317  0.440695  -0.926114
H    -0.383730  0.982294  1.166436
C    -0.498232  -1.162373  1.508140
C    -1.754294  -1.370399  0.636767
C    -2.595423  -2.580049  1.102083
C    -3.840616  -2.764159  0.230577
N    -4.696423  -3.933729  0.696350
H    -0.788549  -1.074825  2.565329
H    0.172218  -2.036078  1.449910
H    -1.474692  -1.517632  -0.419726
H    -2.375722  -0.461436  0.674400
H    -2.895630  -2.428342  2.151113
H    -1.980676  -3.493696  1.071007
H    -3.587362  -2.975844  -0.815876
H    -4.496030  -1.884434  0.255103
H    -4.182286  -4.827076  0.668175
H    -5.036607  -3.804860  1.661181
H    -5.528175  -4.044845  0.095459
O    1.122085  0.426150  3.462506
H    1.838435  0.658264  -0.119207
Ca    3.120580  1.288802  3.946451
