26
Energy: -32074.6346238 eV PBE+vdW (tier 2 basis)
N    -0.261836  -1.529963  -0.304013
C    -0.106081  -0.553712  0.758711
C    1.425247  -0.564184  0.846753
O    2.158198  0.124555  0.064229
H    -0.478208  -2.481397  -0.018845
H    -0.784750  -1.237476  -1.122917
H    -0.391398  0.440830  0.388375
C    -0.827033  -0.853338  2.086715
C    -2.365891  -0.766947  1.990703
C    -3.039669  -1.234022  3.296601
C    -4.559033  -1.405662  3.266782
N    -5.338214  -0.097740  3.384206
H    -0.463461  -0.158249  2.860431
H    -0.566693  -1.874461  2.426384
H    -2.716151  -1.395578  1.157683
H    -2.646397  0.270226  1.744785
H    -2.750888  -0.587901  4.141897
H    -2.654889  -2.232027  3.557808
H    -4.892776  -2.013259  4.116192
H    -4.911621  -1.886638  2.345637
H    -5.151840  0.548856  2.605869
H    -6.353951  -0.279376  3.388899
H    -5.117605  0.396195  4.261626
O    2.072371  -1.363116  1.652593
H    1.482588  -1.835956  2.278281
Ca    3.869762  0.696060  -0.937491
