26
Energy: -32076.0004646 eV PBE+vdW (tier 2 basis)
N    -0.413758  -0.649376  -0.116123
C    0.027994  0.068522  1.153679
C    1.546308  0.303239  1.048438
O    2.201678  0.694201  2.061132
H    -0.367000  -1.673781  -0.019619
H    -1.378845  -0.403699  -0.381231
H    -0.397835  1.083012  1.068479
C    -0.536334  -0.546893  2.444173
C    -0.165536  -1.999662  2.798108
C    -0.887284  -2.436915  4.094994
C    -0.577263  -3.884425  4.481917
N    -1.321001  -4.300165  5.744014
H    -1.631560  -0.439282  2.399313
H    -0.212182  0.126709  3.251039
H    0.923474  -2.094506  2.927942
H    -0.451793  -2.695200  1.990235
H    -1.974171  -2.317539  3.958652
H    -0.592980  -1.762295  4.914564
H    0.487652  -4.040410  4.694661
H    -0.882433  -4.597792  3.705978
H    -1.104122  -5.276637  5.998153
H    -1.068793  -3.713984  6.554151
H    -2.344109  -4.238895  5.628913
O    2.099952  0.208600  -0.104695
H    0.225401  -0.385545  -0.889225
Ca    3.957540  1.154716  0.754359
