26
Energy: -32075.8253326 eV PBE+vdW (tier 2 basis)
N    -0.504922  1.246456  3.987622
C    -0.187629  -0.048834  3.243176
C    1.334156  -0.038106  2.982493
O    1.865685  -0.971748  2.311087
H    0.403295  1.663889  4.283348
H    -0.976382  1.932577  3.380228
H    -0.370156  -0.872772  3.950360
C    -1.021411  -0.218738  1.960835
C    -2.525623  -0.552355  2.102447
C    -2.837896  -1.997760  2.556358
C    -4.090234  -2.643960  1.955771
N    -5.416073  -2.097426  2.479368
H    -0.531036  -1.014901  1.382123
H    -0.910935  0.695088  1.353920
H    -2.943979  -0.390325  1.097219
H    -3.031931  0.184018  2.748363
H    -2.861301  -2.089407  3.653801
H    -2.023972  -2.663293  2.227927
H    -4.111468  -3.716689  2.182294
H    -4.128181  -2.526014  0.865292
H    -5.508563  -2.218874  3.498736
H    -5.550659  -1.099136  2.266486
H    -6.206488  -2.602017  2.046933
O    2.040382  0.907779  3.482274
H    -1.090720  1.106209  4.821057
Ca    3.892040  -0.092660  2.624480
