26
Energy: -32074.9420429 eV PBE+vdW (tier 2 basis)
N    0.611121  -0.623784  0.106543
C    0.425733  -0.158030  1.527063
C    1.787993  -0.254040  2.227811
O    2.737468  -0.855195  1.680123
H    -0.120551  -1.310004  -0.109098
H    0.418914  0.158217  -0.528996
H    0.144834  0.908279  1.519915
C    -0.646588  -0.982267  2.296069
C    -2.136519  -0.671782  2.011333
C    -2.675163  0.615381  2.679507
C    -4.133320  0.585730  3.152514
N    -5.180328  0.671225  2.045536
H    -0.472682  -0.871368  3.377458
H    -0.454040  -2.048246  2.092372
H    -2.686094  -1.540181  2.405790
H    -2.332607  -0.665947  0.926987
H    -2.502050  1.506698  2.055988
H    -2.115479  0.798698  3.610603
H    -4.336463  1.442865  3.805734
H    -4.363320  -0.329282  3.713233
H    -6.129422  0.676550  2.453026
H    -5.089930  1.537330  1.493887
H    -5.143131  -0.124626  1.393585
O    2.007672  0.269337  3.395967
H    1.257083  0.760378  3.788180
Ca    2.941211  -1.561365  -0.312773
