26
Energy: -32075.0379849 eV PBE+vdW (tier 2 basis)
N    0.148445  -0.844714  0.103949
C    0.366531  -0.169559  1.432682
C    1.881896  -0.125169  1.687143
O    2.673663  -0.637154  0.866722
H    -0.373458  -1.714125  0.267770
H    -0.488377  -0.272427  -0.459963
H    0.053036  0.883839  1.333213
C    -0.406107  -0.844358  2.600100
C    -1.938280  -0.625322  2.644573
C    -2.377385  0.715108  3.265898
C    -3.888975  0.962163  3.346648
N    -4.584473  0.225879  4.488360
H    0.025378  -0.514018  3.558085
H    -0.192125  -1.924459  2.558978
H    -2.342269  -1.466627  3.227955
H    -2.376871  -0.731520  1.639112
H    -1.990673  1.557788  2.671517
H    -1.930699  0.837957  4.266543
H    -4.414384  0.664540  2.430400
H    -4.094209  2.024320  3.524483
H    -5.590714  0.457359  4.505392
H    -4.517141  -0.798647  4.410872
H    -4.202599  0.495223  5.407758
O    2.396648  0.455871  2.728152
H    1.754976  0.863977  3.344305
Ca    2.322681  -1.403654  -1.084379
