26
Energy: -32075.1410414 eV PBE+vdW (tier 2 basis)
N    0.878546  0.702485  0.062216
C    0.711617  0.386263  1.524901
C    1.731898  1.256363  2.276932
O    2.268155  2.225297  1.697019
H    1.485890  -0.016656  -0.352820
H    -0.025569  0.561692  -0.402617
H    -0.271956  0.791173  1.824979
C    0.742964  -1.137242  1.854673
C    -0.031206  -1.540924  3.131348
C    0.084513  -3.025595  3.558658
C    -0.784092  -3.995851  2.752324
N    -0.777114  -5.384834  3.377471
H    1.788707  -1.480252  1.906296
H    0.291932  -1.648460  0.991226
H    -1.091703  -1.264824  3.021185
H    0.309219  -0.964573  4.009163
H    -0.225379  -3.073635  4.613929
H    1.138222  -3.344778  3.529290
H    -0.441137  -4.131738  1.719435
H    -1.836046  -3.683608  2.732191
H    -1.364580  -6.040583  2.838852
H    0.170309  -5.790555  3.418376
H    -1.145302  -5.373429  4.341484
O    2.044547  1.054077  3.520192
H    1.588684  0.287850  3.927662
Ca    1.995755  2.929196  -0.300045
