26
Energy: -32075.1734912 eV PBE+vdW (tier 2 basis)
N    -0.323396  1.737594  1.472640
C    -0.254874  0.608680  2.493992
C    1.253626  0.485846  2.823468
O    2.070721  0.841285  1.988090
H    -1.121779  1.656670  0.831212
H    0.581339  1.709021  0.953674
H    -0.809928  0.938693  3.380689
C    -0.894781  -0.700359  1.982149
C    -0.399618  -1.368837  0.672761
C    -1.045595  -0.840665  -0.633360
C    -1.340827  -1.879875  -1.720044
N    -0.111133  -2.419104  -2.444708
H    -1.982986  -0.539302  1.925473
H    -0.763096  -1.413739  2.808386
H    -0.663376  -2.431472  0.782978
H    0.698955  -1.336531  0.610020
H    -0.470962  -0.008344  -1.072973
H    -2.044173  -0.432344  -0.406593
H    -1.972842  -1.447529  -2.505130
H    -1.858507  -2.757315  -1.311791
H    0.412217  -1.672568  -2.925562
H    -0.392125  -3.099733  -3.168599
H    0.541364  -2.905926  -1.814698
O    1.548317  -0.005866  4.011337
H    -0.385089  2.662184  1.923102
Ca    2.940963  -0.245847  5.474499
