26
Energy: -32075.1357859 eV PBE+vdW (tier 2 basis)
N    0.825264  0.295004  -0.094029
C    0.423517  -0.058629  1.312673
C    1.686158  0.039562  2.187373
O    2.751856  0.474560  1.699060
H    0.845903  -0.571368  -0.646811
H    0.074340  0.847258  -0.521170
H    -0.232966  0.751246  1.678589
C    -0.319400  -1.412913  1.445425
C    -1.756655  -1.448073  0.880114
C    -2.365610  -2.861113  1.021679
C    -3.734465  -3.102268  0.374955
N    -4.924844  -2.708661  1.246065
H    -0.364934  -1.688795  2.511429
H    0.296105  -2.197819  0.974172
H    -1.756296  -1.168453  -0.185515
H    -2.367258  -0.694095  1.403076
H    -2.391890  -3.168958  2.079990
H    -1.692421  -3.583896  0.536195
H    -3.874407  -4.170884  0.174068
H    -3.859068  -2.562900  -0.572363
H    -5.811846  -2.927305  0.764812
H    -4.933539  -3.230737  2.135381
H    -4.947918  -1.705100  1.473034
O    1.691121  -0.267830  3.447819
H    0.839733  -0.594057  3.804180
Ca    3.135795  1.330968  -0.208289
