26
Energy: -32074.5633029 eV PBE+vdW (tier 2 basis)
N    0.391573  0.961620  0.569255
C    0.053275  0.182918  1.750663
C    1.191703  0.423065  2.744263
O    1.214683  1.427236  3.533408
H    1.256635  0.709982  0.093095
H    0.284876  1.970634  0.645246
H    -0.851344  0.617236  2.198945
C    -0.185995  -1.308400  1.446559
C    -1.477706  -1.622374  0.648784
C    -1.378387  -1.447967  -0.877978
C    -2.665625  -1.711464  -1.659562
N    -3.033832  -3.190063  -1.772611
H    -0.246483  -1.844108  2.406320
H    0.679417  -1.729875  0.901041
H    -2.301721  -1.005450  1.040591
H    -1.738650  -2.662700  0.897824
H    -0.562386  -2.066380  -1.287858
H    -1.106881  -0.409470  -1.113770
H    -2.570134  -1.359384  -2.693349
H    -3.537635  -1.219144  -1.210546
H    -3.211861  -3.626857  -0.857844
H    -3.890855  -3.309709  -2.334307
H    -2.290994  -3.731912  -2.238282
O    2.273810  -0.312782  2.758834
H    2.199396  -1.111162  2.192019
Ca    1.917100  2.643424  5.058802
