26
Energy: -32075.0972448 eV PBE+vdW (tier 2 basis)
N    0.450485  0.565331  0.390830
C    0.189571  -0.101731  1.714020
C    1.556192  -0.343192  2.381107
O    2.593042  0.129396  1.865321
H    0.326300  -0.136777  -0.349474
H    -0.293054  1.249647  0.217160
H    -0.302901  0.645794  2.362229
C    -0.703885  -1.365730  1.642915
C    -2.205618  -1.116737  1.372918
C    -3.017215  -2.417169  1.578511
C    -4.542267  -2.290632  1.675355
N    -5.274266  -2.309244  0.335910
H    -0.629914  -1.894529  2.607319
H    -0.279489  -2.064338  0.902746
H    -2.350566  -0.715774  0.356841
H    -2.573683  -0.349658  2.072961
H    -2.719401  -2.859403  2.541608
H    -2.744865  -3.175246  0.826335
H    -4.860620  -1.371944  2.183912
H    -4.954621  -3.141298  2.230664
H    -6.295134  -2.261883  0.483832
H    -5.024312  -1.519576  -0.274381
H    -5.089910  -3.179702  -0.185298
O    1.687485  -0.979444  3.503458
H    0.857677  -1.326212  3.890620
Ca    2.823274  1.446903  0.215497
