26
Energy: -32075.2219089 eV PBE+vdW (tier 2 basis)
N    0.772033  0.765200  0.396208
C    0.269763  0.108184  1.651696
C    1.434324  -0.697809  2.238546
O    2.595534  -0.519433  1.809622
H    0.230828  1.625198  0.248551
H    0.522200  0.172971  -0.405919
H    0.124343  0.922028  2.386141
C    -1.096307  -0.618859  1.549086
C    -1.193382  -1.884561  0.673663
C    -2.623035  -2.476088  0.718526
C    -2.760842  -3.737766  -0.137870
N    -4.168378  -4.314496  -0.072204
H    -1.823073  0.134221  1.207239
H    -1.424008  -0.849627  2.577673
H    -0.471539  -2.645986  1.010648
H    -0.938528  -1.652691  -0.373571
H    -3.341156  -1.714674  0.374741
H    -2.883636  -2.710309  1.763213
H    -2.091330  -4.541134  0.194329
H    -2.565594  -3.542847  -1.199827
H    -4.878507  -3.647913  -0.411704
H    -4.248141  -5.162595  -0.655237
H    -4.434591  -4.583319  0.887321
O    1.274799  -1.528371  3.224743
H    0.354202  -1.599209  3.551047
Ca    3.272095  0.991975  0.450614
