26
Energy: -32075.8820784 eV PBE+vdW (tier 2 basis)
N    0.268821  2.154095  0.968392
C    0.835419  0.794305  1.367031
C    1.134430  0.039121  0.059380
O    1.438130  -1.191915  0.079155
H    0.663485  2.437093  0.052483
H    0.482674  2.881439  1.666416
H    1.816075  1.006644  1.824157
C    -0.087263  0.095348  2.391701
C    0.625111  -0.826282  3.406797
C    -0.356318  -1.261333  4.518287
C    0.246900  -1.844317  5.798653
N    0.620150  -3.321999  5.712182
H    -0.883897  -0.448429  1.862216
H    -0.586506  0.892477  2.966703
H    1.462017  -0.272912  3.862263
H    1.059048  -1.691954  2.884941
H    -1.129714  -1.938027  4.120226
H    -0.909911  -0.374175  4.863317
H    -0.478307  -1.784188  6.618814
H    1.157394  -1.319320  6.114036
H    1.346188  -3.512037  5.008598
H    -0.198419  -3.906366  5.485905
H    0.984279  -3.655669  6.618634
O    1.117692  0.698210  -1.041818
H    -0.756362  2.123870  0.857091
Ca    1.809885  -1.123679  -2.142560
