26
Energy: -32074.6628648 eV PBE+vdW (tier 2 basis)
N    0.606946  0.549463  0.356393
C    -0.033747  0.299936  1.643894
C    1.234063  -0.068068  2.416930
O    2.031309  0.813694  2.874920
H    0.557161  -0.226349  -0.301817
H    0.338780  1.422075  -0.092235
H    -0.393095  1.251353  2.060320
C    -1.179663  -0.729586  1.618903
C    -2.005743  -0.887571  2.909758
C    -3.253712  -1.768757  2.678329
C    -4.127010  -1.871063  3.929273
N    -5.378328  -2.701963  3.676368
H    -0.809057  -1.713454  1.270508
H    -1.838511  -0.387465  0.805799
H    -2.325232  0.108118  3.255220
H    -1.395006  -1.317925  3.719869
H    -2.943172  -2.776475  2.358628
H    -3.844250  -1.339610  1.852854
H    -4.482338  -0.889388  4.266898
H    -3.606784  -2.356404  4.764456
H    -5.961720  -2.764747  4.524907
H    -5.966747  -2.295004  2.933824
H    -5.151113  -3.666705  3.392569
O    1.630236  -1.304692  2.549657
H    0.970848  -1.945204  2.206154
Ca    3.795002  1.789069  3.289005
