26
Energy: -32074.5088922 eV PBE+vdW (tier 2 basis)
N    0.193291  0.146803  0.475995
C    -0.082824  -0.179658  1.866364
C    1.283509  -0.354120  2.534550
O    1.949334  0.627501  3.008584
H    0.683448  -0.563729  -0.065662
H    0.566210  1.076229  0.295660
H    -0.554252  0.694563  2.337052
C    -0.990063  -1.411940  2.031022
C    -2.452393  -1.263617  1.542055
C    -2.673134  -1.384750  0.019888
C    -4.059091  -1.863728  -0.413238
N    -5.172940  -0.839841  -0.205007
H    -1.021872  -1.666720  3.101651
H    -0.547045  -2.283324  1.511566
H    -2.863072  -0.317975  1.930540
H    -3.011715  -2.066861  2.045872
H    -1.992585  -2.149255  -0.386483
H    -2.405916  -0.454420  -0.502561
H    -4.375638  -2.762803  0.131064
H    -4.072825  -2.091706  -1.485673
H    -4.992155  0.031105  -0.724886
H    -6.074311  -1.211224  -0.542892
H    -5.302910  -0.593785  0.785883
O    1.912605  -1.501724  2.548409
H    1.351774  -2.247351  2.241317
Ca    3.524756  1.536285  4.008947
