26
Energy: -32075.9884246 eV PBE+vdW (tier 2 basis)
N    -0.917682  0.502892  0.620675
C    -0.302517  0.407516  2.013256
C    0.959770  1.293839  1.995233
O    1.122115  2.098957  1.009686
H    -0.649195  1.411242  0.196210
H    -1.945071  0.431141  0.642231
H    -1.012008  0.916343  2.687068
C    -0.135550  -1.066610  2.448156
C    -0.002290  -1.245327  3.975361
C    0.194584  -2.700379  4.462923
C    -1.080626  -3.547014  4.486373
N    -0.840724  -4.885912  5.172931
H    0.733639  -1.503859  1.932157
H    -1.025699  -1.606375  2.085985
H    -0.879523  -0.805673  4.476145
H    0.865213  -0.672338  4.325290
H    0.591326  -2.636012  5.487831
H    0.970404  -3.199717  3.861017
H    -1.461228  -3.790639  3.486867
H    -1.883626  -3.061050  5.055161
H    -1.700419  -5.456055  5.195628
H    -0.533451  -4.763641  6.150094
H    -0.118222  -5.444559  4.694267
O    1.782828  1.270104  2.959408
H    -0.566423  -0.237645  -0.005233
Ca    2.930372  2.962774  2.038282
