26
Energy: -32075.7490946 eV PBE+vdW (tier 2 basis)
N    1.882424  -1.532712  -0.036597
C    0.733004  -1.098083  0.868900
C    1.367491  -0.355633  2.059886
O    2.621283  -0.088179  2.017913
H    1.602574  -1.578039  -1.027046
H    2.673645  -0.870638  0.063378
H    0.164429  -0.350318  0.294153
C    -0.149271  -2.316743  1.234525
C    -1.631145  -2.053923  1.590518
C    -2.536730  -1.700400  0.386069
C    -3.957307  -2.272178  0.411921
N    -4.892905  -1.620794  1.426546
H    0.327194  -2.854895  2.067049
H    -0.129586  -3.006337  0.374776
H    -1.698254  -1.294097  2.381879
H    -1.979915  -2.995082  2.042431
H    -2.109935  -2.130336  -0.534166
H    -2.575876  -0.614230  0.207875
H    -3.963273  -3.344714  0.644638
H    -4.444420  -2.132643  -0.560633
H    -5.007339  -0.611645  1.251368
H    -5.833599  -2.042551  1.369219
H    -4.572178  -1.738642  2.397593
O    0.655783  0.002829  3.046819
H    2.240040  -2.464542  0.225875
Ca    2.460867  0.955525  3.998109
