26
Energy: -32075.8468888 eV PBE+vdW (tier 2 basis)
N    -0.221042  0.127476  0.253295
C    0.024210  -0.018099  1.752389
C    0.849856  1.209702  2.184054
O    1.014335  2.163466  1.342496
H    -0.211668  1.132918  -0.000629
H    -1.118037  -0.286892  -0.038134
H    -0.962968  0.087547  2.229284
C    0.651696  -1.398055  2.063565
C    0.460828  -1.947329  3.497668
C    -0.923874  -2.569831  3.762556
C    -1.131949  -3.174733  5.155257
N    -0.492939  -4.549173  5.336081
H    1.726612  -1.350234  1.836595
H    0.221163  -2.123309  1.353765
H    0.674489  -1.162146  4.236966
H    1.250339  -2.702947  3.628502
H    -1.163439  -3.324352  2.994799
H    -1.712094  -1.806277  3.671779
H    -2.199110  -3.326913  5.354765
H    -0.723089  -2.543288  5.954052
H    -0.869470  -5.236456  4.665839
H    -0.687291  -4.916938  6.280870
H    0.530580  -4.535407  5.226155
O    1.324383  1.285099  3.357750
H    0.523101  -0.326358  -0.299052
Ca    2.126379  3.336529  2.905331
