26
Energy: -32074.8593034 eV PBE+vdW (tier 2 basis)
N    0.707014  -0.134955  0.272372
C    0.511676  -0.258658  1.761458
C    1.771020  -0.923957  2.340723
O    2.679377  -1.326615  1.582007
H    -0.049697  -0.647805  -0.193201
H    0.561352  0.841384  -0.004275
H    0.494366  0.757811  2.190417
C    -0.785050  -1.016415  2.179488
C    -2.069127  -0.199339  2.457882
C    -2.796954  0.417441  1.246198
C    -4.308152  0.621651  1.413080
N    -4.710991  1.697858  2.417125
H    -0.573138  -1.581971  3.099043
H    -0.985667  -1.798150  1.427345
H    -1.845256  0.570576  3.213841
H    -2.749058  -0.912693  2.949687
H    -2.729948  -0.268331  0.386075
H    -2.326324  1.359091  0.919791
H    -4.804465  -0.298352  1.747651
H    -4.762776  0.925930  0.462761
H    -5.739592  1.785860  2.450531
H    -4.402265  1.486878  3.376686
H    -4.342232  2.626365  2.163587
O    1.952690  -1.072108  3.617404
H    1.237266  -0.730507  4.192384
Ca    2.968212  -1.038353  -0.498786
