26
Energy: -603672.726886 eV PBE+vdW (tier 2 basis)
N    0.981855  0.468828  0.791942
C    1.080917  -0.347572  1.985306
C    2.313032  -1.124047  1.511821
O    3.493321  -0.660075  1.707604
H    1.118041  1.471020  0.886075
H    0.295898  0.206836  0.088568
H    1.394634  0.270074  2.837149
C    -0.185103  -1.144896  2.345318
C    -0.111081  -1.922909  3.671882
C    -1.392333  -2.697150  4.064861
C    -2.536056  -1.810225  4.563565
N    -3.692803  -2.647333  5.094755
H    -0.468376  -1.819688  1.514970
H    -0.983365  -0.387538  2.375842
H    0.161490  -1.233715  4.486507
H    0.700333  -2.665253  3.625484
H    -1.112320  -3.397869  4.866449
H    -1.735338  -3.312870  3.218020
H    -2.965813  -1.174667  3.779824
H    -2.223873  -1.169085  5.397712
H    -4.463867  -2.050101  5.431263
H    -4.084588  -3.270663  4.372907
H    -3.402951  -3.241844  5.886196
O    2.245868  -2.219121  0.799606
H    1.333139  -2.567966  0.714471
Pb    5.616615  -0.850582  1.185883
