26
Energy: -603674.083983 eV PBE+vdW (tier 2 basis)
N    -0.233476  0.128420  0.246916
C    0.017248  -0.012863  1.746410
C    0.855090  1.199612  2.185535
O    1.077002  2.133646  1.339529
H    -0.369418  1.120034  -0.014345
H    -1.063813  -0.405615  -0.050591
H    -0.968760  0.096758  2.225361
C    0.639217  -1.398860  2.051824
C    0.454365  -1.950430  3.486607
C    -0.926719  -2.579556  3.755944
C    -1.133783  -3.174584  5.153603
N    -0.488376  -4.543768  5.350584
H    1.712492  -1.357173  1.816179
H    0.199558  -2.118582  1.341923
H    0.667633  -1.165854  4.226801
H    1.247911  -2.702337  3.613027
H    -1.160953  -3.341235  2.993780
H    -1.719623  -1.821498  3.659245
H    -2.200918  -3.330789  5.350235
H    -0.732301  -2.533411  5.948365
H    -0.857058  -5.239901  4.685085
H    -0.687513  -4.903117  6.297739
H    0.535863  -4.526461  5.248155
O    1.287345  1.272130  3.377787
H    0.567735  -0.215151  -0.306492
Pb    2.242254  3.414584  2.976792
