26
Energy: -603674.383856 eV PBE+vdW (tier 2 basis)
N    2.180803  -2.559596  0.500570
C    1.155366  -1.464991  0.784961
C    1.796661  -0.487681  1.783271
O    1.096393  0.420081  2.328683
H    3.140298  -2.171587  0.521549
H    2.145684  -3.310201  1.208101
H    1.054435  -0.903060  -0.159020
C    -0.205407  -2.086298  1.176057
C    -1.427955  -1.184706  0.904896
C    -2.755503  -1.940110  1.139590
C    -3.965291  -1.065910  0.799659
N    -5.278197  -1.814320  0.984902
H    -0.177569  -2.401089  2.230467
H    -0.316386  -3.005326  0.577257
H    -1.391064  -0.832153  -0.138010
H    -1.386765  -0.291510  1.543694
H    -2.816406  -2.268113  2.189443
H    -2.773923  -2.849021  0.516670
H    -3.954536  -0.734630  -0.246357
H    -4.030916  -0.178554  1.441404
H    -6.083063  -1.211849  0.751917
H    -5.339151  -2.645792  0.378025
H    -5.410755  -2.133084  1.956433
O    3.055023  -0.579544  2.005252
H    2.022566  -2.996151  -0.420087
Pb    3.012660  1.362195  3.376673
