26
Energy: -603674.148221 eV PBE+vdW (tier 2 basis)
N    -0.189091  1.667529  1.662692
C    -0.150054  0.474791  2.615293
C    1.330593  0.114526  2.835542
O    1.629622  -0.937656  3.480239
H    -0.245174  1.369362  0.676702
H    -0.989422  2.288759  1.847324
H    -0.509108  0.855434  3.586240
C    -1.033354  -0.694100  2.141461
C    -2.547104  -0.389282  2.101689
C    -3.392785  -1.551561  1.521463
C    -3.841363  -2.660489  2.484282
N    -5.235936  -2.422305  3.058870
H    -0.820744  -1.527778  2.826478
H    -0.687188  -1.024811  1.147856
H    -2.738750  0.486315  1.462288
H    -2.896357  -0.107289  3.108453
H    -2.829956  -2.040293  0.713296
H    -4.275810  -1.132169  1.015584
H    -3.175816  -2.787539  3.347101
H    -3.910365  -3.624959  1.968291
H    -5.507095  -3.184990  3.699371
H    -5.309562  -1.541890  3.587925
H    -5.948313  -2.392390  2.313084
O    2.231064  0.915458  2.407827
H    0.684791  2.216518  1.761446
Pb    3.941274  -0.437191  3.407202
