26
Energy: -603673.645803 eV PBE+vdW (tier 2 basis)
N    0.034809  0.476038  0.267664
C    0.007603  0.120794  1.724272
C    1.456721  0.062428  2.243075
O    2.429793  0.413411  1.529563
H    -0.161051  -0.362239  -0.294055
H    -0.723372  1.132441  0.052645
H    -0.438318  0.981165  2.255712
C    -0.820211  -1.153427  2.044817
C    -2.342605  -1.000359  1.839038
C    -3.120139  -2.248940  2.316913
C    -4.631443  -2.076100  2.132814
N    -5.410453  -3.285762  2.629158
H    -0.643557  -1.424638  3.098258
H    -0.422939  -1.997055  1.456405
H    -2.569864  -0.818903  0.776591
H    -2.696616  -0.116413  2.393114
H    -2.897629  -2.429720  3.380785
H    -2.776148  -3.135691  1.761207
H    -4.909375  -1.951700  1.078681
H    -5.020291  -1.217641  2.694926
H    -6.425019  -3.149818  2.494762
H    -5.153625  -4.149156  2.126881
H    -5.261779  -3.459319  3.634931
O    1.739581  -0.301259  3.452711
H    0.975358  -0.562787  4.007142
Pb    2.314648  1.356982  -0.509009
