26
Energy: -603672.679739 eV PBE+vdW (tier 2 basis)
N    1.946308  -0.076183  0.728483
C    0.667355  -0.186137  1.392556
C    0.287524  1.276140  1.653877
O    -0.282903  1.980670  0.748464
H    2.752054  0.244870  1.260363
H    1.969893  0.168787  -0.257180
H    -0.067077  -0.579976  0.677542
C    0.725791  -1.053430  2.666074
C    1.148256  -2.524210  2.429356
C    0.032990  -3.446600  1.905995
C    0.459165  -4.881788  1.586215
N    0.723756  -5.741456  2.819932
H    -0.249316  -1.011917  3.175777
H    1.467933  -0.621566  3.362687
H    1.522136  -2.890190  3.397650
H    2.008119  -2.544823  1.743032
H    -0.368289  -3.063221  0.955272
H    -0.823285  -3.458063  2.600279
H    1.379287  -4.921545  0.989517
H    -0.329248  -5.405919  1.033478
H    -0.107543  -5.806991  3.425944
H    0.970496  -6.704584  2.543493
H    1.501734  -5.387573  3.393700
O    0.640351  1.924478  2.735190
H    1.009085  1.339580  3.433617
Pb    -1.060044  4.029151  0.407218
