26
Energy: -603672.734139 eV PBE+vdW (tier 2 basis)
N    -0.315211  -1.539983  -0.297539
C    -0.152018  -0.546110  0.733492
C    1.383722  -0.544983  0.778311
O    2.061331  0.181465  -0.030206
H    -0.462738  -2.511525  -0.043590
H    -0.642316  -1.267586  -1.217598
H    -0.459139  0.437891  0.354458
C    -0.844500  -0.845834  2.074520
C    -2.386000  -0.767628  1.996325
C    -3.043666  -1.219618  3.315951
C    -4.562422  -1.404354  3.301477
N    -5.354801  -0.103860  3.410876
H    -0.471443  -0.140357  2.833587
H    -0.568376  -1.861140  2.417603
H    -2.742431  -1.407832  1.175018
H    -2.673047  0.265077  1.740362
H    -2.753064  -0.557669  4.148180
H    -2.649205  -2.210470  3.589586
H    -4.881723  -2.005293  4.161131
H    -4.918686  -1.900410  2.389790
H    -5.186465  0.535106  2.622095
H    -6.368195  -0.298110  3.429771
H    -5.131014  0.404250  4.279421
O    2.081786  -1.351492  1.535835
H    1.538722  -1.841696  2.190094
Pb    4.130680  0.627877  -0.651055
