26
Energy: -603672.677018 eV PBE+vdW (tier 2 basis)
N    2.301569  0.232765  0.177968
C    1.706290  0.114305  1.494286
C    2.211086  -1.309102  1.743409
O    3.376649  -1.510663  2.240679
H    1.700216  0.097546  -0.630910
H    3.021739  0.936763  0.043240
H    2.230547  0.770133  2.201898
C    0.192297  0.384629  1.560989
C    -0.425955  0.321198  2.973690
C    -1.676291  1.204316  3.195892
C    -2.938711  0.745549  2.465096
N    -4.134961  1.605179  2.855108
H    -0.347995  -0.266780  0.849434
H    0.087890  1.400951  1.148995
H    0.318357  0.674262  3.702824
H    -0.653721  -0.718396  3.257128
H    -1.438049  2.242478  2.913681
H    -1.875270  1.213236  4.278863
H    -3.214815  -0.285230  2.721764
H    -2.859221  0.824448  1.373702
H    -4.992550  1.303913  2.367154
H    -4.327753  1.554002  3.867227
H    -3.987248  2.599512  2.624429
O    1.557945  -2.381196  1.376770
H    0.656132  -2.188352  1.043865
Pb    4.978669  -2.951239  2.646716
