26
Energy: -603672.684779 eV PBE+vdW (tier 2 basis)
N    0.415663  0.971452  0.568521
C    0.030539  0.197805  1.730964
C    1.147455  0.463567  2.751131
O    1.119476  1.502101  3.498864
H    1.268669  0.706392  0.079838
H    0.264770  1.977119  0.595494
H    -0.884464  0.636380  2.152059
C    -0.191077  -1.298903  1.441138
C    -1.477214  -1.634294  0.642157
C    -1.386128  -1.452221  -0.884255
C    -2.675025  -1.724991  -1.662183
N    -3.030351  -3.205596  -1.785540
H    -0.255733  -1.821562  2.407978
H    0.683160  -1.717387  0.908200
H    -2.313091  -1.037640  1.040194
H    -1.714753  -2.681036  0.887386
H    -0.565210  -2.059644  -1.300461
H    -1.128320  -0.409777  -1.120084
H    -2.586880  -1.363994  -2.693568
H    -3.549637  -1.243775  -1.206227
H    -3.205083  -3.651961  -0.874613
H    -3.887436  -3.326989  -2.347299
H    -2.284806  -3.738763  -2.257202
O    2.235843  -0.258264  2.824291
H    2.192477  -1.082645  2.291592
Pb    2.189133  2.521544  5.151166
