26
Energy: -603673.278373 eV PBE+vdW (tier 2 basis)
N    0.145662  -0.786084  0.083192
C    0.363378  -0.136233  1.417481
C    1.870026  -0.109283  1.717117
O    2.694034  -0.781822  1.048984
H    -0.580782  -1.507119  0.159188
H    -0.217852  -0.103245  -0.591422
H    0.039167  0.915344  1.345862
C    -0.406665  -0.858810  2.563963
C    -1.938506  -0.634004  2.624373
C    -2.370419  0.687500  3.290495
C    -3.881665  0.941393  3.379427
N    -4.581867  0.194206  4.510909
H    0.037763  -0.565851  3.527422
H    -0.196322  -1.936875  2.476644
H    -2.338876  -1.493089  3.183888
H    -2.386886  -0.706741  1.619875
H    -1.980554  1.546861  2.722489
H    -1.921805  0.774861  4.293906
H    -4.410891  0.662987  2.459321
H    -4.078335  2.002303  3.573629
H    -5.585793  0.436407  4.532745
H    -4.526894  -0.829931  4.418681
H    -4.197012  0.445786  5.434264
O    2.360468  0.597298  2.686579
H    1.720547  1.146095  3.185590
Pb    2.284591  -1.829686  -0.898333
