26
Energy: -603673.439363 eV PBE+vdW (tier 2 basis)
N    0.805062  0.318043  -0.088869
C    0.420816  -0.042733  1.315461
C    1.672773  0.024190  2.208449
O    2.807237  0.303695  1.747065
H    0.679538  -0.496604  -0.701602
H    0.171620  1.036413  -0.455905
H    -0.243867  0.755093  1.690613
C    -0.306871  -1.413125  1.423005
C    -1.758403  -1.440314  0.892958
C    -2.355029  -2.861499  1.010449
C    -3.727414  -3.101074  0.368256
N    -4.917655  -2.753155  1.258154
H    -0.313075  -1.724067  2.479466
H    0.305868  -2.173335  0.909166
H    -1.788379  -1.129153  -0.163590
H    -2.359397  -0.705801  1.452969
H    -2.369630  -3.190788  2.062384
H    -1.680258  -3.568781  0.504761
H    -3.852307  -4.165162  0.135888
H    -3.867142  -2.536052  -0.561852
H    -5.803536  -2.976058  0.776280
H    -4.911328  -3.299405  2.133008
H    -4.959719  -1.756614  1.512216
O    1.611327  -0.179678  3.486096
H    0.721470  -0.374101  3.846955
Pb    3.254576  1.064808  -0.319869
