26
Energy: -603674.240000 eV PBE+vdW (tier 2 basis)
N    -0.931732  0.501635  0.620279
C    -0.305017  0.410468  2.009248
C    0.958969  1.289361  1.993202
O    1.137661  2.082562  1.004642
H    -0.767686  1.439893  0.213603
H    -1.947673  0.328973  0.649031
H    -1.011216  0.920835  2.686021
C    -0.138318  -1.065807  2.443090
C    -0.008956  -1.246904  3.970955
C    0.190981  -2.702247  4.458208
C    -1.082735  -3.551673  4.486477
N    -0.840964  -4.885975  5.181225
H    0.730944  -1.502428  1.927015
H    -1.028141  -1.603787  2.077551
H    -0.888275  -0.809541  4.469897
H    0.856654  -0.673251  4.324824
H    0.590221  -2.635209  5.481926
H    0.966684  -3.200763  3.855629
H    -1.462444  -3.802018  3.488310
H    -1.886821  -3.063944  5.052178
H    -1.698975  -5.458913  5.201834
H    -0.540079  -4.758194  6.159744
H    -0.114078  -5.445056  4.709615
O    1.769687  1.261964  2.970351
H    -0.518972  -0.182806  -0.032433
Pb    3.066279  3.024827  2.050579
