26
Energy: -603672.555957 eV PBE+vdW (tier 2 basis)
N    -0.296013  -0.220205  0.146882
C    -0.812372  -0.152187  1.495347
C    0.237501  0.820575  2.042641
O    0.055513  2.085818  1.946518
H    -0.900322  0.082524  -0.610992
H    0.337447  -0.973291  -0.103026
H    -1.755921  0.408033  1.481553
C    -1.079454  -1.482083  2.239147
C    0.074873  -2.498939  2.367719
C    -0.364349  -3.978006  2.513501
C    -1.082501  -4.311691  3.822611
N    -1.376991  -5.803154  3.917035
H    -1.899454  -1.938480  1.662636
H    -1.500313  -1.239768  3.226632
H    0.727066  -2.253528  3.226867
H    0.711743  -2.483927  1.468611
H    0.541064  -4.598835  2.431088
H    -1.005358  -4.240185  1.656777
H    -2.052403  -3.809087  3.921728
H    -0.473478  -4.070094  4.703124
H    -1.858930  -6.035445  4.799285
H    -1.981159  -6.128171  3.146885
H    -0.514115  -6.367748  3.885719
O    1.393738  0.448180  2.524841
H    1.465269  -0.525288  2.631925
Pb    0.833529  4.122525  2.157729
