26
Energy: -603672.813947 eV PBE+vdW (tier 2 basis)
N    0.741420  -0.119098  0.264786
C    0.512969  -0.231285  1.742647
C    1.746488  -0.883447  2.386196
O    2.626654  -1.465621  1.704122
H    -0.086768  -0.447640  -0.242346
H    0.861650  0.863466  -0.006797
H    0.447538  0.786640  2.161196
C    -0.776634  -1.037662  2.113470
C    -2.071215  -0.251518  2.432168
C    -2.796847  0.432292  1.255410
C    -4.310291  0.625402  1.425738
N    -4.725184  1.663023  2.464702
H    -0.556043  -1.651725  2.998759
H    -0.962349  -1.773639  1.313111
H    -1.861986  0.470376  3.237938
H    -2.744492  -1.003066  2.873648
H    -2.728012  -0.205939  0.359234
H    -2.325754  1.390484  0.982191
H    -4.804994  -0.308345  1.722349
H    -4.760044  0.962534  0.484199
H    -5.754821  1.743723  2.493050
H    -4.423782  1.421083  3.419289
H    -4.361405  2.602595  2.246639
O    1.927152  -0.881156  3.669059
H    1.255933  -0.404777  4.200957
Pb    2.833098  -1.414063  -0.530440
