26
Energy: -603673.558618 eV PBE+vdW (tier 2 basis)
N    0.405180  -0.374008  -0.131822
C    0.632720  -0.672504  1.323188
C    2.016039  -1.309558  1.475491
O    2.611682  -1.842153  0.506407
H    -0.542726  -0.663939  -0.401241
H    0.423976  0.642310  -0.283235
H    0.639112  0.282175  1.874094
C    -0.507905  -1.575775  1.892862
C    -0.527359  -1.771988  3.424109
C    -1.833973  -2.452151  3.900589
C    -1.844536  -2.639299  5.421699
N    -3.129383  -3.292263  5.909868
H    -0.482883  -2.552964  1.384767
H    -1.443907  -1.078193  1.592852
H    -0.435548  -0.792777  3.922725
H    0.325636  -2.390725  3.743713
H    -1.941236  -3.429689  3.404508
H    -2.695796  -1.837105  3.597060
H    -1.772893  -1.683216  5.955555
H    -1.028924  -3.288116  5.765061
H    -3.115885  -3.406935  6.935943
H    -3.963843  -2.730476  5.681951
H    -3.269511  -4.230397  5.504909
O    2.622557  -1.352824  2.622418
H    2.171972  -0.874169  3.348746
Pb    2.126425  -1.455845  -1.667792
