26
Energy: -603673.469114 eV PBE+vdW (tier 2 basis)
N    -0.225795  2.107414  2.053663
C    -0.505100  0.658392  2.440165
C    0.614012  0.197217  3.388586
O    1.355580  1.084972  3.936843
H    -1.095689  2.610512  1.821987
H    0.401198  2.177642  1.238185
H    -1.398802  0.702989  3.086200
C    -0.852482  -0.229606  1.229394
C    0.262937  -0.488936  0.198469
C    -0.223843  -1.047162  -1.162209
C    -0.735913  -2.489657  -1.125630
N    -1.064567  -2.988370  -2.526987
H    -1.726926  0.232364  0.742702
H    -1.219940  -1.173754  1.655801
H    1.022929  -1.159961  0.626335
H    0.795067  0.444664  -0.048505
H    0.628768  -0.989393  -1.856170
H    -1.003635  -0.384612  -1.570936
H    -1.659075  -2.606993  -0.544897
H    0.015286  -3.184138  -0.728587
H    -1.798700  -2.422193  -2.979228
H    -1.403610  -3.962927  -2.507955
H    -0.239725  -2.967599  -3.146478
O    0.720914  -1.032246  3.687440
H    0.240069  2.599699  2.836691
Pb    2.309456  -0.553700  5.386135
