26
Energy: -603674.022096 eV PBE+vdW (tier 2 basis)
N    1.540628  0.367340  0.257732
C    1.259625  -0.359983  1.570472
C    2.139038  -1.623999  1.582982
O    3.013886  -1.770844  0.660963
H    1.345223  1.376893  0.330084
H    0.963973  -0.004277  -0.513880
H    1.650651  0.295352  2.365942
C    -0.262448  -0.590633  1.742203
C    -0.739042  -0.865641  3.190242
C    -0.973865  0.384132  4.070903
C    -2.353818  1.048107  3.979248
N    -3.401259  0.375691  4.862492
H    -0.563893  -1.423768  1.090380
H    -0.774535  0.303870  1.350681
H    -0.024798  -1.530961  3.691389
H    -1.661409  -1.460141  3.109820
H    -0.242853  1.171804  3.831695
H    -0.762257  0.137398  5.122707
H    -2.770118  1.045078  2.963666
H    -2.314273  2.087500  4.325618
H    -4.314753  0.848520  4.773799
H    -3.138387  0.418732  5.859149
H    -3.551900  -0.615489  4.626316
O    2.015045  -2.476438  2.516397
H    2.528769  0.241292  -0.024015
Pb    3.809768  -3.784536  1.671014
