26
Energy: -603674.298944 eV PBE+vdW (tier 2 basis)
N    -0.340009  -0.075943  0.014643
C    0.991288  -0.323259  0.720287
C    2.054038  -0.547465  -0.370069
O    1.754721  -0.285330  -1.585802
H    -0.957870  0.544138  0.557629
H    -0.852239  -0.954420  -0.158800
H    1.258497  0.637148  1.193300
C    0.903468  -1.425947  1.792595
C    -0.025364  -1.063749  2.971193
C    -0.185861  -2.145629  4.067633
C    0.974860  -2.225607  5.062872
N    0.634643  -3.147053  6.227249
H    1.935400  -1.587408  2.135512
H    0.585819  -2.370008  1.319491
H    -1.043766  -0.872914  2.598555
H    0.308895  -0.120079  3.431405
H    -0.358600  -3.129791  3.604281
H    -1.105210  -1.898474  4.620433
H    1.197184  -1.249087  5.511637
H    1.897601  -2.624978  4.624721
H    1.412902  -3.200823  6.902689
H    0.434501  -4.110116  5.917459
H    -0.193108  -2.816621  6.747216
O    3.220075  -0.927223  -0.040975
H    -0.167025  0.358917  -0.910005
Pb    4.011161  -0.716276  -2.262150
