26
Energy: -603674.172877 eV PBE+vdW (tier 2 basis)
N    -0.298063  0.611539  0.067220
C    0.438269  0.564878  1.402348
C    1.797506  -0.117836  1.169039
O    2.504877  -0.463681  2.165443
H    -0.793550  -0.269269  -0.135566
H    0.376262  0.760339  -0.704222
H    0.702480  1.614417  1.618855
C    -0.427961  0.053158  2.568974
C    -0.981623  -1.379781  2.458165
C    -1.627848  -1.929501  3.755303
C    -2.990660  -1.324574  4.106102
N    -3.615962  -2.032108  5.301264
H    -1.235821  0.786607  2.714907
H    0.213707  0.140172  3.458559
H    -0.163343  -2.071624  2.207869
H    -1.717151  -1.463560  1.640073
H    -0.928388  -1.794546  4.595385
H    -1.746585  -3.015123  3.617366
H    -3.712175  -1.431845  3.285978
H    -2.935893  -0.265187  4.385063
H    -3.031151  -1.957532  6.147562
H    -3.763626  -3.036985  5.119850
H    -4.537276  -1.629193  5.534111
O    2.229713  -0.232021  -0.029689
H    -0.991872  1.374072  0.045156
Pb    4.368133  -0.935816  0.779883
