26
Energy: -603674.258881 eV PBE+vdW (tier 2 basis)
N    -0.359537  1.736275  1.657201
C    -0.095283  0.698386  2.744648
C    1.430423  0.585432  2.913690
O    1.909356  -0.327808  3.655213
H    0.393788  2.447628  1.661268
H    -0.364617  1.312282  0.716867
H    -0.459307  1.151285  3.682661
C    -0.818321  -0.635497  2.491752
C    -2.355544  -0.567182  2.610224
C    -3.011215  -1.962439  2.498666
C    -4.532997  -1.879906  2.648969
N    -5.190896  -3.250192  2.567200
H    -0.419251  -1.334261  3.241583
H    -0.513963  -1.037719  1.511126
H    -2.778853  0.085521  1.828706
H    -2.624574  -0.116482  3.578947
H    -2.596636  -2.619665  3.279421
H    -2.756824  -2.414733  1.526997
H    -4.996495  -1.277072  1.857885
H    -4.830153  -1.461793  3.619043
H    -4.861132  -3.884362  3.310491
H    -6.215170  -3.173550  2.669047
H    -5.011681  -3.715004  1.664301
O    2.182027  1.452505  2.349960
H    -1.261843  2.214586  1.790227
Pb    4.108697  0.493764  3.413908
