26
Energy: -603673.194652 eV PBE+vdW (tier 2 basis)
N    1.909275  -1.111466  0.735647
C    0.632616  -0.460291  1.184438
C    0.958601  0.405736  2.414193
O    2.135301  0.743287  2.690535
H    1.948614  -2.072140  1.102753
H    1.905877  -1.215857  -0.285418
H    0.353077  0.264391  0.399372
C    -0.522075  -1.485521  1.398650
C    -1.985168  -0.974376  1.256882
C    -2.525049  -0.997309  -0.188685
C    -3.962560  -0.499680  -0.392033
N    -5.042123  -1.517650  -0.035329
H    -0.391065  -1.958912  2.383365
H    -0.375091  -2.289008  0.661690
H    -2.112960  0.049716  1.653855
H    -2.597142  -1.615411  1.908011
H    -2.417736  -2.009265  -0.612233
H    -1.910113  -0.348798  -0.831680
H    -4.133392  -0.261346  -1.448449
H    -4.187567  0.399724  0.195276
H    -5.037787  -1.787520  0.958455
H    -5.978825  -1.129104  -0.232365
H    -4.956598  -2.380694  -0.593777
O    0.030866  0.856124  3.199149
H    -0.873892  0.556648  2.969302
Pb    4.000252  0.080987  1.594906
