26
Energy: -603673.658818 eV PBE+vdW (tier 2 basis)
N    1.888132  -1.540581  -0.046440
C    0.738385  -1.099940  0.857105
C    1.355813  -0.361768  2.054955
O    2.615899  -0.135408  2.055619
H    1.566276  -1.713751  -1.010720
H    2.636466  -0.827214  -0.073386
H    0.172004  -0.353705  0.277705
C    -0.144744  -2.321767  1.218527
C    -1.625266  -2.061410  1.583231
C    -2.537551  -1.693874  0.387978
C    -3.959493  -2.263834  0.415501
N    -4.894105  -1.616265  1.433338
H    0.336135  -2.867395  2.043727
H    -0.127311  -3.003969  0.352724
H    -1.689530  -1.311591  2.384389
H    -1.970517  -3.008129  2.026093
H    -2.117149  -2.115081  -0.539243
H    -2.575679  -0.605805  0.221488
H    -3.966377  -3.337524  0.642871
H    -4.447293  -2.119458  -0.556015
H    -5.009044  -0.606272  1.262687
H    -5.834990  -2.037716  1.373694
H    -4.574706  -1.738485  2.404356
O    0.614609  0.028109  3.010029
H    2.324487  -2.413036  0.292745
Pb    2.472551  1.016869  4.130040
