26
Energy: -603673.440639 eV PBE+vdW (tier 2 basis)
N    0.859330  0.693062  0.067428
C    0.716449  0.394124  1.531083
C    1.746409  1.250080  2.287710
O    2.328949  2.218642  1.740436
H    1.441290  -0.029575  -0.376614
H    -0.056291  0.621905  -0.390924
H    -0.263025  0.801623  1.840609
C    0.751981  -1.133726  1.857398
C    -0.038132  -1.540946  3.124334
C    0.083254  -3.024933  3.555010
C    -0.780830  -4.002354  2.751245
N    -0.771040  -5.388393  3.382347
H    1.798768  -1.470550  1.920999
H    0.312654  -1.645804  0.988701
H    -1.098669  -1.271916  2.998538
H    0.285384  -0.961244  4.006680
H    -0.228265  -3.069496  4.609908
H    1.138296  -3.339789  3.529701
H    -0.435614  -4.141860  1.719566
H    -1.833705  -3.693419  2.727688
H    -1.354736  -6.047782  2.843716
H    0.177215  -5.791956  3.427990
H    -1.143276  -5.375379  4.344916
O    2.031811  1.037679  3.533042
H    1.553996  0.280154  3.933849
Pb    2.014673  2.928710  -0.381038
