26
Energy: -603672.812213 eV PBE+vdW (tier 2 basis)
N    -0.137727  -0.259246  -0.277014
C    -0.160896  0.058158  1.129731
C    1.357222  0.095974  1.354619
O    2.024843  1.164400  1.123004
H    -0.224599  -1.226554  -0.572534
H    -0.438467  0.434250  -0.953037
H    -0.527278  1.083603  1.273342
C    -0.939915  -0.913996  2.034027
C    -2.464797  -0.809670  1.821026
C    -3.264513  -1.795582  2.698352
C    -4.769279  -1.634862  2.471461
N    -5.582341  -2.595671  3.328380
H    -0.693511  -0.694834  3.084998
H    -0.618468  -1.953968  1.835785
H    -2.700809  -0.987776  0.761167
H    -2.784049  0.220039  2.045068
H    -3.029280  -1.621043  3.760540
H    -2.963028  -2.829602  2.465596
H    -5.056234  -1.841928  1.432850
H    -5.121226  -0.628762  2.731852
H    -5.418180  -2.448489  4.335451
H    -6.593651  -2.472284  3.165163
H    -5.360465  -3.580891  3.121333
O    2.064267  -0.957174  1.672365
H    1.517016  -1.736509  1.909548
Pb    4.058234  2.005906  1.066917
