26
Energy: -603672.800832 eV PBE+vdW (tier 2 basis)
N    0.546630  0.527350  0.332060
C    -0.087921  0.310342  1.620735
C    1.228078  0.012936  2.339010
O    1.947297  0.966070  2.813212
H    0.502426  -0.228198  -0.347946
H    0.477779  1.454278  -0.078996
H    -0.473347  1.259658  2.015208
C    -1.192365  -0.759314  1.623517
C    -2.027594  -0.886781  2.911578
C    -3.265121  -1.786534  2.693389
C    -4.146993  -1.864280  3.940571
N    -5.391809  -2.707939  3.699372
H    -0.785651  -1.744019  1.324048
H    -1.851403  -0.468629  0.790222
H    -2.360674  0.115154  3.224299
H    -1.418584  -1.287499  3.737495
H    -2.942796  -2.799163  2.402260
H    -3.853487  -1.384095  1.853030
H    -4.509981  -0.876803  4.252241
H    -3.629569  -2.326514  4.790477
H    -5.979018  -2.755481  4.546467
H    -5.979583  -2.320908  2.945576
H    -5.158153  -3.677611  3.438118
O    1.749083  -1.184131  2.422522
H    1.148640  -1.887956  2.095765
Pb    3.923236  1.523344  3.577154
