26
Energy: -603674.030067 eV PBE+vdW (tier 2 basis)
N    -0.355773  1.573308  3.856646
C    -0.167629  0.110466  3.459290
C    1.345473  -0.125799  3.294869
O    1.758296  -1.238078  2.842589
H    -0.474712  2.180425  3.030698
H    -1.173611  1.713387  4.466326
H    -0.468410  -0.482210  4.339099
C    -1.004930  -0.270805  2.223079
C    -2.541492  -0.269048  2.416959
C    -3.143790  -1.534213  3.076998
C    -3.586005  -2.655889  2.129501
N    -4.970827  -2.424149  1.530572
H    -0.656284  -1.264981  1.908021
H    -0.734082  0.409509  1.399643
H    -2.981582  -0.106966  1.421457
H    -2.859183  0.615791  2.989471
H    -3.990394  -1.253915  3.722082
H    -2.419526  -1.993688  3.766702
H    -3.661584  -3.610874  2.662555
H    -2.906858  -2.794496  1.278666
H    -5.031186  -1.560317  0.972671
H    -5.235588  -3.203029  0.906775
H    -5.695593  -2.369169  2.262776
O    2.158179  0.791447  3.659527
H    0.488509  1.908578  4.356082
Pb    4.025587  -0.622287  3.138948
