26
Energy: -603672.645536 eV PBE+vdW (tier 2 basis)
N    0.228275  0.132551  0.463749
C    -0.099455  -0.162333  1.843540
C    1.262392  -0.296253  2.542006
O    1.886060  0.735396  2.972468
H    0.704763  -0.587658  -0.075808
H    0.548134  1.072803  0.243412
H    -0.588727  0.718448  2.281577
C    -0.989968  -1.404695  2.020522
C    -2.456626  -1.276923  1.537274
C    -2.683203  -1.373625  0.014347
C    -4.065816  -1.863538  -0.421260
N    -5.193836  -0.857949  -0.201631
H    -1.018401  -1.646122  3.094559
H    -0.534410  -2.274198  1.509455
H    -2.885379  -0.348679  1.947378
H    -2.995428  -2.101626  2.028620
H    -1.995375  -2.122102  -0.409359
H    -2.432957  -0.430422  -0.494073
H    -4.369104  -2.773111  0.113111
H    -4.077422  -2.080292  -1.496059
H    -5.027315  0.021518  -0.712178
H    -6.089276  -1.239531  -0.544747
H    -5.329992  -0.624522  0.791638
O    1.917652  -1.426030  2.618635
H    1.383599  -2.205174  2.347287
Pb    3.722001  1.318021  4.075556
