26
Energy: -100721.918321 eV PBE+vdW (tier 2 basis)
N    -0.303029  0.603662  0.081522
C    0.426496  0.568188  1.419030
C    1.793210  -0.109289  1.161099
O    2.515727  -0.453675  2.138913
H    -0.925192  -0.206655  -0.044629
H    0.420977  0.555832  -0.664111
H    0.682999  1.618207  1.635066
C    -0.426864  0.047756  2.587267
C    -0.971039  -1.387342  2.470924
C    -1.629440  -1.938756  3.760078
C    -2.990280  -1.325022  4.099569
N    -3.630000  -2.028631  5.289675
H    -1.239596  0.772655  2.747081
H    0.222727  0.128583  3.471339
H    -0.145975  -2.073363  2.228528
H    -1.698266  -1.477552  1.645499
H    -0.936504  -1.807725  4.606220
H    -1.753940  -3.023579  3.620330
H    -3.706040  -1.426931  3.273759
H    -2.930185  -0.266259  4.379419
H    -3.049399  -1.959151  6.139073
H    -3.782740  -3.032045  5.105613
H    -4.549632  -1.619378  5.516849
O    2.187699  -0.203811  -0.053525
H    -0.865656  1.457012  -0.040432
Sr    4.415942  -0.857733  0.700843
