26
Energy: -100721.900434 eV PBE+vdW (tier 2 basis)
N    -0.343273  -0.677320  -0.091188
C    0.094941  -0.137682  1.264896
C    1.620024  0.099027  1.179223
O    2.275979  0.359662  2.227490
H    -0.386946  -1.706049  -0.105420
H    -1.264762  -0.319409  -0.378740
H    -0.333425  0.876222  1.323029
C    -0.462055  -0.944229  2.450284
C    0.036822  -2.392125  2.613201
C    -0.817732  -3.271854  3.558005
C    -0.742804  -2.888237  5.037438
N    -1.510783  -3.883034  5.898746
H    -1.560513  -0.924560  2.362474
H    -0.226723  -0.348974  3.343620
H    1.084879  -2.392512  2.948211
H    0.034947  -2.921718  1.645983
H    -0.468890  -4.309353  3.440093
H    -1.867211  -3.254882  3.222420
H    -1.183608  -1.907172  5.252607
H    0.287568  -2.896885  5.414846
H    -1.461752  -3.631145  6.898060
H    -2.509752  -3.924013  5.645584
H    -1.134917  -4.839407  5.808383
O    2.149873  0.120964  0.013084
H    0.374007  -0.386896  -0.786414
Sr    4.221106  1.006577  0.936083
