26
Energy: -100720.885377 eV PBE+vdW (tier 2 basis)
N    0.727462  -0.143208  0.253306
C    0.488036  -0.233564  1.731957
C    1.734004  -0.854729  2.382380
O    2.621324  -1.386487  1.691089
H    -0.090286  -0.522120  -0.232657
H    0.755867  0.843511  -0.021603
H    0.402218  0.786398  2.142587
C    -0.788419  -1.048556  2.115536
C    -2.089021  -0.273046  2.429620
C    -2.800815  0.420101  1.251370
C    -4.308047  0.641906  1.425752
N    -4.691333  1.670302  2.486245
H    -0.564079  -1.654575  3.005376
H    -0.972331  -1.791497  1.321548
H    -1.887297  0.445284  3.241017
H    -2.768700  -1.025910  2.858982
H    -2.741675  -0.220418  0.356465
H    -2.311640  1.368689  0.976309
H    -4.822026  -0.284974  1.710958
H    -4.755605  1.005565  0.493144
H    -5.717919  1.774936  2.526908
H    -4.384382  1.402667  3.432040
H    -4.305521  2.603728  2.281134
O    1.898937  -0.848285  3.676076
H    1.196057  -0.397475  4.186069
Sr    3.077472  -1.395610  -0.550334
