26
Energy: -100721.948639 eV PBE+vdW (tier 2 basis)
N    -0.344360  0.237244  0.161415
C    -0.311083  0.323568  1.683467
C    0.752296  1.390970  2.032376
O    1.159157  2.148781  1.081838
H    0.261327  -0.516212  -0.195529
H    0.026533  1.135086  -0.211373
H    -1.276743  0.768577  1.975006
C    -0.187925  -1.078084  2.316629
C    -0.602432  -1.125373  3.803833
C    -1.009382  -2.517659  4.338212
C    0.143876  -3.499869  4.545477
N    -0.342430  -4.772183  5.229618
H    0.833834  -1.460831  2.168415
H    -0.863175  -1.737575  1.746276
H    -1.482428  -0.480618  3.944092
H    0.187797  -0.692345  4.431817
H    -1.766888  -2.963492  3.673393
H    -1.507843  -2.349401  5.305688
H    0.923569  -3.087930  5.198664
H    0.611191  -3.825676  3.607949
H    -0.752598  -4.573588  6.155134
H    0.428171  -5.442073  5.376378
H    -1.065268  -5.256525  4.676029
O    1.136863  1.542027  3.226638
H    -1.292869  0.075745  -0.205118
Sr    2.389807  3.539437  2.646674
