26
Energy: -100721.063920 eV PBE+vdW (tier 2 basis)
N    0.435455  0.559488  0.387169
C    0.182210  -0.104248  1.707049
C    1.546276  -0.348142  2.381844
O    2.591398  0.097071  1.872972
H    0.340500  -0.149639  -0.349364
H    -0.325294  1.220165  0.203062
H    -0.313026  0.641596  2.354768
C    -0.707617  -1.372050  1.640633
C    -2.210147  -1.127507  1.374861
C    -3.018379  -2.428884  1.582679
C    -4.542314  -2.305301  1.683769
N    -5.272894  -2.292355  0.343280
H    -0.629577  -1.905121  2.602107
H    -0.284293  -2.067206  0.896663
H    -2.358269  -0.726953  0.359019
H    -2.578332  -0.360871  2.075410
H    -2.717604  -2.871211  2.544876
H    -2.747309  -3.186638  0.829627
H    -4.860032  -1.397678  2.212243
H    -4.955447  -3.168148  2.219350
H    -6.293957  -2.250289  0.489985
H    -5.022052  -1.487272  -0.245989
H    -5.085108  -3.149069  -0.198779
O    1.650237  -0.970763  3.521075
H    0.806516  -1.292788  3.896953
Sr    2.991365  1.560666  0.157653
