26
Energy: -100720.794892 eV PBE+vdW (tier 2 basis)
N    0.674625  0.855968  0.611671
C    0.146531  0.323249  1.912506
C    1.337952  -0.241289  2.699146
O    2.497309  -0.147488  2.258364
H    0.443239  0.176977  -0.124293
H    0.125651  1.685010  0.360778
H    -0.202963  1.190235  2.500483
C    -1.052523  -0.651123  1.703733
C    -1.912701  -0.999662  2.939034
C    -3.225987  -1.715137  2.540339
C    -4.070674  -2.071520  3.766989
N    -5.370823  -2.763598  3.382740
H    -0.687227  -1.574390  1.226385
H    -1.703681  -0.153151  0.969125
H    -2.158331  -0.081886  3.497378
H    -1.366982  -1.672210  3.623669
H    -2.987298  -2.628851  1.973400
H    -3.802867  -1.058598  1.869995
H    -4.361837  -1.182923  4.341271
H    -3.551325  -2.763646  4.441851
H    -5.925295  -2.997366  4.221479
H    -5.965324  -2.170117  2.784549
H    -5.206364  -3.645935  2.874802
O    1.177397  -0.793052  3.871437
H    0.246616  -0.816868  4.172395
Sr    3.372000  1.120650  0.542158
