26
Energy: -100721.118196 eV PBE+vdW (tier 2 basis)
N    2.176987  -0.512148  0.119876
C    1.236669  -0.136077  1.223460
C    1.543481  -1.036681  2.427585
O    2.557069  -1.757606  2.440352
H    1.703774  -1.182591  -0.497913
H    2.318676  0.314089  -0.471144
H    1.542336  0.870669  1.561044
C    -0.262715  -0.025167  0.822913
C    -0.974083  -1.335770  0.435767
C    -2.362803  -1.165642  -0.229755
C    -3.486210  -0.739888  0.719471
N    -4.836492  -0.756629  0.014591
H    -0.303574  0.691495  -0.012080
H    -0.793034  0.485903  1.644000
H    -1.063589  -2.002873  1.307985
H    -0.365842  -1.888961  -0.297388
H    -2.626073  -2.137384  -0.675052
H    -2.285276  -0.450217  -1.063877
H    -3.365852  0.280583  1.103386
H    -3.586568  -1.424645  1.571373
H    -5.072521  -1.696083  -0.340554
H    -5.596565  -0.475761  0.653696
H    -4.863349  -0.111320  -0.789541
O    0.786366  -1.027591  3.491426
H    0.034074  -0.404899  3.440693
Sr    4.405014  -1.761517  1.048696
