26
Energy: -100720.646386 eV PBE+vdW (tier 2 basis)
N    0.155741  0.154571  0.462087
C    -0.092710  -0.175686  1.858729
C    1.274595  -0.337293  2.532653
O    1.925022  0.638165  3.012369
H    0.657839  -0.552659  -0.073652
H    0.545541  1.079562  0.293156
H    -0.568764  0.694025  2.333563
C    -0.992967  -1.412730  2.027088
C    -2.455725  -1.271621  1.538887
C    -2.674701  -1.404131  0.017737
C    -4.063903  -1.873788  -0.412828
N    -5.166186  -0.836358  -0.208866
H    -1.021923  -1.668634  3.097396
H    -0.547097  -2.282358  1.506986
H    -2.866942  -0.322606  1.918995
H    -3.015730  -2.071249  2.047829
H    -1.999493  -2.177672  -0.380369
H    -2.397379  -0.480546  -0.511217
H    -4.389601  -2.765968  0.137416
H    -4.081259  -2.107522  -1.483963
H    -4.974848  0.029576  -0.733245
H    -6.072649  -1.198219  -0.542975
H    -5.290174  -0.583594  0.781075
O    1.904906  -1.491841  2.541663
H    1.344803  -2.230458  2.219739
Sr    3.683790  1.552991  4.109763
