26
Energy: -100722.033139 eV PBE+vdW (tier 2 basis)
N    -0.333905  -0.088584  0.010222
C    0.988047  -0.321611  0.734949
C    2.052223  -0.535919  -0.367698
O    1.716171  -0.280543  -1.577204
H    -0.894399  0.668864  0.422366
H    -0.917885  -0.936522  -0.015428
H    1.244291  0.639319  1.209946
C    0.905039  -1.423404  1.803277
C    -0.023141  -1.062432  2.981516
C    -0.191469  -2.145141  4.074399
C    0.971510  -2.233705  5.064785
N    0.630673  -3.158336  6.226887
H    1.937799  -1.585141  2.143149
H    0.586749  -2.367758  1.330609
H    -1.038579  -0.860105  2.606894
H    0.315600  -0.122103  3.445250
H    -0.369590  -3.127391  3.608796
H    -1.107756  -1.894922  4.631066
H    1.199235  -1.259902  5.516670
H    1.891050  -2.635116  4.621886
H    1.409304  -3.217704  6.900988
H    0.425975  -4.118763  5.912604
H    -0.195540  -2.826400  6.747993
O    3.221670  -0.890913  -0.048920
H    -0.092172  0.154293  -0.974708
Sr    4.015099  -0.648062  -2.317294
