26
Energy: -100721.989144 eV PBE+vdW (tier 2 basis)
N    -0.924225  0.489986  0.623072
C    -0.314204  0.395675  2.017504
C    0.945046  1.295426  1.992634
O    1.086025  2.085517  0.993556
H    -0.570911  1.368337  0.189780
H    -1.953234  0.500882  0.638204
H    -1.027542  0.899005  2.690180
C    -0.137435  -1.075776  2.451925
C    0.005151  -1.252329  3.977833
C    0.197422  -2.707170  4.466371
C    -1.080799  -3.548549  4.484309
N    -0.849297  -4.889667  5.169872
H    0.732503  -1.508513  1.933271
H    -1.025869  -1.622130  2.095383
H    -0.866982  -0.808390  4.483766
H    0.876797  -0.681043  4.319977
H    0.591331  -2.645322  5.492586
H    0.972777  -3.208926  3.865804
H    -1.458316  -3.789328  3.483005
H    -1.884070  -3.060202  5.050600
H    -1.710285  -5.457818  5.184826
H    -0.548821  -4.769668  6.149269
H    -0.124291  -5.448219  4.695162
O    1.759765  1.279967  2.958626
H    -0.627065  -0.290097  0.019042
Sr    3.032527  3.120352  2.026444
