26
Energy: -100722.178723 eV PBE+vdW (tier 2 basis)
N    0.978703  0.067603  -0.175668
C    0.285544  0.111706  1.182147
C    1.378637  0.483472  2.212768
O    2.516542  0.865370  1.766238
H    1.195889  -0.895436  -0.468119
H    0.432171  0.511611  -0.924960
H    -0.394808  0.977896  1.147261
C    -0.506326  -1.162552  1.505261
C    -1.765819  -1.371049  0.639847
C    -2.599301  -2.588352  1.097311
C    -3.849157  -2.766169  0.232064
N    -4.699044  -3.943313  0.690589
H    -0.790854  -1.073246  2.563714
H    0.163266  -2.036891  1.445046
H    -1.491589  -1.505864  -0.419710
H    -2.391065  -0.465371  0.688749
H    -2.893054  -2.449774  2.150003
H    -1.982037  -3.499714  1.051764
H    -3.602287  -2.965842  -0.818244
H    -4.506875  -1.888702  0.270443
H    -4.181711  -4.834189  0.650325
H    -5.033100  -3.825039  1.658755
H    -5.533910  -4.050962  0.093719
O    1.106415  0.457802  3.445872
H    1.884837  0.571660  -0.060949
Sr    3.242936  1.389344  4.046777
