26
Energy: -100721.889612 eV PBE+vdW (tier 2 basis)
N    -0.185393  1.656056  1.651415
C    -0.171925  0.476566  2.619182
C    1.318947  0.132325  2.854629
O    1.625176  -0.895436  3.521380
H    -0.407955  1.365453  0.688687
H    -0.846794  2.396605  1.918935
H    -0.546640  0.864952  3.579632
C    -1.041422  -0.697880  2.144489
C    -2.557469  -0.407770  2.111200
C    -3.392031  -1.564382  1.506608
C    -3.851299  -2.679964  2.453196
N    -5.221842  -2.406707  3.069327
H    -0.816556  -1.534504  2.821618
H    -0.697095  -1.018275  1.146566
H    -2.756764  0.484220  1.497415
H    -2.906817  -0.151766  3.125200
H    -2.813653  -2.049152  0.706886
H    -4.268924  -1.147555  0.987856
H    -3.167991  -2.847710  3.294988
H    -3.966644  -3.629123  1.917273
H    -5.507049  -3.174896  3.696660
H    -5.247972  -1.538092  3.621678
H    -5.949436  -2.329274  2.342031
O    2.197860  0.944777  2.398571
H    0.784426  2.042022  1.646461
Sr    3.979261  -0.358487  3.456118
