26
Energy: -100721.158123 eV PBE+vdW (tier 2 basis)
N    0.850317  0.700193  0.068515
C    0.714277  0.382079  1.528365
C    1.762072  1.230352  2.270951
O    2.290555  2.207527  1.710998
H    1.473108  0.000331  -0.354045
H    -0.055464  0.531035  -0.381273
H    -0.256471  0.799518  1.851748
C    0.728785  -1.142525  1.857605
C    -0.056515  -1.537145  3.129988
C    0.060248  -3.015317  3.575514
C    -0.767896  -4.001786  2.747733
N    -0.767948  -5.384964  3.385920
H    1.770575  -1.497065  1.914102
H    0.278392  -1.650808  0.992362
H    -1.117164  -1.268560  3.003149
H    0.266562  -0.946228  4.004606
H    -0.285536  -3.058022  4.619916
H    1.117794  -3.323168  3.584620
H    -0.385840  -4.142886  1.729388
H    -1.821824  -3.701790  2.686471
H    -1.325766  -6.053471  2.832024
H    0.182529  -5.777001  3.467112
H    -1.172475  -5.368468  4.335048
O    2.100722  0.982623  3.504898
H    1.644197  0.207648  3.891838
Sr    2.009641  3.124756  -0.383232
