26
Energy: -100721.139020 eV PBE+vdW (tier 2 basis)
N    0.803157  0.302999  -0.089489
C    0.416459  -0.062256  1.311979
C    1.679981  0.025378  2.189136
O    2.753295  0.439170  1.714431
H    0.849032  -0.560463  -0.643339
H    0.036736  0.834394  -0.512912
H    -0.241019  0.741226  1.689563
C    -0.321630  -1.420532  1.440848
C    -1.760683  -1.457374  0.882542
C    -2.365983  -2.871331  1.023174
C    -3.735900  -3.113959  0.381764
N    -4.921241  -2.694421  1.247825
H    -0.360315  -1.708756  2.503729
H    0.293381  -2.198817  0.958109
H    -1.765626  -1.174151  -0.182067
H    -2.370548  -0.706242  1.410843
H    -2.387945  -3.181782  2.080907
H    -1.693556  -3.592135  0.533565
H    -3.885083  -4.184713  0.199688
H    -3.857113  -2.589289  -0.574253
H    -5.811276  -2.913146  0.772665
H    -4.931780  -3.200134  2.146435
H    -4.933220  -1.686766  1.456578
O    1.659256  -0.280095  3.455626
H    0.794151  -0.588517  3.792012
Sr    3.293745  1.456455  -0.267446
