26
Energy: -100721.819224 eV PBE+vdW (tier 2 basis)
N    -0.354772  1.555534  3.866394
C    -0.185542  0.092599  3.464206
C    1.338001  -0.130770  3.299952
O    1.764017  -1.246533  2.889639
H    -0.721685  2.131990  3.095871
H    -0.967491  1.689338  4.681000
H    -0.490560  -0.506200  4.336326
C    -1.014512  -0.279269  2.223371
C    -2.550977  -0.264462  2.410128
C    -3.162356  -1.518942  3.079527
C    -3.585691  -2.653373  2.140661
N    -4.954401  -2.420746  1.505708
H    -0.669840  -1.274660  1.907914
H    -0.735783  0.401467  1.402957
H    -2.991631  -0.105762  1.414062
H    -2.860133  0.624909  2.980310
H    -4.021088  -1.231248  3.705283
H    -2.448833  -1.966189  3.787993
H    -3.679969  -3.600425  2.684671
H    -2.887424  -2.806647  1.308053
H    -4.994419  -1.560863  0.940157
H    -5.209071  -3.203172  0.882764
H    -5.695159  -2.353842  2.220418
O    2.121911  0.827463  3.627785
H    0.603225  1.904276  4.095305
Sr    4.071186  -0.581473  3.161546
