26
Energy: -100721.162636 eV PBE+vdW (tier 2 basis)
N    1.615779  1.362324  0.208522
C    0.667715  0.782218  1.215881
C    1.510558  0.077118  2.290165
O    2.751927  0.160307  2.279626
H    1.650313  0.727335  -0.598775
H    1.195084  2.217932  -0.169423
H    0.199352  1.633498  1.741832
C    -0.468913  -0.063342  0.562890
C    -1.665309  -0.407518  1.480824
C    -2.994898  -0.755780  0.765000
C    -3.037305  -2.141748  0.116706
N    -4.442585  -2.475387  -0.367371
H    -0.033020  -0.972261  0.119310
H    -0.842265  0.550690  -0.271014
H    -1.892313  0.461230  2.118658
H    -1.422483  -1.249997  2.152148
H    -3.223613  0.021220  0.018802
H    -3.786570  -0.696711  1.527959
H    -2.770483  -2.936384  0.825350
H    -2.388244  -2.228853  -0.763200
H    -4.477471  -3.409739  -0.804082
H    -5.123616  -2.479151  0.407880
H    -4.783975  -1.800009  -1.068142
O    0.955259  -0.579757  3.271222
H    -0.023438  -0.588737  3.240101
Sr    4.173362  1.547678  1.107902
