26
Energy: -100720.968691 eV PBE+vdW (tier 2 basis)
N    1.911260  -1.113734  0.745261
C    0.622978  -0.475681  1.178903
C    0.951248  0.401014  2.401692
O    2.120344  0.765712  2.617488
H    1.957073  -2.049694  1.168411
H    1.853301  -1.302529  -0.260866
H    0.343860  0.244810  0.389792
C    -0.534119  -1.494329  1.390076
C    -1.995287  -0.982107  1.247712
C    -2.525191  -0.989702  -0.200733
C    -3.959566  -0.488990  -0.405551
N    -5.037170  -1.500453  -0.024094
H    -0.407660  -1.970493  2.374380
H    -0.387877  -2.299988  0.655400
H    -2.121661  0.038604  1.652648
H    -2.615012  -1.628229  1.886810
H    -2.417392  -1.997266  -0.634716
H    -1.905547  -0.335499  -0.833251
H    -4.138406  -0.266067  -1.463972
H    -4.178161  0.418423  0.171749
H    -5.017921  -1.757155  0.972822
H    -5.975988  -1.114622  -0.213790
H    -4.956935  -2.370479  -0.571924
O    0.025125  0.812253  3.222578
H    -0.867540  0.469911  3.014289
Sr    4.121580  0.228557  1.605394
