26
Energy: -100722.009903 eV PBE+vdW (tier 2 basis)
N    -0.344080  1.711532  1.735145
C    -0.157982  0.667373  2.830815
C    1.364862  0.415135  2.937116
O    1.792537  -0.524617  3.664585
H    -0.596848  1.286466  0.832228
H    -1.058204  2.415252  1.965062
H    -0.434055  1.171282  3.771735
C    -1.034509  -0.580286  2.647732
C    -2.541245  -0.298745  2.830966
C    -3.447440  -1.532878  3.050486
C    -3.730260  -2.364671  1.798625
N    -4.788483  -3.425125  2.077455
H    -0.690220  -1.292017  3.412400
H    -0.813185  -1.046732  1.673606
H    -2.938092  0.290786  1.987898
H    -2.669867  0.330299  3.724937
H    -4.403174  -1.154362  3.445365
H    -3.016204  -2.170162  3.838630
H    -2.851516  -2.908488  1.430928
H    -4.130744  -1.753855  0.979429
H    -5.681908  -3.002776  2.373661
H    -4.984964  -3.991982  1.238291
H    -4.498286  -4.075223  2.823329
O    2.147086  1.227265  2.330005
H    0.579028  2.180071  1.611188
Sr    4.084754  0.168458  3.387383
