26
Energy: -100720.796660 eV PBE+vdW (tier 2 basis)
N    -0.112997  -0.224261  -0.279703
C    -0.111539  0.038103  1.152017
C    1.399386  0.045941  1.422642
O    2.121330  1.058771  1.204364
H    -0.255526  -1.197260  -0.540733
H    -0.698110  0.394166  -0.833162
H    -0.450652  1.069458  1.324639
C    -0.919721  -0.928376  2.042080
C    -2.440329  -0.798411  1.826893
C    -3.255119  -1.787437  2.685527
C    -4.755968  -1.620987  2.445476
N    -5.577280  -2.589393  3.286587
H    -0.678698  -0.735128  3.099998
H    -0.621201  -1.972631  1.827598
H    -2.675709  -0.957976  0.763793
H    -2.747479  0.231870  2.065691
H    -3.029886  -1.624319  3.751758
H    -2.954716  -2.820405  2.446207
H    -5.033675  -1.818682  1.402552
H    -5.109425  -0.617044  2.711984
H    -5.421431  -2.449720  4.295880
H    -6.587037  -2.467005  3.115115
H    -5.350089  -3.572024  3.073778
O    2.035238  -1.037258  1.798036
H    1.427936  -1.780791  1.996711
Sr    3.975565  2.234286  0.734260
