26
Energy: -100720.739504 eV PBE+vdW (tier 2 basis)
N    1.038134  0.489503  0.799795
C    1.129612  -0.384402  1.965786
C    2.329633  -1.239469  1.537963
O    3.519880  -0.836346  1.651480
H    0.890507  1.469601  1.028512
H    0.356999  0.187466  0.105075
H    1.475336  0.209037  2.824105
C    -0.163221  -1.137256  2.346116
C    -0.099906  -1.941069  3.657912
C    -1.394001  -2.695721  4.043970
C    -2.520748  -1.791587  4.547346
N    -3.696513  -2.612540  5.062265
H    -0.490714  -1.785209  1.509410
H    -0.934283  -0.354312  2.403243
H    0.190991  -1.272344  4.483381
H    0.695882  -2.699489  3.597947
H    -1.130222  -3.409559  4.839650
H    -1.747806  -3.295773  3.190155
H    -2.933283  -1.138352  3.768956
H    -2.199987  -1.167131  5.390830
H    -4.456099  -2.006104  5.407516
H    -4.097886  -3.215231  4.328432
H    -3.419483  -3.226720  5.843022
O    2.167512  -2.387503  0.926492
H    1.225385  -2.655040  0.885902
Sr    5.641561  -0.402860  1.058719
