26
Energy: -100721.322389 eV PBE+vdW (tier 2 basis)
N    0.366961  -0.434468  -0.155346
C    0.636650  -0.752175  1.287305
C    2.063106  -1.312207  1.378953
O    2.789956  -1.378416  0.371814
H    -0.233157  -1.177432  -0.534871
H    -0.226240  0.401224  -0.192157
H    0.667992  0.208357  1.831203
C    -0.483653  -1.639125  1.910332
C    -0.515395  -1.775030  3.449128
C    -1.837645  -2.411405  3.941355
C    -1.856239  -2.571458  5.464236
N    -3.158927  -3.185522  5.956871
H    -0.451365  -2.637516  1.445679
H    -1.429184  -1.173969  1.592162
H    -0.397727  -0.784398  3.917548
H    0.310531  -2.415291  3.804746
H    -1.971220  -3.393894  3.461655
H    -2.680740  -1.777748  3.623895
H    -1.762792  -1.609010  5.982977
H    -1.058656  -3.234951  5.821705
H    -3.153414  -3.286696  6.984087
H    -3.977267  -2.606190  5.715806
H    -3.319700  -4.124676  5.562435
O    2.572224  -1.690475  2.520229
H    1.959936  -1.593184  3.277186
Sr    2.584953  -0.416929  -1.714508
