26
Energy: -100721.029169 eV PBE+vdW (tier 2 basis)
N    0.135280  -0.831053  0.108686
C    0.360170  -0.171791  1.437476
C    1.875497  -0.132788  1.702891
O    2.677512  -0.642754  0.900474
H    -0.357397  -1.716776  0.268845
H    -0.526094  -0.268548  -0.434154
H    0.052536  0.884154  1.347188
C    -0.414388  -0.849317  2.602401
C    -1.945135  -0.627360  2.647715
C    -2.380463  0.719321  3.256886
C    -3.891298  0.964310  3.345457
N    -4.574676  0.234378  4.498594
H    0.016511  -0.528394  3.563799
H    -0.205245  -1.929998  2.553716
H    -2.351102  -1.462246  3.239187
H    -2.384613  -0.741115  1.643573
H    -1.998539  1.555477  2.650514
H    -1.927380  0.854119  4.253191
H    -4.422220  0.656186  2.435881
H    -4.099560  2.027035  3.515974
H    -5.581808  0.460387  4.522097
H    -4.501238  -0.790177  4.428341
H    -4.185925  0.513257  5.412102
O    2.369204  0.455659  2.756809
H    1.708812  0.859908  3.354056
Sr    2.466075  -1.419601  -1.245431
