26
Energy: -100720.959108 eV PBE+vdW (tier 2 basis)
N    0.600269  -0.610991  0.103856
C    0.413991  -0.155231  1.520993
C    1.769734  -0.248663  2.237423
O    2.718569  -0.873864  1.730754
H    -0.140066  -1.281966  -0.124023
H    0.430070  0.178821  -0.526407
H    0.125891  0.909257  1.523205
C    -0.654418  -0.989576  2.284720
C    -2.144402  -0.673149  2.010763
C    -2.672562  0.610641  2.692630
C    -4.129966  0.585975  3.165431
N    -5.173361  0.671688  2.054913
H    -0.476554  -0.896165  3.366960
H    -0.464309  -2.052127  2.062500
H    -2.697222  -1.541809  2.400265
H    -2.344868  -0.655173  0.927331
H    -2.494058  1.506724  2.077477
H    -2.110424  0.780613  3.624787
H    -4.333162  1.444125  3.817261
H    -4.362972  -0.328477  3.725787
H    -6.124163  0.677366  2.457874
H    -5.079409  1.537207  1.503127
H    -5.132177  -0.124554  1.403767
O    1.967435  0.313632  3.397725
H    1.210591  0.824809  3.747854
Sr    3.111886  -1.674543  -0.378616
