26
Energy: -100720.702064 eV PBE+vdW (tier 2 basis)
N    0.368453  0.951730  0.543953
C    0.048431  0.182645  1.739193
C    1.178090  0.430889  2.743823
O    1.191296  1.424399  3.529772
H    1.243406  0.704937  0.082651
H    0.277827  1.961541  0.633520
H    -0.859087  0.613365  2.185529
C    -0.186436  -1.310764  1.440933
C    -1.476203  -1.629675  0.643110
C    -1.375291  -1.453524  -0.883170
C    -2.662051  -1.712671  -1.665319
N    -3.036595  -3.190579  -1.770496
H    -0.245237  -1.845505  2.401227
H    0.679905  -1.731419  0.896092
H    -2.301717  -1.013732  1.033539
H    -1.735726  -2.670771  0.891248
H    -0.560491  -2.073462  -1.293321
H    -1.099943  -0.415205  -1.114994
H    -2.564466  -1.366453  -2.700882
H    -3.532140  -1.214625  -1.218874
H    -3.214413  -3.620642  -0.852552
H    -3.894343  -3.310978  -2.330606
H    -2.295357  -3.737213  -2.232943
O    2.261689  -0.314065  2.759305
H    2.185553  -1.103116  2.181417
Sr    2.016823  2.711804  5.197386
