26
Energy: -100721.174778 eV PBE+vdW (tier 2 basis)
N    -0.172142  2.090759  2.057640
C    -0.460754  0.643693  2.438551
C    0.690250  0.187539  3.363607
O    1.434628  1.097286  3.873132
H    0.317825  2.165342  1.154985
H    0.457932  2.483210  2.786424
H    -1.339340  0.690823  3.102442
C    -0.835885  -0.239161  1.236032
C    0.258869  -0.498264  0.184144
C    -0.256638  -1.045203  -1.169190
C    -0.802855  -2.473851  -1.119943
N    -1.173145  -2.964539  -2.513917
H    -1.719451  0.221239  0.764740
H    -1.191147  -1.184893  1.668629
H    1.021676  -1.176115  0.595529
H    0.794149  0.432627  -0.066385
H    0.585854  -1.009274  -1.877107
H    -1.028120  -0.366205  -1.566873
H    -1.715952  -2.567154  -0.519459
H    -0.061245  -3.186702  -0.737748
H    -1.893978  -2.372628  -2.954208
H    -1.545600  -3.926380  -2.487108
H    -0.358088  -2.972797  -3.146288
O    0.805552  -1.033328  3.668906
H    -1.027220  2.661155  1.999357
Sr    2.427241  -0.522559  5.395121
