26
Energy: -100721.827291 eV PBE+vdW (tier 2 basis)
N    0.701377  -0.273706  0.060587
C    0.004525  -0.007843  1.392178
C    1.099046  0.578275  2.323270
O    0.829161  0.796530  3.536969
H    1.629292  0.206272  0.125547
H    0.876932  -1.275777  -0.093027
H    -0.701225  0.818609  1.213138
C    -0.735254  -1.218700  1.986555
C    -2.179421  -1.495590  1.506300
C    -2.340218  -2.218413  0.156880
C    -3.785671  -2.472878  -0.288848
N    -4.493090  -3.578921  0.487939
H    -0.786372  -1.009967  3.064211
H    -0.105194  -2.119794  1.894689
H    -2.744414  -0.549952  1.493619
H    -2.636938  -2.100005  2.305010
H    -1.778458  -3.167475  0.151772
H    -1.913391  -1.617079  -0.662276
H    -3.818125  -2.790415  -1.337682
H    -4.415722  -1.580583  -0.182949
H    -4.590219  -3.365746  1.490615
H    -5.447039  -3.722314  0.120250
H    -4.002582  -4.482048  0.405589
O    2.233224  0.869458  1.805623
H    0.189562  0.092349  -0.751912
Sr    2.964219  1.819713  3.958952
