26
Energy: -100721.876647 eV PBE+vdW (tier 2 basis)
N    0.298839  2.158939  0.989664
C    0.841206  0.787725  1.380554
C    1.119752  0.042132  0.056443
O    1.398186  -1.190553  0.066826
H    0.638430  2.374073  0.030984
H    0.596651  2.901496  1.637679
H    1.826536  0.978782  1.835293
C    -0.089491  0.095160  2.400508
C    0.615197  -0.823911  3.422205
C    -0.378235  -1.275357  4.515623
C    0.211017  -1.843687  5.807849
N    0.652102  -3.302492  5.716721
H    -0.881028  -0.451830  1.867018
H    -0.593564  0.892196  2.971130
H    1.439611  -0.264242  3.892688
H    1.065409  -1.682232  2.901709
H    -1.130340  -1.968217  4.104745
H    -0.955939  -0.399113  4.849114
H    -0.539402  -1.824392  6.607090
H    1.088565  -1.283129  6.154020
H    1.405742  -3.449559  5.032227
H    -0.132666  -3.918977  5.458918
H    1.004462  -3.631185  6.629360
O    1.103233  0.731084  -1.024845
H    -0.731341  2.168810  0.956451
Sr    1.808069  -1.171521  -2.336973
