26
Energy: -100721.981968 eV PBE+vdW (tier 2 basis)
N    1.014320  -0.149887  -0.283373
C    0.479730  -0.071360  1.142521
C    1.711531  0.173605  2.049032
O    2.826706  0.446791  1.482148
H    0.449759  0.379038  -0.960540
H    1.981033  0.244406  -0.254749
H    -0.114963  0.854747  1.195675
C    -0.383659  -1.273603  1.546752
C    -1.795089  -1.329043  0.921010
C    -2.644553  -2.435058  1.584567
C    -4.151117  -2.421923  1.313717
N    -4.566880  -3.067517  -0.006233
H    -0.481023  -1.205260  2.640283
H    0.171387  -2.207529  1.355402
H    -1.730426  -1.485781  -0.169343
H    -2.290760  -0.356554  1.071887
H    -2.562091  -2.322642  2.676558
H    -2.229368  -3.433526  1.370928
H    -4.569524  -1.407557  1.300651
H    -4.678581  -2.994584  2.085679
H    -5.594664  -3.062144  -0.102896
H    -4.187211  -2.581628  -0.829880
H    -4.267546  -4.052810  -0.057473
O    1.572864  0.153200  3.303996
H    1.086504  -1.121462  -0.616229
Sr    3.847618  0.844081  3.680913
