26
Energy: -100721.773255 eV PBE+vdW (tier 2 basis)
N    1.510247  0.359998  0.258653
C    1.230490  -0.352865  1.577761
C    2.144461  -1.603143  1.585337
O    3.037888  -1.689474  0.671482
H    1.525121  1.384733  0.350631
H    0.813381  0.120317  -0.462000
H    1.612142  0.312591  2.367954
C    -0.283257  -0.607442  1.756134
C    -0.743431  -0.880264  3.208384
C    -0.964951  0.371868  4.086883
C    -2.329935  1.060504  3.978142
N    -3.405138  0.385058  4.825056
H    -0.573506  -1.453323  1.115789
H    -0.816986  0.273038  1.361632
H    -0.020302  -1.542791  3.700025
H    -1.667130  -1.475314  3.144347
H    -0.217026  1.145880  3.855810
H    -0.771404  0.121894  5.141554
H    -2.724238  1.082622  2.954111
H    -2.283151  2.092238  4.345753
H    -4.310660  0.870300  4.726978
H    -3.161754  0.404047  5.827081
H    -3.560490  -0.599046  4.564469
O    2.023555  -2.473288  2.493839
H    2.434862  0.024899  -0.084026
Sr    3.918210  -3.738037  1.656223
