26
Energy: -100720.744281 eV PBE+vdW (tier 2 basis)
N    1.470470  -0.607929  -0.308169
C    0.977029  -0.395125  1.042809
C    2.160102  -0.945153  1.854439
O    3.181030  -0.251419  2.121112
H    1.136317  -1.449369  -0.771005
H    1.435897  0.198972  -0.922666
H    0.951013  0.684347  1.248287
C    -0.383889  -1.023785  1.400640
C    -1.584613  -0.342370  0.710251
C    -2.920941  -0.965234  1.160930
C    -4.197930  -0.230485  0.753222
N    -4.612086  -0.458078  -0.698996
H    -0.525880  -0.970628  2.492504
H    -0.384768  -2.097276  1.130683
H    -1.461366  -0.407202  -0.382641
H    -1.579916  0.729034  0.966411
H    -2.951837  -0.981374  2.261331
H    -2.984868  -2.023761  0.858962
H    -4.116889  0.856735  0.877832
H    -5.048907  -0.578808  1.350350
H    -4.772352  -1.457454  -0.893629
H    -5.494475  0.034298  -0.907176
H    -3.911019  -0.117024  -1.370327
O    2.214032  -2.202472  2.224251
H    1.383600  -2.688935  2.038216
Sr    5.317681  0.147446  2.703620
