#p hf/6-31g* force 

Gaussian input prepared by ASE

0 1
O                 3.9339511471        4.4133806464      -25.7805712500
O                 6.9886465820        2.1574794855      -17.6810347676
O                 0.1511429818        6.6688640101      -20.8429552546
O                 0.0172223555        0.3331516358      -21.6374087184
O                -0.1102761246       -3.6672041453      -24.6984444403
O                 7.2359278465        3.4909677773      -20.2245484044
O                 0.4250724040       -2.3804676016      -19.8433636956
O                 5.5916931177        4.6658628764      -18.0306467333
O                 3.6129828368        2.2576536923      -24.6279334337
O                 6.5445833909        0.9879981349      -19.5359603528
O                 4.2732518442        4.8509949424      -23.6015671888
O                 2.0341033633       -0.3276797156      -21.0946586876
O                 1.3376003171        4.8280142329      -21.3050598506
O                 2.8441362558        7.4153127782      -20.4050501856
N                -0.7408336568       -3.8682525022      -22.5039145466
C                 3.8647091901        5.1452222615      -24.8582618328
C                 6.6815360378        1.1431833516      -18.1951061939
C                 0.2052727067        5.5307990490      -21.1691834488
C                 2.3230435914        7.5324022890      -27.1017300984
C                 3.3246550458        8.4984958767      -27.1227254786
C                 4.2673518794        8.5582417775      -26.1096658497
C                -1.7411608666       -6.9427713854      -26.1349018827
C                -2.8029151249       -7.5217386325      -25.4463326489
C                -3.1501535305       -7.1024547120      -24.1710762459
C                -0.4664750223       -0.8690689095      -25.3472633843
C                -1.8062808746       -0.8010616300      -25.6959621404
C                -2.7873820702       -0.9338302782      -24.7240426906
C                 2.3940892253        6.5306211518      -26.1662389929
C                 4.2997779261        7.5830536414      -25.1216008935
C                -1.0720462040       -5.8940235326      -25.5561548220
C                -2.4346773191       -6.0794766817      -23.5654309900
C                 0.7638898841       -0.5457572572      -21.3643369041
C                -0.7026496352       -4.2479763926      -23.8381960299
C                -0.1398005773       -1.2655542931      -24.0754482467
C                -2.4396301273       -1.2951095212      -23.4306140467
C                 3.4222024940        6.5205163833      -25.2253464187
C                -1.4156955840       -5.4748227466      -24.2718349089
C                 6.0743546053        3.2704174494      -20.2961306493
C                -1.1229638037       -1.5890388875      -23.1543159980
C                 4.1591132289        0.2196359949      -21.2435242816
C                 5.0062432142        1.2160640890      -21.4363044291
C                 6.3842302201       -0.0911802497      -17.3837094399
C                -1.0417377241        4.7199552622      -21.3841300479
C                 4.2539277298       -0.7408278048      -20.0868791827
C                 5.8735242771        5.6605153954      -20.8806574104
C                 5.2205354397        0.4598991869      -23.8685964997
C                 6.4207865215        2.5439393619      -23.1289521233
C                 2.8947215374        6.7883789928      -21.6725038921
C                 5.5880878778        1.8263119562      -20.1562740702
C                 0.4679203220       -2.0553980149      -21.2116824580
C                 3.7097307595        5.9113310852      -18.7002452831
C                 2.5527669861        1.5732706586      -22.6133713038
C                 2.9215760604        0.1605251465      -22.1011358784
C                -0.7855214799       -2.4871780944      -21.9855751404
C                 4.5341298073        4.6541224363      -18.9381644281
C                 2.6277850203        6.1952083414      -19.7140799443
C                 3.5492030539        3.8835839505      -22.8209268729
C                 3.6512223639        4.2336823210      -21.2746889863
C                 2.6325313665        5.4051911190      -21.0377035588
C                 3.7461616926        2.3795771967      -23.2445106829
C                 5.1240962017        1.7080961311      -22.8974201046
C                 5.0216000222        4.4589846104      -20.4301591250
H                 5.7674807044        5.5566723597      -17.7685381268
H                -0.3812619425       -2.0676276509      -19.4566206961
H                 2.7359070084        2.4603237200      -24.9191400729
H                 1.7467948682        5.6752443834      -26.2332163216
H                 1.5236779352        7.5322495013      -27.8212776418
H                 3.3637262329        9.1963900428      -27.9388936221
H                 5.0250462625        9.3189185079      -26.1115603366
H                 5.0579414444        7.5951462816      -24.3564932873
H                -0.3218841890       -5.3393575106      -26.0858969352
H                -1.4713942337       -7.2633759253      -27.1283973548
H                -3.3620241539       -8.3062631269      -25.9158832253
H                -3.9850669364       -7.5436220872      -23.6565074832
H                -2.7080670406       -5.6826660832      -22.6024198556
H                 0.8839044264       -1.5233137472      -23.8790941642
H                 0.3227847675       -0.8099679450      -26.0784064137
H                -2.0763974509       -0.7266541851      -26.7312664430
H                -3.8253835140       -0.8097681548      -24.9667306069
H                -3.1796470824       -1.3986309610      -22.6512765112
H                -0.6173455839       -4.6084831658      -21.8478025539
H                 5.2830163497       -1.0410155177      -20.0317406717
H                 3.9837095316       -0.2763562112      -19.1461574817
H                 3.6247491692       -1.6081472253      -20.2125700457
H                 6.0434256116       -0.9306787128      -17.9643879916
H                 7.2684791840       -0.3695992540      -16.8306452186
H                 5.6259818556        0.2000129999      -16.6662302605
H                -0.8752798952        3.7177994665      -21.7467288358
H                -1.5508417317        4.6927696806      -20.4282875512
H                -1.6856884235        5.2726167117      -22.0541792381
H                 5.4696133838        6.6036291539      -20.5478002428
H                 5.9721220608        5.6904309955      -21.9561428623
H                 6.8550284052        5.5357749477      -20.4574873256
H                 6.0068742937        0.6028892087      -24.5937773489
H                 4.3264918153        0.3746942621      -24.4570914478
H                 5.3653877658       -0.4811828168      -23.3634180582
H                 7.2104703708        2.1781751854      -22.4803890895
H                 6.3274009054        3.6061338105      -22.9654421487
H                 6.7663013500        2.4173874254      -24.1439796074
H                 2.1523020098        7.1417410750      -22.3714447885
H                 3.8746459651        6.8958988948      -22.0998286897
H                 4.7288470923        1.8266266290      -19.4960945221
H                 3.2930295546        5.8463717816      -17.7010194208
H                 4.3579525413        6.7758604121      -18.7273259432
H                 1.7974246584        1.5087079025      -23.3871363984
H                 2.0752204241        2.1107251407      -21.8096750855
H                 2.9079469357       -0.5465171545      -22.9187963543
H                 1.3247100091       -2.6087600786      -21.5675956849
H                 2.5082052585        4.0709963430      -23.0519940734
H                 1.6631697929        6.1851028103      -19.2428192770
H                 3.9415918449        3.7846930644      -18.6721092795
H                -1.6028930435       -2.4701739251      -21.2696064412
H                 3.1630940893        3.3940062402      -20.8015415219



