#p hf/6-31g* force 

Gaussian input prepared by ASE

0 1
O               -36.1464182025       57.5864142074      231.5808139454
O               -27.4722699461       56.2748066406      229.8095310474
O               -34.9994317332       56.0825857299      225.3674258757
O               -33.2918126619       62.4793891703      228.6710168174
O               -34.7374022124       62.5748197172      226.9787736145
O               -29.8377125659       55.6169804475      230.8890360779
O               -30.3465836397       63.3768162470      226.9148326916
O               -29.6199640065       54.8170685355      228.3169002351
O               -34.4556471174       59.0748285012      231.3998884329
O               -28.6783219146       57.9000995712      230.7740971216
O               -34.4683616903       56.3904143588      230.6635032559
O               -31.4973067687       61.3306542549      228.5664143996
O               -34.2764969017       57.2769681335      227.1052191505
O               -33.8857217649       54.1977211716      227.0049651516
N               -33.7697584745       64.6651951992      227.7187857146
C               -35.7563366115       56.6289864641      231.0116196433
C               -27.6528498748       57.4206518922      230.0151859573
C               -34.9028551007       57.1171733240      225.9371683434
C               -39.2311138088       55.5614337030      230.8379234271
C               -39.1308876659       54.3680091476      231.5456847216
C               -37.9164440395       53.7186395159      231.6411491728
C               -37.6643169934       64.3124182845      224.9409789805
C               -37.3050773372       65.5034420923      224.3085320537
C               -36.1999533349       66.2093703549      224.7211713369
C               -33.5062316052       63.2918810392      223.9501721691
C               -33.9199876176       64.4622367694      223.3418947343
C               -33.4170903244       65.6735531267      223.7838983818
C               -38.0799637710       56.2310812859      230.5115551170
C               -36.7569217849       54.3351949398      231.1827438067
C               -36.8251988332       63.7555364039      225.8661288865
C               -35.4360888864       65.7140710171      225.7591380551
C               -32.1726500171       62.4146852284      228.2952473966
C               -34.7124458644       63.7654967417      227.0588022433
C               -32.7880389788       63.3591975398      225.1273776677
C               -32.6794061120       65.7346536238      224.9511833279
C               -36.8356470138       55.6417569024      230.7549199360
C               -35.7066330434       64.4720854323      226.2624525158
C               -30.4713195852       56.3743649486      230.2385753912
C               -32.5105669971       64.5910085565      225.7112367515
C               -30.8090456483       59.9955556999      230.2025664629
C               -30.9536933279       58.8071095166      230.7436821973
C               -26.7397938785       58.4510428485      229.3938976871
C               -35.5369263666       58.3432439109      225.3589706942
C               -29.4663707416       60.5159807033      229.8186815975
C               -32.0002060191       54.4761265630      229.9828513067
C               -32.4197533930       59.8594825297      232.5261060694
C               -32.1044065105       57.3883103212      232.5259951774
C               -34.5454465827       54.9616954720      227.9961585999
C               -29.9651561350       57.8037017092      230.1966243368
C               -31.4091304835       63.6267631099      227.7769222438
C               -31.5387591866       54.7492721965      226.9804271281
C               -33.2030106003       59.7976206857      229.5275700041
C               -32.0183956916       60.7456097670      229.7858270731
C               -32.3818295864       64.6917343547      227.2181036971
C               -30.7855328705       55.5196682126      228.0308784991
C               -32.9421745002       55.2202168056      226.7203331196
C               -33.8141656283       57.3911889600      229.8548400696
C               -32.7826293173       56.7573607086      228.8784535516
C               -33.6180653688       56.1539524299      227.7301393814
C               -33.4007447854       58.6793538574      230.6028803156
C               -32.2120222521       58.6115106803      231.5873297206
C               -31.6088744411       55.8078460984      229.3279355157
H               -29.6881303912       53.9409724219      227.9680602465
H               -30.6482912437       63.4114894716      226.0145974598
H               -35.1242409816       59.5124401733      230.9023167291
H               -38.1354204447       57.2522610782      230.1794484325
H               -40.1900101576       55.9951382570      230.6202149460
H               -39.9853290561       54.0059010352      232.0870764365
H               -37.8493646489       52.7778090994      232.1514252379
H               -35.7990083505       53.8558116576      231.2651459140
H               -37.0177143398       62.8057260061      226.3289114748
H               -38.6187147848       63.8636529688      224.7578663882
H               -37.9247229405       65.8979185437      223.5291561309
H               -35.9130511385       67.1360420141      224.2619789614
H               -34.5627860098       66.2143535454      226.0999278570
H               -32.5396731512       62.4504352647      225.6439999103
H               -33.7921974433       62.3336743729      223.5595018082
H               -34.6691097891       64.4409014749      222.5727050326
H               -33.7510825182       66.5839102166      223.3243697377
H               -32.3762161258       66.6815270959      225.3650799361
H               -33.8208937858       64.6148762396      228.7214375681
H               -28.8037614266       60.3182490898      230.6439504665
H               -29.0831324136       60.0268771457      228.9329477016
H               -29.5142959854       61.5731483182      229.6320750618
H               -27.0329760030       59.4740421477      229.5497329918
H               -25.7304377555       58.2982479023      229.7528421201
H               -26.7350518516       58.2311129734      228.3333549651
H               -35.4822157133       59.2278052340      225.9717745480
H               -35.1063542598       58.5315329791      224.3806366902
H               -36.5606619028       58.0357304118      225.1999536660
H               -32.2937204632       53.7333498259      229.2586495922
H               -32.7858788903       54.5854581863      230.7148955287
H               -31.1146309871       54.1256691834      230.4790000768
H               -32.6151795854       59.5441292391      233.5389333353
H               -33.3024640513       60.4025343267      232.2414533374
H               -31.5746421879       60.5207284304      232.5128383071
H               -31.0552268967       57.2415530182      232.7512060062
H               -32.5123144992       56.4637808933      232.1508055645
H               -32.6028685227       57.5976484836      233.4617096872
H               -35.5886133034       55.1354144989      227.7788985406
H               -34.4509617752       54.5241618889      228.9762225054
H               -29.8508198504       58.0890018120      229.1536500420
H               -30.9490159318       54.7836949959      226.0725412750
H               -31.6072699110       53.7171107563      227.2923787710
H               -34.1259853859       60.3599748923      229.5111886507
H               -33.1004351114       59.4041605523      228.5261471067
H               -32.3354122209       61.5502175586      230.4294035615
H               -30.9496156238       64.0110558917      228.6847125033
H               -34.5914939737       57.7413837589      229.1980550216
H               -33.0063685505       55.6056930749      225.7237979212
H               -30.4962408551       56.4833269858      227.6191561845
H               -31.9890620369       65.6698088889      227.4806977982
H               -32.2898656076       57.5975164813      228.4041762844



