23
Energy: -602161.875831 eV PBE+vdW (tier 2 basis)
N    0.754256  -0.577976  0.265217
C    0.153452  0.041953  1.482536
C    1.303001  0.497513  2.382525
O    2.404651  -0.096876  2.370585
H    0.030303  -1.072684  -0.267266
H    1.122142  0.146762  -0.364468
H    -0.455487  0.915638  1.200571
C    -0.747370  -0.964069  2.251021
C    -0.174492  -2.372136  2.566189
C    -0.643618  -2.861061  3.943227
C    -0.463119  -3.423788  1.483824
H    -1.675106  -1.079966  1.670403
H    -1.046239  -0.474597  3.188816
H    0.954805  -2.278951  2.715556
H    -0.354466  -2.173235  4.747228
H    -0.243856  -3.855382  4.173763
H    -1.741798  -2.938164  3.939019
H    -0.025702  -4.395681  1.746437
H    -0.120287  -3.160604  0.467616
H    -1.547672  -3.579453  1.396127
O    1.155813  1.470286  3.233154
H    0.298940  1.941903  3.174953
Pb    2.585851  -2.019433  1.110967
