23
Energy: -602161.6148 eV PBE+vdW (tier 2 basis)
N    -0.307347  0.137687  -0.132584
C    0.034243  -0.169928  1.297580
C    1.511182  0.125566  1.503196
O    2.338261  0.057904  0.549875
H    -1.117119  -0.431620  -0.408934
H    -0.614943  1.115030  -0.224815
H    -0.551899  0.488834  1.956649
C    -0.332551  -1.651080  1.596375
C    -0.153125  -2.194287  3.037931
C    1.249266  -2.749690  3.322228
C    -0.657078  -1.227204  4.117834
H    0.220345  -2.298886  0.892371
H    -1.400452  -1.723570  1.332049
H    -0.837249  -3.057465  3.064672
H    1.262261  -3.241211  4.302871
H    2.039421  -1.987181  3.348350
H    1.536003  -3.508779  2.581992
H    -0.700915  -1.735477  5.088540
H    -1.662805  -0.838419  3.906507
H    0.002949  -0.353302  4.293363
O    1.984018  0.440999  2.663314
H    1.305172  0.413722  3.380114
Pb    1.682067  -0.231263  -1.573865
