23
Energy: -602161.607695 eV PBE+vdW (tier 2 basis)
N    0.806334  -0.154139  0.223225
C    0.085963  -0.032758  1.532994
C    0.981740  0.750067  2.481411
O    2.237569  0.653599  2.411816
H    0.388199  -0.923134  -0.315239
H    0.674944  0.690487  -0.349695
H    -0.862008  0.508196  1.386627
C    -0.211112  -1.455420  2.074378
C    -0.886484  -1.557196  3.462595
C    -1.820315  -2.775527  3.490668
C    0.135192  -1.623473  4.607467
H    0.736283  -2.033130  2.088240
H    -0.855613  -1.924861  1.313738
H    -1.523672  -0.660678  3.596898
H    -2.304923  -2.861286  4.470422
H    -1.260494  -3.706092  3.319347
H    -2.611369  -2.703826  2.732807
H    -0.377061  -1.614281  5.576916
H    0.853325  -0.791345  4.626422
H    0.707660  -2.560881  4.554125
O    0.504648  1.514606  3.411276
H    -0.474871  1.549427  3.443431
Pb    3.210964  -0.497121  0.735764
