23
Energy: -602162.316234 eV PBE+vdW (tier 2 basis)
N    -0.108060  -0.976272  0.877039
C    0.482351  -0.435684  2.168647
C    1.903871  0.024296  1.915162
O    2.500833  0.709558  2.814616
H    0.549335  -1.620815  0.412973
H    -0.976332  -1.498587  1.113028
H    -0.121853  0.435831  2.463151
C    0.419522  -1.511202  3.276278
C    -0.995128  -1.805307  3.837661
C    -1.608352  -0.589846  4.538430
C    -1.968881  -2.426247  2.821842
H    1.050740  -1.145552  4.098171
H    0.892406  -2.434593  2.901287
H    -0.804454  -2.574435  4.603465
H    -1.872639  0.216746  3.834954
H    -0.938149  -0.173397  5.301592
H    -2.542064  -0.871125  5.040952
H    -1.524409  -3.250756  2.241563
H    -2.421530  -1.676413  2.142509
H    -2.835726  -2.856382  3.339470
O    2.507973  -0.298741  0.831061
H    -0.344527  -0.236501  0.201328
Pb    4.450074  0.821423  1.583820
