23
Energy: -602162.258587 eV PBE+vdW (tier 2 basis)
N    1.118181  0.093043  -0.016538
C    0.509643  -0.105038  1.363793
C    1.447161  -0.977513  2.188085
O    1.070914  -1.366149  3.343649
H    0.868708  1.012134  -0.407535
H    2.146874  0.005505  0.011566
H    0.534008  0.878792  1.860918
C    -0.953808  -0.573682  1.260516
C    -1.235533  -1.774815  0.334834
C    -0.443362  -3.034700  0.706759
C    -2.747561  -2.047140  0.329684
H    -1.553736  0.291162  0.940424
H    -1.280055  -0.799921  2.286355
H    -0.977064  -1.496759  -0.709297
H    -0.717767  -3.866675  0.046804
H    -0.664128  -3.346694  1.737688
H    0.649054  -2.916172  0.601729
H    -2.991170  -2.847919  -0.378363
H    -3.320961  -1.158113  0.037768
H    -3.091409  -2.361352  1.324976
O    2.626193  -1.246496  1.758095
H    0.747262  -0.627059  -0.659613
Pb    3.103559  -2.372438  3.780702
