23
Energy: -602162.244776 eV PBE+vdW (tier 2 basis)
N    1.211229  -1.641918  -0.542873
C    0.303883  -0.745122  0.288266
C    1.154120  0.044222  1.272940
O    0.573485  0.849423  2.076042
H    2.167169  -1.257968  -0.605106
H    1.263149  -2.582368  -0.102854
H    -0.099829  0.014050  -0.401823
C    -0.881977  -1.530345  0.882379
C    -0.598759  -2.720163  1.830362
C    0.074600  -3.932274  1.159548
C    0.130927  -2.325565  3.119253
H    -1.492170  -1.872891  0.032087
H    -1.498895  -0.783514  1.402640
H    -1.609176  -3.051554  2.117352
H    -0.354797  -4.173897  0.176098
H    -0.051188  -4.829646  1.778674
H    1.176407  -3.832929  1.075548
H    -0.363838  -1.489619  3.630972
H    1.186306  -2.061630  2.931433
H    0.154607  -3.171292  3.817697
O    2.433609  -0.043745  1.244765
H    0.837839  -1.766168  -1.493682
Pb    2.575301  1.574912  2.962284
