23
Energy: -602161.732056 eV PBE+vdW (tier 2 basis)
N    0.293613  0.303767  0.187283
C    0.260380  0.036546  1.668246
C    1.691258  -0.073271  2.188042
O    2.698299  0.152602  1.452296
H    -0.022861  -0.543403  -0.303005
H    -0.405137  1.018323  -0.047034
H    -0.165677  0.936109  2.145813
C    -0.619954  -1.198636  2.035816
C    -1.524129  -1.046406  3.283078
C    -2.405252  -2.297386  3.400510
C    -0.763089  -0.796130  4.592616
H    0.013340  -2.096301  2.125022
H    -1.286798  -1.379405  1.178885
H    -2.180159  -0.177165  3.103507
H    -3.116211  -2.184794  4.227976
H    -1.804336  -3.196098  3.600105
H    -2.988327  -2.472784  2.487263
H    -1.454506  -0.783071  5.445472
H    -0.277943  0.198179  4.645883
H    -0.053016  -1.612060  4.826980
O    1.929740  -0.395555  3.409549
H    1.104351  -0.552365  3.956228
Pb    2.569943  0.860525  -0.653470
