23
Energy: -602161.725117 eV PBE+vdW (tier 2 basis)
N    0.040176  0.537340  0.364238
C    0.360514  0.058496  1.745964
C    1.797272  -0.417756  1.795048
O    2.418323  -0.771505  0.752896
H    -0.958864  0.348648  0.193313
H    0.137718  1.559106  0.308598
H    0.222408  0.887575  2.458285
C    -0.571457  -1.119563  2.143431
C    -2.074547  -0.758944  2.173684
C    -2.866473  -2.024532  2.537303
C    -2.382392  0.400028  3.125621
H    -0.270251  -1.471229  3.142364
H    -0.392254  -1.965413  1.456240
H    -2.397740  -0.470073  1.151250
H    -3.942754  -1.818826  2.496788
H    -2.629804  -2.356314  3.557744
H    -2.659503  -2.856071  1.850650
H    -2.068340  0.164640  4.152802
H    -3.462167  0.589459  3.154028
H    -1.912186  1.351644  2.832062
O    2.435771  -0.552506  2.915838
H    1.940866  -0.256272  3.708720
Pb    1.551526  -0.516128  -1.298119
