23
Energy: -602161.699682 eV PBE+vdW (tier 2 basis)
N    -0.339612  -0.445335  -0.037857
C    -0.178835  0.096385  1.348634
C    1.289784  0.394369  1.588203
O    2.194856  -0.241794  0.980149
H    -1.208742  -1.000593  -0.060486
H    -0.487357  0.321124  -0.708087
H    -0.770999  1.019595  1.457683
C    -0.632870  -0.950514  2.406383
C    -2.156911  -1.050999  2.646019
C    -2.977437  -1.346800  1.383650
C    -2.402697  -2.110506  3.729433
H    -0.146650  -0.715567  3.364935
H    -0.226315  -1.936549  2.103672
H    -2.482424  -0.074467  3.044176
H    -4.028069  -1.520132  1.648849
H    -2.642668  -2.270348  0.878533
H    -3.002898  -0.510204  0.665475
H    -3.467218  -2.138406  3.992182
H    -1.841956  -1.897034  4.648587
H    -2.122648  -3.115486  3.381655
O    1.684431  1.249565  2.480111
H    0.962991  1.744933  2.922106
Pb    1.698870  -1.703194  -0.656624
