23
Energy: -602162.24631 eV PBE+vdW (tier 2 basis)
N    0.959075  -1.577646  -0.890390
C    0.186375  -0.746128  0.124054
C    1.154014  -0.129392  1.117355
O    0.703168  0.768174  1.901673
H    1.412041  -2.383794  -0.428875
H    0.319026  -1.945960  -1.609363
H    -0.304893  0.057465  -0.442081
C    -0.886386  -1.585023  0.857991
C    -0.461738  -2.642053  1.911843
C    0.474488  -3.738055  1.380589
C    0.032645  -2.081329  3.261344
H    -1.491785  -2.082308  0.083171
H    -1.561282  -0.852876  1.323359
H    -1.416322  -3.136006  2.159035
H    0.101401  -4.183169  0.446676
H    0.554359  -4.563577  2.099128
H    1.510473  -3.381895  1.235485
H    -0.556776  -1.221353  3.605091
H    1.119495  -1.816999  3.213245
H    -0.011696  -2.852814  4.040611
O    2.339485  -0.589893  1.233456
H    1.691715  -1.033556  -1.369715
Pb    2.423118  0.388190  3.398317
