23
Energy: -602161.720186 eV PBE+vdW (tier 2 basis)
N    0.728312  0.070130  0.330307
C    -0.191226  0.244243  1.506742
C    0.481685  1.147787  2.531690
O    1.491829  1.856862  2.250103
H    1.189941  -0.847206  0.404050
H    0.172973  0.016719  -0.531535
H    -1.062542  0.824974  1.153144
C    -0.696210  -1.110485  2.061771
C    -1.903696  -1.071130  3.036339
C    -3.084417  -0.253524  2.502204
C    -2.310955  -2.518612  3.355992
H    0.145206  -1.651927  2.523891
H    -1.015372  -1.699600  1.187444
H    -1.590822  -0.656968  4.025592
H    -2.870363  0.820999  2.385805
H    -3.934383  -0.322109  3.191503
H    -3.423685  -0.642859  1.531574
H    -3.108682  -2.530564  4.107698
H    -1.471432  -3.107076  3.747662
H    -2.693292  -3.017780  2.454582
O    0.005064  1.257179  3.723807
H    -0.742531  0.619566  3.890610
Pb    2.492597  1.828185  0.254102
