28
Energy: -243815.496677 eV PBE+vdW (tier 2 basis)
N    0.535480  -0.365526  -0.079411
C    -0.183479  0.401167  0.936039
C    0.778343  1.549950  1.258650
O    1.854125  1.304962  1.911886
H    -0.089070  -0.838910  -0.729317
H    1.177495  -1.046661  0.324837
H    -1.061460  0.845015  0.452611
C    -0.606015  -0.436511  2.157744
C    -1.372213  0.354374  3.274198
C    -1.722079  -0.585809  4.374853
C    -2.725937  0.920368  2.906819
N    -3.015643  -0.614957  4.551668
C    -3.698598  0.281363  3.694730
C    -3.135583  1.901135  2.011588
C    -5.061225  0.540378  3.625720
C    -4.505453  2.182740  1.917648
C    -5.452146  1.512329  2.703627
H    0.291479  -0.883913  2.609265
H    -1.244214  -1.254888  1.796358
H    -1.049886  -1.216590  4.952606
H    -3.485765  -1.212971  5.234633
H    -2.421546  2.456730  1.404948
H    -5.785742  0.026423  4.255930
H    -4.844036  2.947256  1.219840
H    -6.507450  1.759843  2.603063
O    0.573969  2.701020  0.737878
H    -0.691183  1.129392  3.672235
Ba    2.999082  3.146354  0.702441
