28
Energy: -243815.652864 eV PBE+vdW (tier 2 basis)
N    -0.914515  0.234863  0.898326
C    0.202897  -0.263908  1.691598
C    1.516420  0.382065  1.257160
O    1.488033  1.523040  0.672850
H    -1.784492  0.207108  1.429493
H    -0.753672  1.203334  0.617760
H    0.135546  0.049219  2.757965
C    0.233986  -1.797984  1.739968
C    0.393437  -2.536702  0.373139
C    -0.665367  -2.203894  -0.629166
C    0.222187  -4.032385  0.522562
N    -1.343893  -3.280094  -0.931805
C    -0.868493  -4.434801  -0.262090
C    0.890468  -4.982408  1.282818
C    -1.337372  -5.739755  -0.338055
C    0.443063  -6.308946  1.223954
C    -0.650205  -6.681482  0.430233
H    -0.698896  -2.143036  2.206763
H    1.053388  -2.130660  2.388909
H    -0.885720  -1.234805  -1.063109
H    -2.117590  -3.294976  -1.598547
H    1.743043  -4.716945  1.906912
H    -2.187439  -6.020094  -0.958489
H    0.957361  -7.070618  1.808153
H    -0.969970  -7.721898  0.410763
O    2.632493  -0.172656  1.556113
H    1.378970  -2.271821  -0.051675
Ba    3.923334  1.874239  0.975498
