28
Energy: -243815.408058 eV PBE+vdW (tier 2 basis)
N    -0.021498  0.550382  0.298859
C    0.049316  -0.241386  1.532209
C    1.491872  -0.277413  2.043522
O    2.283405  -1.251840  1.765523
H    0.742189  0.347066  -0.346725
H    0.655487  -2.115237  -0.303661
H    -0.517299  0.309942  2.295022
C    -0.619968  -1.623041  1.398800
C    -0.346772  -2.404103  0.074210
C    -0.269089  -3.879601  0.268743
C    -1.379159  -2.294849  -1.030845
N    -1.065404  -4.491940  -0.564539
C    -1.777023  -3.593099  -1.393162
C    -1.967240  -1.214874  -1.674624
C    -2.717011  -3.884905  -2.373701
C    -2.921079  -1.478298  -2.667949
C    -3.287621  -2.785628  -3.016073
H    -1.705050  -1.481448  1.472802
H    -0.323360  -2.238540  2.259288
H    0.350581  -4.426832  0.975177
H    -1.166833  -5.507712  -0.617304
H    -1.701835  -0.195907  -1.398638
H    -2.997450  -4.906040  -2.628443
H    -3.395405  -0.642864  -3.181192
H    -4.032278  -2.947777  -3.793422
O    1.918224  0.735029  2.712106
H    -0.002438  1.550431  0.495245
Ba    4.163739  -0.139517  3.028771
