28
Energy: -243816.408773 eV PBE+vdW (tier 2 basis)
N    -1.017976  1.399849  2.579007
C    -0.210689  0.167684  2.390150
C    -0.114981  -0.088083  0.893449
O    -1.001702  0.254698  0.099691
H    -1.175553  1.533037  3.582264
H    -0.458395  2.210676  2.294877
H    0.812198  0.264657  2.783208
C    -0.879974  -1.043607  3.119110
C    -2.357535  -1.187034  2.886742
C    -3.350371  -0.669379  3.705146
C    -3.039383  -1.854931  1.795021
N    -4.596665  -0.924628  3.160746
C    -4.443363  -1.679489  2.001315
C    -2.607535  -2.553841  0.644832
C    -5.409233  -2.163188  1.106116
C    -3.561303  -3.029227  -0.243038
C    -4.943699  -2.834913  -0.017496
H    -0.690288  -0.909470  4.193254
H    -0.345824  -1.960176  2.834504
H    -3.264273  -0.163778  4.662699
H    -5.470856  -0.822852  3.669919
H    -1.549144  -2.741215  0.467806
H    -6.476091  -2.045225  1.294497
H    -3.244847  -3.584296  -1.124927
H    -5.660330  -3.240509  -0.730254
O    0.977376  -0.730313  0.540361
H    0.991798  -0.889257  -0.428279
Ba    -3.344361  0.935810  0.967280
