28
Energy: -243815.922965 eV PBE+vdW (tier 2 basis)
N    -0.163684  -0.719497  0.201097
C    0.443855  -1.112988  1.465425
C    0.822419  0.056941  2.377701
O    0.860686  1.246957  1.906727
H    -1.178569  -0.643412  0.255811
H    0.202788  0.176661  -0.127666
H    -0.264405  -1.741842  2.024197
C    1.701318  -1.960992  1.163016
C    1.335143  -3.076706  0.174909
C    0.681765  -2.605638  -1.092069
C    0.375104  -4.153558  0.631862
N    -0.317008  -3.404717  -1.400109
C    -0.593066  -4.335804  -0.365358
C    0.340013  -4.953508  1.766643
C    -1.601195  -5.286958  -0.296952
C    -0.673911  -5.914906  1.867786
C    -1.624853  -6.080425  0.853597
H    2.114022  -2.389962  2.084285
H    2.482258  -1.325641  0.717785
H    1.088760  -1.908205  -1.817419
H    -0.847674  -3.348126  -2.267890
H    1.083176  -4.852444  2.557249
H    -2.332749  -5.418834  -1.093000
H    -0.718882  -6.553541  2.748569
H    -2.394524  -6.843284  0.958241
O    1.113749  -0.182971  3.600980
H    2.284796  -3.555348  -0.142502
Ba    1.469668  2.204747  4.136088
