28
Energy: -243814.622128 eV PBE+vdW (tier 2 basis)
N    0.295015  0.221889  -0.031145
C    -0.072823  0.110459  1.381965
C    1.028011  0.443687  2.419685
O    1.034540  0.015559  3.551315
H    0.371675  1.203743  -0.299683
H    1.226783  -0.171197  -0.183426
H    -0.861779  0.855839  1.577287
C    -0.644097  -1.292233  1.704787
C    -2.087341  -1.454981  1.340983
C    -3.133509  -1.592908  2.239812
C    -2.702475  -1.419148  0.040969
N    -4.342083  -1.673928  1.577457
C    -4.129004  -1.566793  0.227743
C    -2.197850  -1.281332  -1.276116
C    -5.022015  -1.630501  -0.856475
C    -3.088656  -1.359046  -2.353305
C    -4.484102  -1.542080  -2.148158
H    -0.517468  -1.472048  2.779967
H    -0.021387  -2.037842  1.184583
H    -3.101005  -1.624040  3.325274
H    -5.249443  -1.691716  2.034975
H    -1.133044  -1.063065  -1.405107
H    -6.098915  -1.719015  -0.706093
H    -2.716848  -1.234940  -3.370719
H    -5.155174  -1.559733  -3.006654
O    1.941670  1.293812  1.909882
H    2.578605  1.508117  2.621941
Ba    -3.168220  -4.060618  -1.097966
