28
Energy: -243815.492719 eV PBE+vdW (tier 2 basis)
N    -0.869165  0.462467  0.286100
C    -0.112190  -0.052643  1.441448
C    1.307356  0.519442  1.426731
O    1.499386  1.679739  1.943299
H    -1.282881  1.371412  0.490522
H    -0.280412  0.578122  -0.539822
H    -0.583424  0.361112  2.342817
C    -0.180487  -1.587565  1.568739
C    -0.049717  -2.420573  0.256188
C    -1.292651  -2.392822  -0.572901
C    0.127382  -3.904487  0.492333
N    -1.745197  -3.604713  -0.745066
C    -0.931350  -4.585432  -0.127002
C    1.085441  -4.639661  1.176357
C    -1.095663  -5.964517  -0.108001
C    0.947375  -6.033522  1.215084
C    -0.122134  -6.685082  0.585519
H    -1.134093  -1.849216  2.046589
H    0.609940  -1.933253  2.248367
H    -1.805246  -1.516073  -0.959115
H    -2.594455  -3.825516  -1.269313
H    1.927459  -4.156904  1.671033
H    -1.929936  -6.460636  -0.601954
H    1.688680  -6.627782  1.747394
H    -0.196359  -7.769871  0.637843
O    2.276156  -0.111074  0.864560
H    0.787340  -2.010057  -0.339661
Ba    3.892845  1.721104  1.467912
