28
Energy: -243814.794287 eV PBE+vdW (tier 2 basis)
N    -0.002665  -0.486994  -0.169413
C    -0.119753  -0.036804  1.212870
C    1.208119  0.450625  1.795189
O    1.543330  0.298909  2.954648
H    -0.851914  -0.280365  -0.694756
H    0.764053  -0.014692  -0.647141
H    -0.790248  0.839456  1.318297
C    -0.728991  -1.155369  2.104948
C    0.082367  -2.412662  2.079007
C    0.139637  -3.315390  1.024490
C    1.070539  -2.855792  3.020833
N    1.067154  -4.303054  1.282684
C    1.666029  -4.064640  2.493940
C    1.523750  -2.371989  4.274693
C    2.615005  -4.808500  3.213820
C    2.459655  -3.121534  4.994468
C    2.986819  -4.337858  4.481824
H    -1.740356  -1.354918  1.725799
H    -0.834185  -0.772392  3.127767
H    -0.411687  -3.306437  0.090758
H    1.336913  -5.026265  0.621836
H    1.166377  -1.412128  4.647610
H    3.067289  -5.710858  2.799931
H    2.824911  -2.748996  5.951659
H    3.738599  -4.880793  5.053749
O    1.939938  1.110724  0.881004
H    2.739926  1.463137  1.321065
Ba    0.014187  -4.834817  4.836796
