28
Energy: -243815.528776 eV PBE+vdW (tier 2 basis)
N    0.471835  0.684359  0.318394
C    0.264394  -0.115755  1.514023
C    1.607425  -0.526557  2.119183
O    1.694444  -1.557341  2.873853
H    -0.277275  1.358467  0.166166
H    0.091605  -1.067370  -0.686031
H    -0.191883  0.465713  2.343630
C    -0.713601  -1.283087  1.237600
C    -0.518522  -1.880346  -0.182268
C    0.235768  -3.140188  -0.293640
C    -1.734494  -2.160519  -1.022569
N    -0.383792  -3.972574  -1.098387
C    -1.597029  -3.440428  -1.585344
C    -2.860583  -1.408096  -1.333320
C    -2.521066  -4.018771  -2.448650
C    -3.811444  -1.968415  -2.193604
C    -3.645188  -3.248834  -2.743657
H    -1.736701  -0.889618  1.281865
H    -0.637297  -2.042834  2.023404
H    1.177723  -3.406668  0.177655
H    -0.031555  -4.896536  -1.351184
H    -3.011703  -0.409298  -0.925188
H    -2.381678  -5.012184  -2.872685
H    -4.704017  -1.397232  -2.444725
H    -4.406638  -3.648578  -3.411032
O    2.621182  0.240635  1.942663
H    1.357451  1.189137  0.353196
Ba    3.898642  -0.800085  3.780649
