28
Energy: -243815.189821 eV PBE+vdW (tier 2 basis)
N    -0.209986  0.673877  0.443878
C    -0.030359  0.111938  1.809644
C    1.433072  0.014688  2.140910
O    2.309332  0.017020  1.244492
H    -0.541959  1.639375  0.535074
H    -1.035343  0.162024  0.067795
H    -0.546089  0.740157  2.551750
C    -0.677790  -1.336872  1.888492
C    -2.043212  -1.328695  1.307492
C    -2.456818  -2.008120  0.164860
C    -3.198941  -0.633194  1.819031
N    -3.785689  -1.773027  -0.044085
C    -4.277746  -0.935516  0.944607
C    -3.436096  0.190113  2.934563
C    -5.567428  -0.438637  1.142345
C    -4.717155  0.689899  3.134218
C    -5.767585  0.381089  2.247356
H    -0.683894  -1.635139  2.947663
H    -0.030216  -2.052596  1.359452
H    -1.908413  -2.700419  -0.466944
H    -4.346131  -2.210385  -0.766718
H    -2.650805  0.410235  3.659895
H    -6.386816  -0.689509  0.469836
H    -4.922288  1.318313  3.999462
H    -6.761079  0.782813  2.439693
O    1.835217  -0.160897  3.377566
H    1.106945  -0.144807  4.029860
Ba    2.100610  0.584359  -1.095019
