28
Energy: -243815.206073 eV PBE+vdW (tier 2 basis)
N    1.411054  -0.184888  1.008201
C    0.373751  0.010885  2.074737
C    1.157207  0.347648  3.359404
O    2.103309  1.172688  3.245417
H    1.748374  -1.155277  1.119452
H    0.923679  -0.190785  0.105400
H    -0.148128  0.956378  1.839782
C    -0.671888  -1.121913  2.124207
C    -0.130257  -2.421380  2.624603
C    0.605927  -3.382118  1.945459
C    -0.237221  -2.874357  3.984060
N    0.979546  -4.373341  2.819502
C    0.489809  -4.094427  4.079821
C    -0.893809  -2.371036  5.130787
C    0.603579  -4.799266  5.279461
C    -0.767574  -3.069981  6.329104
C    -0.022568  -4.262127  6.400465
H    -1.095123  -1.213062  1.111556
H    -1.513205  -0.791206  2.751474
H    0.821538  -3.478673  0.885120
H    1.459502  -5.226629  2.557825
H    -1.571533  -1.513703  5.076419
H    1.151812  -5.738778  5.339972
H    -1.281144  -2.709019  7.218640
H    0.044785  -4.789392  7.350567
O    0.888100  -0.098895  4.536464
H    0.279064  -0.905587  4.602855
Ba    3.442191  1.717097  1.331873
