28
Energy: -243814.676281 eV PBE+vdW (tier 2 basis)
N    -0.837829  -0.019668  0.240923
C    -0.132923  -0.140051  1.513867
C    1.359311  -0.448567  1.289649
O    1.790902  -0.881003  0.245467
H    -0.899225  0.958771  -0.040110
H    -0.262450  -0.480164  -0.474539
H    -0.210555  0.794003  2.087170
C    -0.729757  -1.293856  2.377607
C    -2.116023  -1.009770  2.865017
C    -2.465740  -0.663468  4.160773
C    -3.339142  -0.951979  2.109786
N    -3.821743  -0.425566  4.255454
C    -4.398658  -0.584308  3.022559
C    -3.661280  -1.165366  0.746703
C    -5.739144  -0.475332  2.610504
C    -4.998590  -1.071487  0.342391
C    -6.028977  -0.736652  1.264380
H    -0.075303  -1.477272  3.240007
H    -0.711354  -2.205912  1.760530
H    -1.830706  -0.556688  5.035568
H    -4.288751  -0.077332  5.088107
H    -2.851740  -1.343748  0.036815
H    -6.526172  -0.168586  3.300854
H    -5.254677  -1.211082  -0.708189
H    -7.053550  -0.628676  0.908989
O    2.089304  -0.210316  2.396767
H    3.022865  -0.430692  2.198770
Ba    -4.953297  -3.404403  2.169628
