28
Energy: -243815.95668 eV PBE+vdW (tier 2 basis)
N    0.430050  -0.701966  0.180985
C    -0.029308  -0.161847  1.513586
C    1.179726  0.047401  2.411007
O    1.031646  0.724503  3.478602
H    0.568663  0.034014  -0.520368
H    -0.295247  -1.380726  -0.175232
H    -0.534687  0.794151  1.335581
C    -1.049873  -1.164668  2.157029
C    -2.049774  -1.631679  1.156259
C    -3.290533  -1.079659  0.883998
C    -1.856591  -2.707126  0.207624
N    -3.865739  -1.747456  -0.162134
C    -3.023625  -2.744412  -0.610918
C    -0.839722  -3.663173  -0.013530
C    -3.188441  -3.677447  -1.636957
C    -1.002151  -4.586608  -1.039178
C    -2.159670  -4.589025  -1.843124
H    -1.518146  -0.638219  2.997706
H    -0.493927  -2.017494  2.577120
H    -3.814124  -0.269335  1.380992
H    -4.793857  -1.561730  -0.525465
H    0.039528  -3.718783  0.633301
H    -4.090145  -3.698555  -2.247836
H    -0.233853  -5.338226  -1.214069
H    -2.256365  -5.331950  -2.633002
O    2.290760  -0.516990  2.109574
H    1.328883  -1.194451  0.312213
Ba    3.360094  0.364444  4.263069
