28
Energy: -243815.654217 eV PBE+vdW (tier 2 basis)
N    -1.082795  0.525071  0.617337
C    -0.292409  -0.005632  1.772976
C    1.172088  -0.161722  1.319449
O    1.467375  -0.258636  0.148040
H    -0.700210  1.461453  0.429308
H    -0.729358  -0.001661  -0.199615
H    -0.350381  0.720409  2.595393
C    -0.799241  -1.383339  2.266514
C    -2.258764  -1.418117  2.596613
C    -2.869157  -1.074277  3.791849
C    -3.321029  -1.809242  1.707436
N    -4.239316  -1.186313  3.676554
C    -4.560412  -1.620243  2.408263
C    -3.357914  -2.181325  0.341160
C    -5.806672  -1.743700  1.771064
C    -4.596091  -2.283929  -0.293864
C    -5.806015  -2.055283  0.410133
H    -0.201699  -1.654708  3.146780
H    -0.575112  -2.143585  1.503306
H    -2.421154  -0.777333  4.735714
H    -4.893023  -1.084395  4.447887
H    -2.437989  -2.386884  -0.207486
H    -6.742611  -1.606794  2.313429
H    -4.641955  -2.576760  -1.342441
H    -6.755362  -2.163652  -0.112648
O    2.007345  -0.214167  2.361051
H    2.920923  -0.354710  2.033703
Ba    -3.849332  0.743549  0.669335
