28
Energy: -243816.66675 eV PBE+vdW (tier 2 basis)
N    0.273110  -1.715525  0.457206
C    0.102480  -0.303620  0.989897
C    1.373690  -0.030065  1.816537
O    2.014213  -1.058489  2.229655
H    -0.609681  -2.237633  0.401828
H    0.938401  -2.165762  1.130576
H    0.018543  0.380020  0.137985
C    -1.149661  -0.192913  1.908392
C    -0.938323  -0.778027  3.274304
C    -1.081030  -2.096731  3.657106
C    -0.392867  -0.089054  4.416699
N    -0.609769  -2.274298  4.938010
C    -0.169625  -1.073524  5.434670
C    -0.122692  1.266651  4.711883
C    0.410463  -0.751255  6.671732
C    0.422689  1.593197  5.955468
C    0.712126  0.590598  6.915045
H    -2.010566  -0.648809  1.395668
H    -1.385302  0.876864  1.979579
H    -1.510575  -2.936794  3.118959
H    -0.672057  -3.140774  5.462711
H    -0.342753  2.049947  3.987236
H    0.580189  -1.509483  7.436188
H    0.596399  2.638999  6.209414
H    1.124550  0.877563  7.881715
O    1.633499  1.151395  2.152249
H    0.708555  -1.725033  -0.474267
Ba    2.766202  0.347717  4.334991
