28
Energy: -243815.874489 eV PBE+vdW (tier 2 basis)
N    1.078189  -1.542903  0.507003
C    0.621748  -1.835790  1.835705
C    -0.767672  -2.467667  1.969108
O    -1.132469  -3.141084  2.960547
H    1.149353  -2.361044  -0.094721
H    0.538071  -0.823522  0.028241
H    1.308171  -2.570566  2.286913
C    0.693626  -0.534943  2.707855
C    0.725269  -0.748037  4.189058
C    1.858114  -0.951506  4.955007
C    -0.379916  -0.785309  5.107177
N    1.517841  -1.155433  6.275501
C    0.156182  -1.065889  6.415000
C    -1.777536  -0.611839  4.973499
C    -0.667479  -1.249353  7.537679
C    -2.596732  -0.792985  6.090977
C    -2.049257  -1.126984  7.356743
H    -0.124392  0.144510  2.426596
H    1.622804  -0.049999  2.380156
H    2.901261  -0.951124  4.652588
H    2.185265  -1.240011  7.036359
H    -2.213303  -0.330758  4.014429
H    -0.250075  -1.452258  8.524497
H    -3.672155  -0.639692  6.002809
H    -2.712164  -1.237702  8.214063
O    -1.568434  -2.252245  0.948397
H    -2.432667  -2.696616  1.075865
Ba    -1.411644  -3.556251  5.401948
