28
Energy: -243815.458389 eV PBE+vdW (tier 2 basis)
N    0.019111  -0.434816  0.079209
C    -0.380953  0.236820  1.322144
C    0.553820  1.452507  1.348375
O    1.795125  1.281152  1.617578
H    -0.758253  -0.918488  -0.366859
H    0.773323  -1.103799  0.234635
H    -1.397398  0.624739  1.172708
C    -0.295672  -0.656850  2.568808
C    -0.767052  -0.009797  3.908127
C    -2.236536  0.239619  3.987018
C    -0.533273  -0.865558  5.132510
N    -2.737840  -0.360701  5.033026
C    -1.762679  -1.058021  5.783066
C    0.606535  -1.449883  5.666363
C    -1.928335  -1.803494  6.944153
C    0.471086  -2.208648  6.836856
C    -0.770872  -2.383105  7.464548
H    0.750248  -0.960890  2.717221
H    -0.874853  -1.573197  2.389163
H    -2.862078  0.823935  3.316339
H    -3.727193  -0.327159  5.289392
H    1.583632  -1.326375  5.200864
H    -2.897588  -1.931092  7.424177
H    1.353384  -2.675399  7.272514
H    -0.834256  -2.980212  8.372561
O    0.121906  2.579303  0.923926
H    -0.258614  0.969383  4.015974
Ba    2.348450  3.104642  0.021486
