28
Energy: -243815.840275 eV PBE+vdW (tier 2 basis)
N    0.790572  -1.582236  0.348031
C    0.468125  -1.794185  1.733243
C    -0.931068  -2.366101  1.869420
O    -1.307552  -3.051729  2.846724
H    1.790919  -1.471061  0.197443
H    0.300191  -0.798683  -0.080963
H    1.142590  -2.568142  2.129355
C    0.608596  -0.530153  2.686114
C    0.647316  -0.821232  4.153141
C    1.775116  -1.129184  4.891960
C    -0.450112  -0.862036  5.081716
N    1.437345  -1.396062  6.202413
C    0.083845  -1.245972  6.363941
C    -1.838207  -0.611650  4.976655
C    -0.736527  -1.450322  7.485727
C    -2.654369  -0.814282  6.092828
C    -2.111677  -1.245884  7.330909
H    -0.182605  0.194035  2.444217
H    1.553341  -0.061553  2.381010
H    2.814782  -1.161466  4.579816
H    2.106710  -1.558406  6.948741
H    -2.269232  -0.255312  4.040737
H    -0.319680  -1.730071  8.453832
H    -3.721316  -0.601853  6.027313
H    -2.770253  -1.369892  8.189782
O    -1.746819  -2.044860  0.893144
H    -2.629396  -2.452143  1.016314
Ba    -1.625638  -3.595563  5.252436
