28
Energy: -243814.739544 eV PBE+vdW (tier 2 basis)
N    -0.176190  -1.082704  0.193414
C    0.006026  -0.344734  1.439825
C    1.495066  -0.259307  1.780682
O    2.357327  -0.873623  1.191416
H    -0.700399  -0.530605  -0.483065
H    0.744284  -1.275871  -0.211645
H    -0.378985  0.684057  1.370606
C    -0.763102  -1.017229  2.626166
C    -0.141781  -2.305587  3.071584
C    0.598402  -2.489867  4.228643
C    -0.048513  -3.549073  2.354563
N    1.112022  -3.769405  4.282745
C    0.751033  -4.452536  3.151111
C    -0.549016  -4.001857  1.109175
C    1.014806  -5.773587  2.747218
C    -0.296701  -5.322089  0.716308
C    0.471864  -6.201637  1.527907
H    -1.794664  -1.171614  2.279858
H    -0.804866  -0.320849  3.473298
H    0.812369  -1.779221  5.021496
H    1.756394  -4.101906  4.994641
H    -1.069254  -3.290046  0.463619
H    1.646020  -6.437193  3.339880
H    -0.655458  -5.674244  -0.251185
H    0.687763  -7.209160  1.172954
O    1.717271  0.545960  2.841595
H    2.685237  0.600186  2.977348
Ba    -2.017139  -5.591882  3.113667
