28
Energy: -243814.680182 eV PBE+vdW (tier 2 basis)
N    0.829127  -0.661640  0.225218
C    0.150146  -0.167091  1.418656
C    1.134616  -0.013091  2.582917
O    1.324144  -0.853890  3.448760
H    1.396200  0.062964  -0.213775
H    1.437125  -1.456667  0.427465
H    -0.264068  0.822365  1.179076
C    -1.002023  -1.139122  1.768591
C    -1.973600  -0.637217  2.794418
C    -3.105642  0.120312  2.532342
C    -1.929265  -0.772700  4.227195
N    -3.770049  0.431420  3.700015
C    -3.087582  -0.095962  4.766098
C    -1.041854  -1.418017  5.126781
C    -3.394804  -0.111767  6.137197
C    -1.353328  -1.434640  6.490234
C    -2.524817  -0.804212  6.991035
H    -0.554423  -2.088708  2.098330
H    -1.525789  -1.335884  0.824711
H    -3.484984  0.473880  1.577648
H    -4.579931  1.042696  3.757894
H    -0.114777  -1.852117  4.746747
H    -4.265030  0.413067  6.533958
H    -0.666619  -1.908819  7.191917
H    -2.722244  -0.810697  8.062680
O    1.831145  1.131337  2.485479
H    2.527564  1.132232  3.173469
Ba    -3.490416  -3.037153  5.155165
