28
Energy: -243816.370809 eV PBE+vdW (tier 2 basis)
N    0.163888  -1.574971  -0.006734
C    0.133811  -0.604742  1.117722
C    1.550052  -0.508374  1.683760
O    2.352853  -1.439177  1.571235
H    -0.801294  -1.789255  -0.271507
H    0.555913  -1.104921  -0.829693
H    -0.198540  0.390935  0.778297
C    -0.839264  -1.069335  2.254324
C    -0.365472  -2.276150  3.003183
C    0.322057  -2.268162  4.203013
C    -0.384533  -3.647151  2.563843
N    0.767671  -3.532320  4.503093
C    0.383155  -4.403202  3.513678
C    -0.958202  -4.331014  1.464523
C    0.681244  -5.761388  3.323231
C    -0.668863  -5.684062  1.280635
C    0.167339  -6.384522  2.184618
H    -1.824645  -1.234743  1.792444
H    -0.977884  -0.228788  2.947688
H    0.532304  -1.439688  4.872680
H    1.255827  -3.786497  5.356406
H    -1.639828  -3.823656  0.781854
H    1.273033  -6.321177  4.047676
H    -1.121723  -6.224589  0.449845
H    0.367485  -7.442008  2.017965
O    1.905975  0.557673  2.373364
H    1.236855  1.269963  2.352561
Ba    1.890784  -3.807677  0.690293
