28
Energy: -243816.394541 eV PBE+vdW (tier 2 basis)
N    -0.331700  0.118522  -0.027656
C    -0.657942  0.002835  1.445641
C    0.602841  0.611973  2.130914
O    0.461595  0.973254  3.357040
H    -0.565725  -0.715714  -0.577861
H    0.729147  0.276784  0.027373
H    -1.540281  0.615980  1.658854
C    -0.901639  -1.489807  1.800653
C    -0.701216  -1.867073  3.238225
C    0.207701  -2.804135  3.683225
C    -1.375891  -1.376359  4.408622
N    0.159318  -2.905548  5.055212
C    -0.794333  -2.044847  5.540928
C    -2.396634  -0.427724  4.638423
C    -1.180265  -1.759471  6.860371
C    -2.783595  -0.143951  5.951406
C    -2.175555  -0.796510  7.052209
H    -0.204592  -2.099202  1.205280
H    -1.917550  -1.758388  1.470799
H    0.896633  -3.420497  3.113591
H    0.672996  -3.589006  5.602236
H    -2.897913  0.067131  3.806714
H    -0.745180  -2.290063  7.707790
H    -3.592875  0.562655  6.134109
H    -2.518739  -0.575940  8.062274
O    1.619446  0.687817  1.438080
H    -0.764382  0.934562  -0.475631
Ba    0.132331  1.012723  5.688181
