28
Energy: -243815.306638 eV PBE+vdW (tier 2 basis)
N    1.288340  0.293200  1.197438
C    0.087461  0.240841  2.085869
C    0.451404  0.818059  3.483449
O    1.321628  1.807478  3.424338
H    1.922853  -0.468545  1.462228
H    1.004434  0.079959  0.236547
H    -0.629964  0.965641  1.664301
C    -0.659137  -1.112171  2.131137
C    0.053403  -2.286462  2.741249
C    0.926020  -3.167536  2.072919
C    -0.085683  -2.806134  4.040792
N    1.332328  -4.155986  2.905819
C    0.724767  -3.974822  4.134793
C    -0.875590  -2.395405  5.214834
C    0.810989  -4.741277  5.282454
C    -0.748460  -3.261564  6.399345
C    0.062809  -4.366071  6.428977
H    -0.963699  -1.364857  1.104011
H    -1.591079  -0.935196  2.684316
H    1.242034  -3.162813  1.033342
H    1.936283  -4.930790  2.650329
H    -1.949108  -2.268760  4.967343
H    1.439962  -5.632837  5.315406
H    -1.331490  -2.992003  7.280574
H    0.133899  -4.975423  7.328057
O    -0.076245  0.408840  4.500368
H    -0.613487  -1.344766  5.481425
Ba    2.570328  2.776398  1.788339
