28
Energy: -606655.355419 eV PBE+vdW (tier 2 basis)
N    2.225842  0.606068  2.130569
C    1.554720  -0.730724  2.009789
C    0.896838  -0.819370  0.625409
O    1.077660  0.058147  -0.254929
H    1.650135  1.229399  2.712125
H    3.109123  0.503063  2.644029
H    2.358491  -1.488480  1.984039
C    0.629569  -1.040397  3.228856
C    0.192195  -2.518457  3.374938
C    -0.208690  -2.963811  4.803265
N    -1.565981  -2.589544  5.201698
C    -2.385178  -3.354840  5.970832
N    -3.667900  -3.004032  6.092633
N    -1.931613  -4.453944  6.578035
H    -0.238286  -0.362825  3.203527
H    1.222498  -0.772408  4.116862
H    1.035146  -3.172645  3.099432
H    -0.656281  -2.764915  2.713064
H    0.533594  -2.592441  5.529333
H    -0.158621  -4.059878  4.815618
H    -1.845994  -1.617577  5.113768
H    -4.258391  -3.408394  6.813432
H    -2.578383  -5.120317  6.990825
H    -0.953452  -4.576993  6.813149
H    -4.115514  -2.370066  5.440098
O    0.163204  -1.832954  0.287977
H    0.048754  -2.502844  0.996714
Pb    2.532519  1.782177  -0.110087
