28
Energy: -606656.360976 eV PBE+vdW (tier 2 basis)
N    -0.540626  1.106777  1.789611
C    0.559185  0.358924  2.537922
C    1.881114  0.607864  1.790212
O    1.914707  1.485399  0.861585
H    -0.923320  0.546323  1.012700
H    -0.159617  1.974290  1.372244
H    0.663923  0.875814  3.506742
C    0.225315  -1.125181  2.763352
C    -0.976582  -1.391084  3.693490
C    -1.158876  -2.904150  3.954154
N    -2.381378  -3.218413  4.698652
C    -2.467609  -3.885299  5.873776
N    -3.586611  -4.552843  6.162680
N    -1.454015  -3.877588  6.747234
H    1.136469  -1.569780  3.190418
H    0.080298  -1.617789  1.787260
H    -1.909154  -1.006585  3.248448
H    -0.842527  -0.863842  4.650578
H    -0.299876  -3.311216  4.502544
H    -1.196847  -3.447008  2.997079
H    -3.252630  -3.153152  4.179429
H    -3.793038  -4.853664  7.110426
H    -4.252742  -4.821531  5.446096
H    -1.451074  -4.508619  7.542281
H    -0.750066  -3.151094  6.743189
O    2.923676  -0.025947  2.144278
H    -1.323474  1.358254  2.409936
Pb    4.280375  1.158138  0.620683
