28
Energy: -606655.473004 eV PBE+vdW (tier 2 basis)
N    1.508996  -1.200970  0.106712
C    0.237015  -0.406182  0.198546
C    0.506136  0.838079  1.047820
O    1.474385  0.899073  1.845710
H    1.302284  -2.200236  0.224802
H    1.899630  -1.121804  -0.840698
H    -0.037604  -0.072367  -0.815231
C    -0.921339  -1.278004  0.777583
C    -2.334388  -0.659146  0.748758
C    -3.404001  -1.696466  1.171579
N    -4.740245  -1.111302  1.305129
C    -5.882584  -1.558144  0.725701
N    -7.049048  -1.329007  1.330602
N    -5.854835  -2.211879  -0.440962
H    -0.663226  -1.579013  1.805809
H    -0.924721  -2.194659  0.165869
H    -2.572251  -0.285697  -0.259931
H    -2.397252  0.193484  1.442497
H    -3.125120  -2.143692  2.138647
H    -3.452408  -2.523231  0.452064
H    -4.882007  -0.500069  2.105178
H    -7.108803  -1.096361  2.316578
H    -5.084353  -2.117777  -1.089979
H    -6.683583  -2.684745  -0.788300
H    -7.929704  -1.419012  0.832177
O    -0.275466  1.873522  1.004329
H    -0.987232  1.827911  0.332510
Pb    3.283722  -0.455305  1.773500
