28
Energy: -606655.801422 eV PBE+vdW (tier 2 basis)
N    0.035326  1.460124  2.447028
C    0.259289  0.010786  2.112645
C    0.975450  -0.047285  0.761956
O    1.551053  0.949208  0.251769
H    -0.925594  1.721863  2.186686
H    0.078235  1.586013  3.465058
H    1.007419  -0.368845  2.832748
C    -1.032420  -0.851927  2.233225
C    -0.775877  -2.354091  2.484352
C    -2.034571  -3.238467  2.526092
N    -2.790471  -3.118858  3.781078
C    -4.040568  -3.619535  3.959447
N    -4.643107  -3.458972  5.140927
N    -4.683214  -4.228262  2.959380
H    -1.646214  -0.711552  1.329992
H    -1.607988  -0.436560  3.074654
H    -0.198659  -2.487794  3.413919
H    -0.150049  -2.767502  1.684270
H    -1.707595  -4.280220  2.376145
H    -2.704760  -2.975336  1.694606
H    -2.235382  -3.055880  4.631057
H    -4.274287  -2.837970  5.851666
H    -5.663438  -4.478603  3.048930
H    -4.190102  -4.631094  2.171522
H    -5.489187  -3.968103  5.376388
O    0.992080  -1.207968  0.186892
H    1.512562  -1.207437  -0.651696
Pb    1.595073  3.021269  1.216265
