28
Energy: -606656.427024 eV PBE+vdW (tier 2 basis)
N    1.605584  -1.434212  -0.528587
C    0.904666  -0.876226  0.706787
C    1.791891  0.244703  1.277090
O    1.496894  0.760565  2.399775
H    2.139664  -0.683021  -1.001169
H    2.282952  -2.172380  -0.282410
H    -0.000465  -0.368819  0.331673
C    0.514188  -1.967158  1.717002
C    -0.599854  -2.919793  1.237390
C    -1.045210  -3.879205  2.359650
N    -2.145800  -4.734215  1.912321
C    -2.433812  -5.965966  2.394226
N    -3.347654  -6.711119  1.767106
N    -1.793261  -6.450497  3.463806
H    0.180106  -1.430279  2.617127
H    1.415192  -2.528374  2.015985
H    -0.273469  -3.523142  0.375301
H    -1.466182  -2.322827  0.908228
H    -1.343121  -3.295580  3.246988
H    -0.205954  -4.528414  2.647321
H    -2.873847  -4.300968  1.351023
H    -3.751339  -7.532205  2.207029
H    -1.891402  -7.427173  3.724246
H    -1.380410  -5.840926  4.159483
H    -3.663535  -6.495388  0.827976
O    2.773866  0.674125  0.580387
H    0.937476  -1.835165  -1.202205
Pb    3.201840  2.379662  2.215451
