28
Energy: -606656.143170 eV PBE+vdW (tier 2 basis)
N    0.862757  -1.657726  0.385694
C    0.633342  -0.311368  1.063480
C    2.001049  0.358379  1.272078
O    3.007750  -0.077754  0.613273
H    1.665173  -1.596074  -0.265613
H    0.031868  -1.957014  -0.146838
H    0.153659  0.317068  0.292732
C    -0.331635  -0.379152  2.259102
C    0.012413  -1.315548  3.432630
C    -1.022100  -1.137052  4.567701
N    -0.767301  -2.010537  5.717012
C    -1.689551  -2.721679  6.412339
N    -1.458738  -3.000701  7.697324
N    -2.810334  -3.161092  5.831100
H    -1.326219  -0.627503  1.856783
H    -0.416337  0.657901  2.617650
H    1.018428  -1.092854  3.822827
H    0.011969  -2.374582  3.126122
H    -2.035176  -1.331384  4.194754
H    -1.017202  -0.089062  4.907710
H    0.101466  -1.845027  6.218076
H    -1.987395  -3.717583  8.185421
H    -0.789017  -2.477117  8.250687
H    -3.565002  -3.550023  6.387875
H    -2.898504  -3.250918  4.827357
O    2.086086  1.393389  2.004185
H    1.082421  -2.400729  1.065579
Pb    4.291130  1.829741  1.272963
