28
Energy: -606654.760668 eV PBE+vdW (tier 2 basis)
N    2.415205  -0.454909  0.900992
C    1.176665  -1.157296  0.426318
C    0.461033  -0.244260  -0.578043
O    0.996981  0.797346  -1.030440
H    2.243347  -0.043932  1.828233
H    3.165844  -1.140100  1.046774
H    1.514061  -2.019789  -0.176712
C    0.308979  -1.693831  1.607031
C    -0.753517  -2.757748  1.236289
C    -1.197169  -3.672181  2.407922
N    -2.139285  -3.082406  3.363120
C    -3.375781  -3.568872  3.652000
N    -4.073303  -4.259542  2.746592
N    -3.901721  -3.331921  4.855106
H    -0.147499  -0.845090  2.139791
H    1.024838  -2.162522  2.299927
H    -0.341765  -3.436571  0.471973
H    -1.666235  -2.294355  0.821037
H    -0.310337  -4.019633  2.959873
H    -1.655687  -4.575772  1.988625
H    -1.746422  -2.485138  4.084381
H    -4.911920  -4.767151  3.012374
H    -4.889780  -3.481861  5.037826
H    -3.329356  -3.079165  5.653767
H    -3.856867  -4.234733  1.758475
O    -0.712207  -0.540400  -1.042139
H    -1.093057  -1.363253  -0.665621
Pb    3.119958  1.462082  -0.622470
