28
Energy: -606655.970924 eV PBE+vdW (tier 2 basis)
N    0.989084  0.010567  0.131162
C    0.402701  -0.071955  1.537338
C    1.538446  0.204249  2.537838
O    1.350141  -0.009808  3.775615
H    1.434597  -0.872956  -0.157626
H    0.265120  0.240025  -0.566126
H    -0.251295  0.812740  1.625655
C    -0.467930  -1.319953  1.773260
C    0.217246  -2.692513  1.655950
C    -0.650230  -3.879064  2.125042
N    -1.758980  -4.187317  1.212824
C    -2.858480  -4.906529  1.560897
N    -3.828871  -5.081899  0.660388
N    -2.993652  -5.401032  2.794336
H    -1.335056  -1.251957  1.098922
H    -0.876849  -1.193504  2.786830
H    1.120275  -2.720234  2.284643
H    0.558581  -2.894689  0.625791
H    -1.076324  -3.645381  3.111109
H    0.008004  -4.754980  2.240537
H    -1.533674  -4.216577  0.221484
H    -3.872143  -4.540398  -0.195447
H    -3.876636  -5.802120  3.096931
H    -2.194552  -5.581126  3.390346
H    -4.567937  -5.762991  0.805451
O    2.620214  0.736572  2.109033
H    1.722267  0.740747  0.094843
Pb    3.378934  1.066080  4.352975
