28
Energy: -606655.446659 eV PBE+vdW (tier 2 basis)
N    1.142166  -1.400464  0.838237
C    0.160005  -0.283052  0.646924
C    0.806827  1.025916  1.133052
O    2.001822  1.074266  1.516782
H    0.849634  -1.984290  1.632188
H    1.128310  -2.023231  0.023237
H    0.036611  -0.146664  -0.442604
C    -1.233274  -0.565936  1.281314
C    -1.997783  -1.722849  0.602770
C    -3.312207  -2.156180  1.292558
N    -4.478673  -1.340280  0.946047
C    -5.739275  -1.817681  0.784935
N    -6.667491  -1.024074  0.243951
N    -6.051391  -3.067906  1.136508
H    -1.830457  0.358466  1.225068
H    -1.097846  -0.763771  2.357825
H    -1.365943  -2.624022  0.594513
H    -2.201451  -1.481964  -0.451602
H    -3.175313  -2.196775  2.386133
H    -3.526413  -3.177402  0.953402
H    -4.409702  -0.331214  1.028756
H    -6.422403  -0.202934  -0.297766
H    -5.532387  -3.573117  1.845305
H    -6.932811  -3.481128  0.845636
H    -7.655448  -1.250936  0.306524
O    0.164418  2.151037  1.129037
H    -0.760565  2.108169  0.811040
Pb    3.512038  -0.589983  1.371228
