28
Energy: -606655.441808 eV PBE+vdW (tier 2 basis)
N    0.729343  0.333924  0.059943
C    0.108089  -0.097853  1.354255
C    1.131975  -0.962651  2.112756
O    2.344615  -0.983529  1.782756
H    0.426222  -0.292749  -0.696708
H    0.381858  1.263630  -0.200038
H    0.018045  0.812462  1.975813
C    -1.301177  -0.733475  1.217419
C    -2.353091  0.226320  0.617574
C    -3.825743  -0.127081  0.896824
N    -4.300544  -1.314736  0.175012
C    -5.458430  -1.964053  0.473413
N    -5.788432  -3.053137  -0.224613
N    -6.236587  -1.550300  1.476561
H    -1.641150  -1.012321  2.229091
H    -1.233296  -1.673236  0.647818
H    -2.205766  0.340198  -0.468396
H    -2.214765  1.231197  1.046789
H    -4.428789  0.755775  0.628074
H    -3.960595  -0.305778  1.973648
H    -4.008662  -1.399883  -0.795407
H    -5.128960  -3.519908  -0.836531
H    -6.214063  -0.595848  1.816312
H    -7.019884  -2.116032  1.790891
H    -6.717956  -3.457652  -0.165114
O    0.811481  -1.658958  3.155381
H    -0.136665  -1.633864  3.400811
Pb    3.286928  0.222541  0.127665
