28
Energy: -606655.919069 eV PBE+vdW (tier 2 basis)
N    1.764068  -1.053398  0.331746
C    0.835913  -0.455761  1.383588
C    1.695123  -0.011484  2.579430
O    1.127236  0.329139  3.663733
H    1.347889  -1.001576  -0.610261
H    2.664905  -0.543631  0.320795
H    0.480054  0.492546  0.945022
C    -0.399107  -1.324813  1.682785
C    -0.158043  -2.748195  2.216644
C    -1.435043  -3.432581  2.759474
N    -2.433980  -3.808777  1.751130
C    -2.888553  -5.066295  1.517515
N    -4.111412  -5.233047  1.008980
N    -2.124867  -6.133244  1.770487
H    -1.009566  -1.348135  0.766830
H    -0.980951  -0.744200  2.414849
H    0.549086  -2.720092  3.060996
H    0.287720  -3.396858  1.444635
H    -1.922966  -2.772696  3.492784
H    -1.148774  -4.334421  3.313697
H    -3.059837  -3.073186  1.436795
H    -4.819299  -4.507993  1.058500
H    -2.517843  -7.069322  1.758744
H    -1.124006  -6.064452  1.899720
H    -4.405130  -6.124626  0.621149
O    2.959779  0.099586  2.423804
H    1.981585  -2.042338  0.524014
Pb    3.148018  1.169849  4.558415
