28
Energy: -606656.286500 eV PBE+vdW (tier 2 basis)
N    -0.038362  0.687111  2.603464
C    0.955249  -0.467709  2.517838
C    2.140821  0.000983  1.656135
O    3.032242  -0.839045  1.318313
H    -0.611166  0.636765  3.458146
H    0.466596  1.591081  2.597788
H    1.361383  -0.585316  3.536900
C    0.308591  -1.784069  2.057078
C    -0.700826  -2.393845  3.051803
C    -1.094913  -3.831364  2.647958
N    -1.956470  -4.467025  3.649825
C    -3.051270  -5.230972  3.418290
N    -3.402086  -6.151014  4.319703
N    -3.791264  -5.069334  2.315992
H    1.145601  -2.482039  1.905560
H    -0.147428  -1.641257  1.063342
H    -1.614088  -1.783031  3.130694
H    -0.247713  -2.422078  4.056128
H    -0.186200  -4.441942  2.521978
H    -1.607811  -3.838264  1.678700
H    -1.547856  -4.583917  4.573496
H    -2.753323  -6.495264  5.019448
H    -4.515830  -5.738689  2.076787
H    -3.768211  -4.216010  1.773297
H    -4.327174  -6.569951  4.314503
O    2.234298  1.237217  1.345842
H    -0.680086  0.699754  1.796048
Pb    4.365297  0.826225  0.315946
