28
Energy: -606655.405429 eV PBE+vdW (tier 2 basis)
N    1.101830  -1.152230  -0.289135
C    0.282547  -0.353402  0.679358
C    1.172196  0.759912  1.263243
O    2.288650  1.040784  0.758676
H    1.441239  -2.008548  0.167635
H    0.509731  -1.473779  -1.062942
H    -0.468888  0.192146  0.079011
C    -0.469021  -1.202099  1.740587
C    -1.509868  -2.168947  1.130281
C    -2.630910  -2.644320  2.079687
N    -2.245057  -3.707811  3.010644
C    -3.087320  -4.671357  3.466083
N    -4.395256  -4.621763  3.203286
N    -2.584637  -5.692803  4.164917
H    -1.006797  -0.504949  2.405123
H    0.265388  -1.725677  2.373639
H    -1.022246  -3.048300  0.683650
H    -2.031762  -1.649170  0.311230
H    -3.429264  -3.048122  1.443574
H    -3.051049  -1.780726  2.623178
H    -1.390617  -3.596663  3.547159
H    -4.989640  -5.426431  3.380495
H    -3.186872  -6.314859  4.695613
H    -1.597267  -5.921275  4.146776
H    -4.870640  -3.753896  2.985305
O    0.794478  1.496135  2.258240
H    -0.079668  1.273507  2.640720
Pb    3.173719  0.118648  -1.097034
