28
Energy: -606654.663560 eV PBE+vdW (tier 2 basis)
N    0.109221  0.348838  0.312604
C    -0.069875  0.184180  1.793992
C    1.298597  -0.175713  2.395892
O    2.365035  -0.026284  1.749311
H    -0.178350  -0.515210  -0.165725
H    -0.529318  1.073905  -0.033742
H    -0.295708  1.187726  2.197414
C    -1.235201  -0.785488  2.167635
C    -1.903965  -0.521834  3.536687
C    -2.963718  -1.570084  3.957715
N    -4.258919  -1.480724  3.275340
C    -5.438507  -1.171400  3.876444
N    -6.575126  -1.644417  3.362233
N    -5.471293  -0.390852  4.959658
H    -0.878478  -1.825905  2.101806
H    -2.000953  -0.665321  1.386528
H    -2.346009  0.486023  3.544404
H    -1.171054  -0.520525  4.364266
H    -3.139455  -1.474229  5.036567
H    -2.570762  -2.587046  3.810507
H    -4.354066  -1.996636  2.405948
H    -6.593607  -2.452412  2.748627
H    -6.319360  -0.300649  5.511287
H    -4.698384  0.208006  5.220404
H    -7.477264  -1.272212  3.644679
O    1.418964  -0.611430  3.609325
H    0.567612  -0.714688  4.086510
Pb    2.536943  0.772380  -0.355316
