28
Energy: -606656.417464 eV PBE+vdW (tier 2 basis)
N    2.644190  -0.326128  1.207567
C    2.214058  -0.597286  2.646516
C    2.742203  -1.990764  3.031259
O    3.581726  -2.569937  2.260530
H    2.754416  0.680700  1.021017
H    1.963169  -0.698797  0.528145
H    2.785809  0.113570  3.267087
C    0.706415  -0.395449  2.870991
C    0.227459  1.066369  2.755282
C    -1.262673  1.203892  3.126911
N    -1.703522  2.596099  3.021377
C    -2.724529  3.152921  3.713223
N    -2.884598  4.478516  3.682921
N    -3.548541  2.394770  4.444529
H    0.507512  -0.771766  3.885221
H    0.143210  -1.052945  2.187932
H    0.368473  1.441271  1.727082
H    0.822071  1.710040  3.421504
H    -1.409205  0.880819  4.167568
H    -1.873171  0.552086  2.479342
H    -1.344976  3.146457  2.246356
H    -2.147657  5.100840  3.370225
H    -3.747635  4.913102  3.994348
H    -3.698437  1.415217  4.235020
H    -4.206231  2.822213  5.089502
O    2.380318  -2.512165  4.131590
H    3.546731  -0.797490  1.016353
Pb    3.825413  -4.355155  3.846601
