28
Energy: -606656.353506 eV PBE+vdW (tier 2 basis)
N    2.276118  -0.068898  2.955909
C    1.102039  -1.016380  3.185552
C    1.605408  -2.448222  2.931622
O    0.771995  -3.406910  2.918870
H    3.162709  -0.532533  3.223430
H    2.366157  0.194205  1.962412
H    0.885386  -0.965176  4.265963
C    -0.146638  -0.626750  2.377309
C    -0.790588  0.716830  2.777035
C    -2.102990  0.962418  1.997239
N    -2.657633  2.301891  2.207685
C    -3.884866  2.607802  2.690319
N    -4.445078  3.771109  2.351923
N    -4.536810  1.767449  3.502284
H    -0.863755  -1.447031  2.529564
H    0.097668  -0.637699  1.301817
H    -0.107375  1.556639  2.568210
H    -0.992977  0.736471  3.859110
H    -2.863743  0.220007  2.270387
H    -1.925813  0.836294  0.917932
H    -2.182262  3.064778  1.733311
H    -4.135937  4.302620  1.544814
H    -5.515575  1.918609  3.725136
H    -4.053911  1.061094  4.042100
H    -5.233278  4.148416  2.869363
O    2.859764  -2.650065  2.789769
H    2.182103  0.799134  3.502460
Pb    2.478885  -5.017103  2.677474
