28
Energy: -606655.855677 eV PBE+vdW (tier 2 basis)
N    0.290731  1.825528  1.933189
C    0.278196  0.365140  2.293663
C    1.407997  -0.316986  1.523927
O    2.335411  0.320882  0.960866
H    -0.432777  2.003233  1.222403
H    0.000528  2.379951  2.747723
H    0.585732  0.295335  3.352946
C    -1.131176  -0.277018  2.137484
C    -1.396988  -1.520531  3.011958
C    -2.867857  -1.970389  2.904450
N    -3.123302  -3.120796  3.773173
C    -4.094152  -4.044931  3.590447
N    -4.093398  -5.147769  4.344226
N    -5.028313  -3.878731  2.647521
H    -1.312480  -0.500250  1.074560
H    -1.851634  0.505535  2.423732
H    -1.169623  -1.275397  4.062308
H    -0.745045  -2.354330  2.722567
H    -3.089437  -2.271036  1.870239
H    -3.536525  -1.132610  3.166104
H    -2.669635  -3.130547  4.682265
H    -3.280370  -5.431482  4.879562
H    -5.655622  -4.639072  2.403548
H    -5.284430  -2.959844  2.306992
H    -4.908527  -5.750391  4.398074
O    1.374380  -1.612727  1.522284
H    2.150375  -2.009285  1.059309
Pb    2.485939  2.605517  0.969478
