28
Energy: -606656.246337 eV PBE+vdW (tier 2 basis)
N    2.292655  -0.519256  0.578286
C    1.876750  -0.688992  2.037446
C    2.094343  -2.169035  2.400072
O    2.750771  -2.907646  1.586458
H    3.065738  -1.168148  0.346576
H    2.600251  0.444280  0.380004
H    2.622565  -0.128387  2.626173
C    0.467852  -0.098624  2.273270
C    0.145030  0.188589  3.753717
C    -1.242948  0.803262  4.005171
N    -1.315765  2.227057  3.645872
C    -2.476539  2.920480  3.517444
N    -2.428270  4.211431  3.177866
N    -3.656704  2.317255  3.683840
H    -0.287149  -0.774816  1.842310
H    0.413169  0.842544  1.702136
H    0.920265  0.837627  4.192612
H    0.179322  -0.745754  4.328162
H    -1.478710  0.666432  5.072720
H    -2.003179  0.263133  3.422248
H    -0.512409  2.793205  3.908277
H    -1.574630  4.649386  2.851527
H    -3.246188  4.808338  3.250506
H    -3.750174  1.462801  4.219650
H    -4.521292  2.797363  3.452605
O    1.677997  -2.622551  3.511136
H    1.516887  -0.735625  -0.066895
Pb    2.695364  -4.730353  3.128806
