28
Energy: -606655.624470 eV PBE+vdW (tier 2 basis)
N    0.463829  -0.015466  0.078518
C    -0.173774  -0.029667  1.440711
C    0.888248  0.332317  2.470572
O    2.122768  0.317772  2.226696
H    0.138554  -0.828876  -0.458655
H    0.134028  0.801441  -0.451135
H    -0.944645  0.754633  1.482970
C    -0.818152  -1.425068  1.727879
C    -1.776320  -1.569747  2.929252
C    -3.216645  -1.079679  2.689005
N    -4.065363  -1.499921  3.806948
C    -5.279581  -0.993258  4.119464
N    -5.847802  -1.331233  5.279175
N    -5.892208  -0.133922  3.295655
H    -0.007145  -2.161299  1.838013
H    -1.362779  -1.698513  0.809388
H    -1.366891  -1.100955  3.834058
H    -1.811641  -2.649916  3.139238
H    -3.593141  -1.497468  1.739017
H    -3.261609  0.018001  2.621339
H    -3.806788  -2.357953  4.286289
H    -5.323041  -1.774167  6.025603
H    -6.733395  0.351169  3.593353
H    -5.705918  -0.131749  2.300009
H    -6.833313  -1.160982  5.454316
O    0.424353  0.643884  3.641554
H    1.138714  0.857945  4.287791
Pb    2.989656  0.051675  0.129979
