28
Energy: -606655.418240 eV PBE+vdW (tier 2 basis)
N    0.575989  0.504252  -0.155470
C    0.197635  0.052312  1.222815
C    1.427153  -0.611793  1.869942
O    2.572725  -0.507811  1.363101
H    0.251829  -0.183927  -0.847077
H    0.080912  1.373327  -0.384277
H    0.042407  0.968701  1.821864
C    -1.102247  -0.794705  1.288218
C    -2.359874  -0.027076  0.819140
C    -3.713314  -0.566933  1.330226
N    -4.217832  -1.745678  0.621815
C    -5.534001  -2.018451  0.425727
N    -5.872541  -3.020913  -0.389639
N    -6.483248  -1.285758  1.012884
H    -1.258225  -1.085535  2.340801
H    -0.953677  -1.732412  0.728820
H    -2.394930  0.045711  -0.278117
H    -2.302564  1.004594  1.200918
H    -4.446722  0.236067  1.181024
H    -3.653558  -0.757400  2.415503
H    -3.591415  -2.531991  0.481288
H    -5.220663  -3.410310  -1.061158
H    -6.313281  -0.762545  1.863919
H    -7.453860  -1.369261  0.724385
H    -6.817721  -3.392057  -0.403800
O    1.354810  -1.256422  2.989601
H    0.458911  -1.326279  3.380096
Pb    3.111302  0.708295  -0.455546
