28
Energy: -606655.786271 eV PBE+vdW (tier 2 basis)
N    -0.089591  1.606464  2.039928
C    0.581720  0.351845  2.519612
C    2.007307  0.316154  1.963180
O    2.557159  1.309418  1.417363
H    -0.731741  1.374484  1.270389
H    -0.686447  1.987755  2.782466
H    0.727102  0.459560  3.610356
C    -0.214024  -0.949404  2.251487
C    -1.483248  -1.116293  3.109566
C    -2.100684  -2.515660  2.913837
N    -3.264054  -2.704697  3.782134
C    -4.259102  -3.598921  3.573696
N    -5.345055  -3.555376  4.350156
N    -4.177983  -4.494801  2.584350
H    0.470977  -1.784662  2.455533
H    -0.451655  -1.008298  1.176014
H    -2.240764  -0.355596  2.865969
H    -1.218350  -0.985784  4.171754
H    -1.335683  -3.284349  3.117244
H    -2.431026  -2.634281  1.871694
H    -3.217796  -2.309184  4.716932
H    -5.556305  -2.752351  4.931998
H    -4.984996  -5.055959  2.329165
H    -3.287129  -4.795141  2.207179
H    -6.007917  -4.323840  4.374629
O    2.633104  -0.801490  2.142692
H    3.568970  -0.775848  1.830568
Pb    1.548209  3.334257  1.166109
