28
Energy: -606655.789720 eV PBE+vdW (tier 2 basis)
N    0.402874  1.502426  2.546337
C    0.370997  0.056112  2.135623
C    1.055893  -0.053417  0.772010
O    1.792238  0.853880  0.304152
H    -0.499764  1.940007  2.315361
H    0.475490  1.565609  3.568545
H    1.045726  -0.484219  2.824768
C    -1.049662  -0.580698  2.227805
C    -1.042735  -2.111445  2.443905
C    -2.416503  -2.805922  2.336399
N    -3.231095  -2.736303  3.553819
C    -4.079276  -3.706042  3.972385
N    -4.587468  -3.638016  5.207111
N    -4.394065  -4.732253  3.177323
H    -1.622042  -0.319286  1.324364
H    -1.550565  -0.085367  3.074177
H    -0.585115  -2.355977  3.414513
H    -0.414746  -2.583616  1.678232
H    -2.220864  -3.868817  2.144886
H    -2.975936  -2.413910  1.470573
H    -3.314081  -1.848128  4.036989
H    -4.161856  -3.070268  5.930774
H    -4.871299  -5.548046  3.549021
H    -4.322029  -4.673753  2.168476
H    -5.378378  -4.211658  5.482813
O    0.863696  -1.166250  0.137177
H    1.367896  -1.210135  -0.710151
Pb    2.198667  2.835492  1.369610
