28
Energy: -606655.852982 eV PBE+vdW (tier 2 basis)
N    1.890328  -0.116993  0.416923
C    0.626453  -0.345342  1.200254
C    1.018600  -0.623421  2.650548
O    2.166504  -0.384801  3.107576
H    2.134460  -0.980909  -0.087216
H    1.713828  0.576601  -0.319742
H    0.094664  0.622719  1.238062
C    -0.303654  -1.404270  0.538416
C    -1.804757  -1.270220  0.870750
C    -2.641972  -2.302921  0.090380
N    -4.063986  -2.165117  0.411900
C    -5.090990  -2.534394  -0.386867
N    -6.332967  -2.162400  -0.064895
N    -4.870299  -3.237802  -1.503027
H    0.063168  -2.413135  0.783843
H    -0.178409  -1.278066  -0.548475
H    -2.154111  -0.258515  0.614370
H    -1.969930  -1.410603  1.948121
H    -2.289618  -3.322656  0.320694
H    -2.522871  -2.138920  -0.990508
H    -4.308605  -1.937205  1.371125
H    -6.514970  -1.424922  0.606700
H    -5.613460  -3.375305  -2.181185
H    -4.050848  -3.823187  -1.611136
H    -7.142312  -2.593181  -0.500604
O    0.070766  -1.089481  3.402283
H    0.356875  -1.205707  4.339495
Pb    3.872116  0.487154  1.854217
