28
Energy: -606655.441964 eV PBE+vdW (tier 2 basis)
N    0.181549  -0.241691  -0.610279
C    -0.004044  -0.085175  0.869762
C    1.208966  0.674721  1.435961
O    2.094137  1.161850  0.689706
H    0.446223  -1.211905  -0.823894
H    -0.710579  -0.090432  -1.093481
H    -0.856010  0.603523  1.014774
C    -0.306506  -1.423623  1.604298
C    -1.657686  -2.056602  1.207586
C    -1.936646  -3.461753  1.789844
N    -2.488126  -3.457397  3.147223
C    -3.406224  -4.341815  3.613349
N    -3.728567  -5.431466  2.911281
N    -4.006748  -4.096691  4.780989
H    -0.292111  -1.230428  2.689264
H    0.523582  -2.125412  1.418277
H    -1.695189  -2.184157  0.115101
H    -2.488739  -1.382868  1.466011
H    -1.027213  -4.083712  1.739258
H    -2.688537  -3.931190  1.143069
H    -2.029345  -2.898800  3.859366
H    -4.540134  -5.987657  3.164773
H    -4.524103  -4.821509  5.269274
H    -4.022884  -3.170247  5.192420
H    -3.093091  -5.846683  2.239903
O    1.353237  0.889992  2.705218
H    0.651652  0.519047  3.278556
Pb    2.041135  1.240078  -1.560610
