28
Energy: -606655.464657 eV PBE+vdW (tier 2 basis)
N    1.468512  -0.707556  -0.842867
C    0.274181  -0.111412  -0.152094
C    0.753318  0.585929  1.122980
O    1.852447  0.301781  1.660799
H    1.236788  -1.648108  -1.184699
H    1.686477  -0.164681  -1.688054
H    -0.162709  0.654185  -0.813705
C    -0.801025  -1.204879  0.139005
C    -2.162518  -0.712431  0.672848
C    -3.189961  -1.870408  0.727185
N    -4.444582  -1.487511  1.378924
C    -5.695722  -1.627435  0.873961
N    -6.721220  -1.778388  1.713299
N    -5.913389  -1.606299  -0.445662
H    -0.374679  -1.951384  0.828573
H    -0.962241  -1.713706  -0.825175
H    -2.559476  0.093037  0.034663
H    -2.054750  -0.307504  1.690913
H    -2.761210  -2.721068  1.279800
H    -3.416106  -2.240244  -0.280701
H    -4.405236  -1.365415  2.387481
H    -6.592324  -2.076153  2.674852
H    -6.816737  -1.872889  -0.825078
H    -5.266323  -1.168888  -1.088945
H    -7.679878  -1.641299  1.406266
O    0.028672  1.480019  1.723137
H    -0.795371  1.729067  1.255161
Pb    3.548063  -0.776359  0.624135
