28
Energy: -606656.216885 eV PBE+vdW (tier 2 basis)
N    0.938051  -0.658876  0.403555
C    0.275318  0.534113  1.085662
C    1.388204  1.413461  1.681258
O    2.601031  1.191822  1.344101
H    0.340662  -1.053558  -0.337692
H    1.149578  -1.415690  1.071439
H    -0.157121  1.134908  0.266892
C    -0.844083  0.126635  2.060196
C    -2.058824  -0.522416  1.359729
C    -3.386134  -0.506170  2.147970
N    -3.506849  -1.549587  3.169839
C    -4.664846  -2.173243  3.501853
N    -4.618715  -3.241781  4.303435
N    -5.837006  -1.749490  3.022676
H    -1.153107  1.060643  2.552660
H    -0.425014  -0.514393  2.853058
H    -1.845474  -1.558761  1.053822
H    -2.268895  0.040690  0.436362
H    -4.187984  -0.677492  1.418525
H    -3.548381  0.491990  2.587616
H    -2.748309  -1.666167  3.834048
H    -5.458298  -3.607493  4.741777
H    -3.763013  -3.764551  4.450573
H    -6.671323  -2.321588  3.113773
H    -5.977566  -0.797728  2.704968
O    1.074995  2.383190  2.439863
H    1.838926  -0.372355  -0.018568
Pb    3.303176  3.155888  2.531610
