28
Energy: -606655.638056 eV PBE+vdW (tier 2 basis)
N    -0.048411  1.206926  0.324989
C    -0.278793  0.642312  1.699466
C    1.083594  0.476453  2.369638
O    2.121308  1.056448  1.956254
H    -0.048112  0.440336  -0.362163
H    -0.846254  1.797756  0.061800
H    -0.770474  1.438610  2.288871
C    -1.212693  -0.603371  1.700276
C    -1.928633  -0.867083  3.046250
C    -3.198921  -1.737943  2.961527
N    -2.945368  -3.181266  2.923263
C    -3.777613  -4.122848  3.429029
N    -3.351558  -5.386671  3.522707
N    -5.002562  -3.799256  3.851862
H    -0.645965  -1.481111  1.352668
H    -1.980318  -0.397710  0.937539
H    -2.263409  0.098236  3.456000
H    -1.242393  -1.294043  3.788422
H    -3.816598  -1.427775  2.101573
H    -3.780872  -1.538702  3.871089
H    -2.203028  -3.530479  2.326398
H    -2.366662  -5.623676  3.493364
H    -5.554166  -4.456953  4.394591
H    -5.484724  -2.970257  3.525375
H    -3.999029  -6.148418  3.698784
O    1.095502  -0.266293  3.431694
H    1.980951  -0.285695  3.866865
Pb    2.157202  2.414472  0.110869
