28
Energy: -606655.473875 eV PBE+vdW (tier 2 basis)
N    1.591845  -1.302244  -0.701762
C    0.379942  -0.520878  -0.282014
C    0.818333  0.545573  0.730413
O    2.027039  0.761167  0.993347
H    1.583133  -2.221439  -0.239570
H    1.537894  -1.509790  -1.705949
H    0.045483  0.050602  -1.166177
C    -0.778767  -1.456404  0.179392
C    -2.188233  -0.828650  0.284516
C    -3.284778  -1.922958  0.331547
N    -4.636475  -1.360517  0.338776
C    -5.663159  -1.725694  1.149183
N    -6.914684  -1.584605  0.710844
N    -5.438168  -2.207468  2.375927
H    -0.499765  -1.936900  1.130357
H    -0.823948  -2.255389  -0.577060
H    -2.379551  -0.181052  -0.586407
H    -2.301157  -0.212506  1.193517
H    -3.159249  -2.562305  1.213742
H    -3.178656  -2.579753  -0.546677
H    -4.921019  -0.877937  -0.509995
H    -7.134191  -1.489156  -0.275360
H    -4.574526  -2.031883  2.872934
H    -6.191858  -2.623896  2.914212
H    -7.704257  -1.608381  1.349815
O    -0.046702  1.305315  1.326828
H    -0.980067  1.106752  1.097578
Pb    3.788539  -0.188606  -0.058955
