28
Energy: -606655.334207 eV PBE+vdW (tier 2 basis)
N    0.805673  -0.529027  -0.084687
C    0.305185  -0.274752  1.307842
C    1.399214  -0.691636  2.301091
O    2.524646  -1.099852  1.921197
H    0.336677  -1.358669  -0.471467
H    0.525788  0.245248  -0.698253
H    0.222579  0.820789  1.422097
C    -1.105551  -0.902719  1.543185
C    -1.837930  -0.437591  2.824103
C    -3.375991  -0.564787  2.806304
N    -3.853462  -1.948123  2.918752
C    -5.138541  -2.322399  2.669822
N    -5.470161  -3.610190  2.785457
N    -6.048128  -1.428537  2.274575
H    -1.027847  -1.999962  1.507556
H    -1.706162  -0.596292  0.673333
H    -1.650242  0.636033  2.990165
H    -1.467357  -0.974393  3.715134
H    -3.764610  -0.140055  1.869461
H    -3.761420  0.047536  3.638122
H    -3.366830  -2.540885  3.587096
H    -4.771513  -4.339495  2.873341
H    -6.963784  -1.729293  1.952525
H    -5.949109  -0.438447  2.466155
H    -6.441099  -3.907922  2.791443
O    1.224943  -0.598308  3.582640
H    0.345654  -0.257176  3.852001
Pb    3.308955  -0.995750  -0.194861
