28
Energy: -606655.795791 eV PBE+vdW (tier 2 basis)
N    0.896119  0.984256  1.749569
C    1.207945  -0.353010  2.363674
C    2.201673  -1.065419  1.444694
O    2.854521  -0.466835  0.550260
H    0.007438  0.919862  1.234201
H    0.721927  1.669350  2.494246
H    1.782327  -0.152301  3.286465
C    -0.066527  -1.169544  2.735799
C    0.134364  -2.194484  3.873551
C    -1.076095  -3.118838  4.131183
N    -2.215307  -2.518983  4.838048
C    -2.617878  -2.843278  6.091432
N    -3.893301  -2.651687  6.439036
N    -1.753415  -3.333548  6.984523
H    -0.451211  -1.666908  1.831538
H    -0.824729  -0.432913  3.044357
H    0.404584  -1.666448  4.801048
H    0.973782  -2.859713  3.632753
H    -0.735212  -3.985358  4.711848
H    -1.450785  -3.530784  3.182653
H    -2.924549  -2.068110  4.268799
H    -4.186296  -2.686668  7.410640
H    -2.078155  -3.742809  7.854937
H    -0.751586  -3.266048  6.861472
H    -4.631006  -2.565585  5.748232
O    2.363528  -2.330770  1.670786
H    3.049899  -2.734355  1.087627
Pb    2.649943  1.766926  0.108627
