28
Energy: -606655.587015 eV PBE+vdW (tier 2 basis)
N    -0.198868  1.582238  1.903497
C    0.465921  0.393079  2.535043
C    1.932965  0.363474  2.098642
O    2.497355  1.329338  1.519542
H    -0.768218  1.268694  1.106079
H    -0.865507  1.999276  2.562604
H    0.518137  0.591013  3.621548
C    -0.268018  -0.952029  2.310988
C    -1.598783  -1.094124  3.074969
C    -2.161410  -2.523716  2.941476
N    -3.387819  -2.682718  3.724814
C    -4.344057  -3.615139  3.503187
N    -5.491283  -3.543519  4.183317
N    -4.163528  -4.578143  2.593281
H    0.420914  -1.744155  2.637046
H    -0.413966  -1.103917  1.228300
H    -2.353285  -0.379318  2.712318
H    -1.426012  -0.874075  4.141384
H    -1.396393  -3.249190  3.266983
H    -2.400333  -2.733110  1.888695
H    -3.427129  -2.219679  4.628412
H    -5.766330  -2.706117  4.684512
H    -4.935514  -5.176498  2.315007
H    -3.238651  -4.882225  2.313616
H    -6.137470  -4.325954  4.212338
O    2.573432  -0.713947  2.417690
H    3.530654  -0.680324  2.179925
Pb    1.456196  3.292784  1.027787
