28
Energy: -606655.815197 eV PBE+vdW (tier 2 basis)
N    0.392851  2.442774  1.679758
C    0.865999  1.194671  0.990191
C    0.144105  1.080533  -0.353116
O    -0.515144  2.025396  -0.861277
H    -0.292350  2.191803  2.405141
H    1.172531  2.878124  2.185422
H    1.922546  1.363867  0.711677
C    0.780877  -0.089332  1.855108
C    1.727415  -0.080046  3.070425
C    1.669803  -1.340695  3.954050
N    2.347303  -2.495410  3.350372
C    2.208506  -3.773000  3.790217
N    2.855478  -4.752622  3.153459
N    1.405551  -4.060233  4.818374
H    1.016992  -0.937265  1.197505
H    -0.264077  -0.233840  2.177094
H    1.487349  0.757940  3.742229
H    2.766216  0.090157  2.742021
H    0.621885  -1.617037  4.141831
H    2.129620  -1.089721  4.923554
H    3.227529  -2.302685  2.878525
H    2.933646  -5.682068  3.554370
H    1.191428  -5.024692  5.054283
H    1.147865  -3.364783  5.508427
H    3.301614  -4.606445  2.255217
O    0.301302  -0.050635  -0.962869
H    -0.126324  -0.068562  -1.851984
Pb    -0.740515  4.076808  0.110998
