28
Energy: -606655.972093 eV PBE+vdW (tier 2 basis)
N    -0.182298  0.923361  0.591639
C    0.068145  0.157543  1.888542
C    1.574725  0.241164  2.186230
O    2.085144  -0.468435  3.107203
H    -0.044032  0.327841  -0.239621
H    -1.144094  1.293099  0.549523
H    -0.414477  0.756445  2.679981
C    -0.591865  -1.238844  1.835259
C    -0.779501  -1.898834  3.221988
C    -1.937867  -2.910423  3.324338
N    -1.649182  -4.233636  2.762104
C    -2.221539  -5.387040  3.183516
N    -1.749665  -6.552942  2.729708
N    -3.229251  -5.371764  4.059946
H    -0.024218  -1.884857  1.147639
H    -1.586806  -1.088567  1.384099
H    -1.018928  -1.114517  3.955670
H    0.154551  -2.361805  3.565147
H    -2.848710  -2.484745  2.869087
H    -2.141949  -3.052695  4.393964
H    -1.157123  -4.290056  1.876658
H    -0.834585  -6.630290  2.301388
H    -3.537632  -6.227994  4.510702
H    -3.818355  -4.557970  4.190755
H    -2.269290  -7.415890  2.855315
O    2.278069  1.090304  1.534484
H    0.480064  1.715258  0.509209
Pb    4.181668  0.626291  2.889526
