28
Energy: -606655.852809 eV PBE+vdW (tier 2 basis)
N    2.427593  -0.756461  1.518741
C    0.929479  -0.809699  1.434652
C    0.422112  0.531097  0.897908
O    1.180387  1.399813  0.390484
H    2.707677  -0.616839  2.498773
H    2.824057  -1.664286  1.251535
H    0.675712  -1.527873  0.633345
C    0.224626  -1.254293  2.740639
C    0.405001  -2.743646  3.093627
C    -0.439323  -3.123969  4.327148
N    -0.305268  -4.546664  4.644864
C    -1.238158  -5.304087  5.267834
N    -1.077848  -6.629633  5.308229
N    -2.323411  -4.743427  5.812156
H    -0.845615  -1.042403  2.607752
H    0.561907  -0.606275  3.567138
H    1.464097  -2.972011  3.297747
H    0.094028  -3.369621  2.243177
H    -1.499655  -2.925766  4.114550
H    -0.145469  -2.503501  5.190580
H    0.617821  -4.962983  4.564045
H    -1.622404  -7.207839  5.940553
H    -3.097752  -5.319476  6.128418
H    -2.329727  -3.777531  6.117431
H    -0.430887  -7.110734  4.693321
O    -0.860507  0.689258  0.953707
H    -1.164481  1.534887  0.545562
Pb    3.431007  1.141963  0.168081
