28
Energy: -606654.871757 eV PBE+vdW (tier 2 basis)
N    0.908717  1.066180  2.068740
C    0.774923  -0.310921  2.645959
C    1.918274  -1.183481  2.095841
O    2.877495  -0.685285  1.454119
H    0.242628  1.181884  1.294249
H    0.636338  1.764457  2.769166
H    0.998323  -0.224067  3.725309
C    -0.637911  -0.935503  2.488029
C    -1.744122  -0.191676  3.268962
C    -3.033860  -1.009495  3.512132
N    -3.942187  -1.146733  2.366573
C    -5.250238  -0.777911  2.355372
N    -5.686562  0.233134  3.111149
N    -6.102416  -1.424927  1.557263
H    -0.592253  -1.967313  2.875321
H    -0.879738  -1.023049  1.416409
H    -2.001924  0.757950  2.776451
H    -1.360653  0.062154  4.270202
H    -3.591031  -0.541296  4.332250
H    -2.776351  -2.017795  3.872719
H    -3.704363  -1.853865  1.677385
H    -5.060079  0.916544  3.516377
H    -7.023832  -1.048686  1.353713
H    -5.905950  -2.353883  1.199786
H    -6.680482  0.393278  3.244158
O    1.978648  -2.457927  2.312440
H    1.233339  -2.836359  2.823571
Pb    3.240271  1.508590  1.104355
