28
Energy: -606655.624073 eV PBE+vdW (tier 2 basis)
N    -0.427089  2.315304  2.230629
C    1.053171  2.075518  2.159930
C    1.493699  2.236053  0.707872
O    0.809704  2.865026  -0.142555
H    -0.928437  1.420303  2.153681
H    -0.667545  2.678120  3.161180
H    1.526565  2.945854  2.653306
C    1.574908  0.830554  2.918165
C    1.176412  -0.569564  2.415745
C    1.739650  -1.644025  3.374112
N    1.370520  -3.008889  2.984098
C    2.173074  -4.101988  3.024779
N    1.623243  -5.303892  3.212143
N    3.495564  -3.997302  2.861071
H    1.262899  0.959816  3.966373
H    2.671256  0.923758  2.932040
H    1.555132  -0.750331  1.399122
H    0.079371  -0.681632  2.374954
H    1.378100  -1.455154  4.397929
H    2.833025  -1.572557  3.418543
H    0.375983  -3.219351  2.991304
H    2.137399  -6.156885  3.012928
H    4.105532  -4.786741  3.048989
H    3.921540  -3.191853  2.421452
H    0.697044  -5.416751  3.610035
O    2.659788  1.746619  0.426822
H    2.951788  1.964432  -0.490254
Pb    -1.206300  3.829557  0.366609
