28
Energy: -606655.826436 eV PBE+vdW (tier 2 basis)
N    -0.128987  1.835348  1.560499
C    0.015350  0.425462  2.066289
C    1.352323  -0.117343  1.564301
O    2.249166  0.616126  1.072462
H    -0.750933  1.835342  0.739897
H    -0.620378  2.400922  2.262881
H    0.136425  0.488354  3.162865
C    -1.232586  -0.449526  1.745866
C    -1.456456  -1.670320  2.663817
C    -2.758314  -2.413578  2.287622
N    -2.929451  -3.666190  3.029152
C    -3.993681  -4.028579  3.782232
N    -4.258876  -5.325938  3.952469
N    -4.775885  -3.110037  4.361572
H    -1.191734  -0.762022  0.690329
H    -2.101132  0.221485  1.840413
H    -1.502653  -1.349120  3.715573
H    -0.614259  -2.370132  2.583321
H    -2.755904  -2.653775  1.212837
H    -3.640347  -1.783191  2.457955
H    -2.308465  -4.428286  2.770911
H    -3.889005  -6.036785  3.330240
H    -5.661466  -3.375231  4.780804
H    -4.448805  -2.171545  4.549986
H    -4.878648  -5.646002  4.690490
O    1.526490  -1.393062  1.715255
H    2.422802  -1.686341  1.424733
Pb    2.047408  2.882964  0.837228
