28
Energy: -606655.526496 eV PBE+vdW (tier 2 basis)
N    0.679614  1.093200  1.053931
C    0.533904  0.142810  2.204856
C    1.891889  -0.534140  2.464800
O    2.920049  -0.237837  1.805826
H    0.185605  0.718644  0.234230
H    0.214402  1.981498  1.269870
H    0.347684  0.751957  3.107401
C    -0.628827  -0.872503  2.028871
C    -2.039500  -0.261773  2.156216
C    -3.133047  -1.344716  2.044040
N    -4.467663  -0.765231  2.201696
C    -5.559195  -1.418668  2.667352
N    -5.535560  -2.742302  2.856194
N    -6.655782  -0.718149  2.966263
H    -0.521312  -1.659563  2.792120
H    -0.503553  -1.389769  1.062784
H    -2.202390  0.496032  1.372507
H    -2.138950  0.249480  3.125808
H    -2.994339  -2.088194  2.842355
H    -3.046388  -1.868090  1.076764
H    -4.646894  0.133471  1.763272
H    -4.910632  -3.345449  2.334549
H    -7.552537  -1.174679  3.102469
H    -6.632244  0.287374  3.095978
H    -6.288661  -3.204303  3.357541
O    2.050764  -1.412161  3.403100
H    1.251833  -1.626090  3.928402
Pb    3.115729  1.456148  0.340804
