28
Energy: -606655.797927 eV PBE+vdW (tier 2 basis)
N    0.089269  0.772790  0.358836
C    -0.100994  0.374968  1.796551
C    1.282983  0.215174  2.422591
O    2.325951  0.689562  1.901673
H    0.017431  -0.063549  -0.237309
H    -0.691021  1.373400  0.066468
H    -0.525983  1.256084  2.312708
C    -1.089159  -0.815178  1.976338
C    -1.765990  -0.877152  3.364392
C    -3.032871  -1.746761  3.445357
N    -2.754000  -3.189507  3.461633
C    -3.709399  -4.143303  3.313895
N    -3.352140  -5.430637  3.335709
N    -4.985533  -3.807410  3.107678
H    -0.582653  -1.759348  1.725989
H    -1.874111  -0.666555  1.218291
H    -2.088214  0.135829  3.650071
H    -1.052547  -1.190141  4.139366
H    -3.689430  -1.533909  2.588855
H    -3.570692  -1.451433  4.361299
H    -1.939639  -3.483820  3.994642
H    -2.382433  -5.719024  3.277367
H    -5.673819  -4.511769  2.859129
H    -5.351334  -2.900375  3.371755
H    -4.043468  -6.170325  3.409319
O    1.311840  -0.402138  3.562245
H    2.215320  -0.417028  3.959100
Pb    2.336633  1.830555  -0.084949
