28
Energy: -606654.782351 eV PBE+vdW (tier 2 basis)
N    1.051381  0.218767  -0.508592
C    0.046224  0.331953  0.602728
C    0.803441  0.346919  1.933916
O    1.969795  -0.108955  2.037080
H    0.715171  -0.447470  -1.213933
H    1.123600  1.116488  -1.003707
H    -0.475788  1.297452  0.501959
C    -1.005605  -0.821625  0.524342
C    -2.170492  -0.753432  1.532733
C    -3.206195  -1.898411  1.393487
N    -4.166298  -1.770785  0.292076
C    -5.508388  -1.613838  0.434312
N    -6.319903  -2.033168  -0.538789
N    -6.021068  -1.033387  1.522516
H    -0.482243  -1.786211  0.628497
H    -1.406717  -0.773070  -0.500760
H    -2.688837  0.215336  1.450682
H    -1.784593  -0.840847  2.559898
H    -3.770857  -1.971737  2.331078
H    -2.689593  -2.863796  1.286262
H    -3.880408  -2.133378  -0.612054
H    -6.027175  -2.719329  -1.226417
H    -5.463444  -0.469699  2.150863
H    -7.017698  -1.073372  1.713818
H    -7.294327  -1.747906  -0.572841
O    0.265177  0.807760  3.020659
H    -0.621756  1.208937  2.908875
Pb    3.379599  -0.439197  0.305313
