28
Energy: -606655.490604 eV PBE+vdW (tier 2 basis)
N    -0.013981  0.638516  -0.726218
C    0.016921  -0.015399  0.626247
C    1.477136  -0.271798  1.004356
O    2.386333  -0.326804  0.139418
H    -0.766703  0.228563  -1.292385
H    -0.268058  1.629413  -0.625663
H    -0.406191  0.687954  1.361787
C    -0.835848  -1.323005  0.630238
C    -1.038072  -2.006197  1.999077
C    -2.118301  -3.109707  1.918994
N    -2.257057  -3.805596  3.198050
C    -3.404020  -4.330336  3.695282
N    -4.506785  -4.408865  2.942782
N    -3.428718  -4.742370  4.964600
H    -0.403491  -2.036951  -0.089043
H    -1.820409  -1.022796  0.236959
H    -1.352695  -1.269092  2.755016
H    -0.095593  -2.463099  2.340120
H    -1.868543  -3.822126  1.115139
H    -3.087296  -2.651941  1.676723
H    -1.403697  -4.104594  3.662268
H    -5.400954  -4.642312  3.364769
H    -4.172838  -5.340425  5.311053
H    -2.719030  -4.464575  5.633854
H    -4.459800  -4.473907  1.932769
O    1.834472  -0.476105  2.235503
H    1.121055  -0.363296  2.897523
Pb    2.211160  0.502850  -1.957218
