28
Energy: -606656.162342 eV PBE+vdW (tier 2 basis)
N    -0.175662  0.487812  0.310274
C    0.215926  -0.116366  1.656776
C    1.748729  -0.042613  1.762715
O    2.355204  -0.645904  2.701315
H    -0.152100  -0.213288  -0.446373
H    -1.127588  0.883371  0.334979
H    -0.156853  0.593742  2.415008
C    -0.469829  -1.485573  1.860084
C    -0.480404  -1.968844  3.328214
C    -1.603094  -2.954417  3.692544
N    -1.424492  -4.294762  3.117113
C    -2.395650  -5.243682  3.102431
N    -2.143340  -6.424724  2.530729
N    -3.603480  -4.994288  3.614608
H    -0.015456  -2.232940  1.192534
H    -1.513217  -1.358815  1.527557
H    -0.627788  -1.105801  3.994618
H    0.497163  -2.388117  3.604416
H    -2.569430  -2.560739  3.344406
H    -1.642271  -3.011605  4.792765
H    -0.474554  -4.656636  3.100469
H    -1.331002  -6.573798  1.943717
H    -4.371189  -5.644145  3.473870
H    -3.755598  -4.265708  4.301962
H    -2.766339  -7.216271  2.656139
O    2.382075  0.696936  0.930756
H    0.487576  1.238697  0.047871
Pb    4.425750  0.355132  2.107432
