28
Energy: -606655.480976 eV PBE+vdW (tier 2 basis)
N    0.972064  0.502077  -0.000257
C    0.140782  0.290365  1.233085
C    1.065005  -0.160852  2.365992
O    2.190282  -0.671210  2.140344
H    0.482923  0.118935  -0.818263
H    1.058016  1.508402  -0.191190
H    -0.304261  1.256358  1.522128
C    -1.006725  -0.732215  0.959560
C    -2.046022  -0.916954  2.085029
C    -3.262154  -1.734547  1.591896
N    -4.218208  -1.963742  2.674898
C    -5.562330  -2.072978  2.534266
N    -6.328623  -2.068296  3.627074
N    -6.121836  -2.152748  1.322238
H    -0.564794  -1.704632  0.689042
H    -1.521977  -0.349720  0.063795
H    -2.407651  0.061307  2.439920
H    -1.593506  -1.444030  2.939920
H    -2.921446  -2.692899  1.165564
H    -3.777968  -1.175213  0.799147
H    -3.846896  -2.272863  3.569095
H    -7.297728  -2.370140  3.593629
H    -7.128103  -2.064398  1.213877
H    -5.618821  -2.526420  0.526059
H    -5.981731  -1.749300  4.525179
O    0.710559  -0.064660  3.611096
H    -0.140822  0.395353  3.764320
Pb    3.313660  -0.481688  0.186827
