28
Energy: -606656.197331 eV PBE+vdW (tier 2 basis)
N    0.335128  0.456159  0.196578
C    0.490370  0.208639  1.693168
C    1.986950  0.044500  2.000983
O    2.347491  -0.373900  3.145374
H    0.318243  -0.422226  -0.342286
H    -0.537658  0.965297  -0.010298
H    0.232542  1.171555  2.167842
C    -0.486327  -0.842747  2.245918
C    -0.428798  -2.274030  1.679881
C    -1.483200  -3.155527  2.384085
N    -1.524225  -4.508892  1.829451
C    -2.607021  -5.323451  1.836131
N    -2.567303  -6.461153  1.137671
N    -3.715103  -4.985486  2.503268
H    -1.500798  -0.431212  2.125093
H    -0.307768  -0.859480  3.331456
H    0.573584  -2.705709  1.830223
H    -0.637723  -2.294285  0.597480
H    -2.477556  -2.707246  2.246358
H    -1.273131  -3.183157  3.466425
H    -0.637248  -4.960583  1.626017
H    -1.868961  -6.627401  0.421717
H    -4.575515  -5.509272  2.372893
H    -3.691544  -4.354857  3.295874
H    -3.256714  -7.192568  1.281036
O    2.841816  0.437420  1.133923
H    1.131954  1.013862  -0.157532
Pb    4.604515  0.194749  2.733274
