28
Energy: -606655.481010 eV PBE+vdW (tier 2 basis)
N    1.506648  -1.700638  0.137885
C    0.256763  -0.887077  -0.044173
C    0.572449  0.568125  0.307430
O    1.555758  0.878821  1.024340
H    1.278487  -2.586605  0.604990
H    1.878404  -1.974048  -0.780622
H    -0.029956  -0.924733  -1.107726
C    -0.911539  -1.465896  0.814592
C    -2.303338  -0.836880  0.594927
C    -3.407304  -1.667724  1.288525
N    -4.715418  -1.029439  1.143997
C    -5.907044  -1.672447  1.075169
N    -6.995847  -0.979789  0.734309
N    -5.993798  -2.985507  1.312737
H    -0.635507  -1.411210  1.879931
H    -0.960739  -2.533577  0.546746
H    -2.535830  -0.781334  -0.480538
H    -2.327946  0.186162  1.002607
H    -3.158218  -1.806187  2.353985
H    -3.462243  -2.660840  0.821364
H    -4.769162  -0.029294  1.316490
H    -6.936513  -0.066287  0.297648
H    -5.329020  -3.465248  1.908072
H    -6.848121  -3.491492  1.097937
H    -7.928085  -1.352673  0.886675
O    -0.183743  1.543667  -0.095089
H    -0.904136  1.283284  -0.705907
Pb    3.332998  -0.465135  1.411702
