28
Energy: -606656.374100 eV PBE+vdW (tier 2 basis)
N    1.237613  -1.044817  -0.742116
C    0.864648  -0.806287  0.718513
C    1.881371  0.193777  1.297220
O    1.875178  0.437001  2.543863
H    1.928404  -1.804638  -0.841426
H    0.417616  -1.289977  -1.315031
H    -0.097384  -0.266616  0.696323
C    0.717794  -2.109109  1.521616
C    -0.479452  -2.990470  1.110702
C    -0.635068  -4.201580  2.052053
N    -1.777138  -5.029305  1.659917
C    -2.488970  -5.830297  2.486377
N    -3.630908  -6.366282  2.047603
N    -2.075913  -6.062283  3.737139
H    0.604817  -1.796264  2.570053
H    1.662215  -2.676474  1.474624
H    -0.353703  -3.361130  0.078999
H    -1.407454  -2.398833  1.133757
H    -0.812131  -3.844363  3.076704
H    0.293954  -4.796497  2.055145
H    -1.944457  -5.161676  0.666736
H    -4.077299  -7.133492  2.540355
H    -2.686239  -6.525468  4.403696
H    -1.100395  -5.988082  3.999502
H    -4.107554  -6.014395  1.224630
O    2.674702  0.802522  0.500635
H    1.672354  -0.191338  -1.137137
Pb    3.518399  2.115376  2.324549
