28
Energy: -606655.583509 eV PBE+vdW (tier 2 basis)
N    0.853802  -0.865292  -0.265744
C    0.240245  -0.060723  0.841297
C    1.313442  0.204616  1.913474
O    2.509594  -0.147570  1.756390
H    0.506853  -1.831786  -0.220297
H    0.541042  -0.507131  -1.174600
H    0.011236  0.937374  0.426380
C    -1.061970  -0.681171  1.415156
C    -2.269514  -0.642510  0.456137
C    -3.554934  -1.137212  1.151582
N    -4.708271  -1.033699  0.256955
C    -5.848150  -1.759801  0.358164
N    -6.747951  -1.692923  -0.625806
N    -6.060227  -2.559032  1.408763
H    -1.333123  -0.131677  2.331088
H    -0.849818  -1.711230  1.746925
H    -2.089463  -1.260046  -0.436889
H    -2.420333  0.392974  0.109575
H    -3.723844  -0.552352  2.072230
H    -3.440265  -2.192487  1.438756
H    -4.763065  -0.214076  -0.341278
H    -6.520275  -1.310143  -1.536850
H    -6.833186  -3.218098  1.407041
H    -5.616812  -2.394182  2.304535
H    -7.694594  -2.037998  -0.499915
O    1.047405  0.843082  3.007697
H    0.117300  1.130017  3.120081
Pb    3.408876  -0.995923  -0.121846
