28
Energy: -606655.974255 eV PBE+vdW (tier 2 basis)
N    1.001261  -1.734371  0.527579
C    0.878216  -0.398320  1.251464
C    2.295638  0.127617  1.528183
O    3.276298  -0.373740  0.876354
H    1.130028  -2.519482  1.183014
H    1.825203  -1.724341  -0.099234
H    0.488322  0.301626  0.491677
C    -0.130150  -0.415728  2.412406
C    0.074354  -1.430631  3.552764
C    -0.974086  -1.190008  4.663549
N    -0.861237  -2.139228  5.774608
C    -1.881444  -2.783980  6.393427
N    -1.737864  -3.151302  7.668839
N    -3.014922  -3.072592  5.746044
H    -1.129940  -0.543348  1.968799
H    -0.121524  0.608850  2.814130
H    1.084200  -1.332481  3.982282
H    -0.026908  -2.469961  3.199176
H    -1.988523  -1.250223  4.250653
H    -0.864438  -0.166610  5.056373
H    -0.002826  -2.090962  6.316844
H    -2.358882  -3.832876  8.094847
H    -1.044647  -2.728301  8.276692
H    -3.830426  -3.405109  6.251165
H    -3.066513  -3.102635  4.736186
O    2.455693  1.116814  2.309346
H    0.162587  -1.933911  -0.038378
Pb    4.713529  1.371235  1.656209
