28
Energy: -606656.166584 eV PBE+vdW (tier 2 basis)
N    -0.538896  0.432807  -0.074808
C    -0.181126  0.188073  1.387151
C    1.343538  0.307753  1.535880
O    1.896292  -0.052433  2.621688
H    -1.509671  0.767675  -0.171603
H    0.094842  1.141906  -0.483399
H    -0.564573  1.073644  1.923603
C    -0.879418  -1.041129  1.992850
C    -0.579804  -2.431913  1.402256
C    -1.445411  -3.493793  2.112853
N    -1.215196  -4.835598  1.575043
C    -1.506629  -5.990193  2.221516
N    -1.117346  -7.150643  1.687037
N    -2.145034  -5.974422  3.395662
H    -1.962239  -0.841069  1.958228
H    -0.616688  -1.024453  3.060960
H    0.483545  -2.687597  1.519604
H    -0.808359  -2.464329  0.322418
H    -2.509549  -3.215943  2.021113
H    -1.191956  -3.508321  3.182828
H    -1.063117  -4.921059  0.574236
H    -1.486205  -8.035579  2.020883
H    -2.225178  -6.820557  3.951555
H    -2.733103  -5.198703  3.676045
H    -0.430023  -7.195466  0.943260
O    2.011873  0.870184  0.600810
H    -0.444931  -0.419311  -0.646623
Pb    3.950363  0.939468  1.998951
