28
Energy: -606655.458834 eV PBE+vdW (tier 2 basis)
N    2.088888  0.238562  1.961294
C    1.794393  -1.088269  1.329006
C    0.742918  -0.882762  0.231176
O    0.436026  0.262672  -0.184207
H    1.531962  0.350769  2.818027
H    3.067867  0.259184  2.270720
H    2.704612  -1.366567  0.766278
C    1.526366  -2.251463  2.322518
C    0.228524  -2.227192  3.154253
C    0.178275  -3.449074  4.098864
N    -1.065092  -3.490441  4.868413
C    -1.636037  -4.612952  5.371705
N    -2.863472  -4.537778  5.890952
N    -0.999283  -5.787401  5.321076
H    2.405216  -2.297603  2.984354
H    1.585871  -3.190647  1.745512
H    -0.660880  -2.237792  2.505572
H    0.171999  -1.308340  3.762273
H    1.053756  -3.431818  4.769914
H    0.232914  -4.370786  3.501636
H    -1.412752  -2.615070  5.249309
H    -3.240401  -5.285709  6.465298
H    -1.489406  -6.648260  5.546891
H    0.011691  -5.847428  5.285699
H    -3.474197  -3.747780  5.714297
O    0.170767  -1.885258  -0.358442
H    0.453264  -2.767866  -0.039905
Pb    1.498213  2.173072  0.412515
