28
Energy: -606654.936634 eV PBE+vdW (tier 2 basis)
N    0.309334  -0.291991  -0.828983
C    -0.224206  0.218111  0.475204
C    0.954787  0.455081  1.426451
O    2.145782  0.429047  1.027428
H    0.238307  -1.317211  -0.858548
H    -0.286476  0.042283  -1.595761
H    -0.605708  1.236003  0.273232
C    -1.417134  -0.587760  1.060039
C    -1.164571  -2.027807  1.548918
C    -2.490750  -2.674178  2.018029
N    -2.346965  -4.086586  2.384289
C    -2.844871  -4.685116  3.496710
N    -2.984866  -4.007794  4.641235
N    -3.182967  -5.974354  3.443924
H    -2.199244  -0.580643  0.284791
H    -1.853928  0.018393  1.872745
H    -0.429914  -2.052705  2.368463
H    -0.748456  -2.648053  0.737196
H    -3.243150  -2.594276  1.216944
H    -2.902509  -2.129683  2.876934
H    -2.149406  -4.725713  1.618590
H    -3.504449  -4.405702  5.417807
H    -3.321879  -6.519174  4.290258
H    -3.368401  -6.448229  2.565925
H    -2.449388  -3.172401  4.838743
O    0.767997  0.751881  2.674828
H    -0.171693  0.807006  2.947221
Pb    2.764724  0.302569  -1.148612
