28
Energy: -606655.330562 eV PBE+vdW (tier 2 basis)
N    1.054700  -1.160344  -0.108628
C    0.379886  -0.962966  1.219125
C    1.464033  -0.802657  2.289967
O    2.636294  -1.218484  2.111130
H    0.580032  -1.904810  -0.633048
H    0.943215  -0.316146  -0.683939
H    -0.192893  -0.022053  1.181263
C    -0.601987  -2.140180  1.526894
C    -1.427261  -2.008951  2.824219
C    -2.420757  -3.166628  3.092001
N    -3.723334  -3.008205  2.442033
C    -4.910303  -3.385104  2.982035
N    -6.043145  -2.971606  2.407686
N    -4.955289  -4.138544  4.084017
H    -0.030540  -3.082353  1.547552
H    -1.272258  -2.187373  0.653802
H    -1.981781  -1.057166  2.842368
H    -0.750357  -2.011037  3.691068
H    -2.603441  -3.185708  4.173583
H    -1.961024  -4.131677  2.821661
H    -3.752228  -2.777173  1.454182
H    -6.066047  -2.181877  1.772283
H    -5.827650  -4.261735  4.590217
H    -4.193845  -4.752854  4.348618
H    -6.935750  -3.398626  2.636659
O    1.215519  -0.251262  3.437391
H    0.311967  0.114393  3.540074
Pb    3.548247  -1.671875  0.096787
