28
Energy: -606655.476644 eV PBE+vdW (tier 2 basis)
N    1.440947  -1.235574  -0.788709
C    0.291218  -0.495703  -0.167005
C    0.816466  0.285556  1.044597
O    2.040380  0.355559  1.315923
H    1.374570  -2.233951  -0.549273
H    1.360032  -1.202228  -1.811768
H    -0.019215  0.279582  -0.889958
C    -0.919322  -1.438534  0.109792
C    -2.281575  -0.766029  0.399262
C    -3.447699  -1.773697  0.235199
N    -4.758695  -1.146806  0.413932
C    -5.791505  -1.623145  1.155982
N    -7.039236  -1.313219  0.801940
N    -5.575174  -2.380382  2.236352
H    -0.656171  -2.137790  0.919040
H    -1.031101  -2.041421  -0.804920
H    -2.445067  0.071998  -0.297541
H    -2.336000  -0.365737  1.426517
H    -3.348658  -2.603004  0.946009
H    -3.402282  -2.219274  -0.771430
H    -5.027356  -0.469908  -0.295890
H    -7.270891  -0.986695  -0.130593
H    -4.692334  -2.372850  2.730574
H    -6.343792  -2.862251  2.692628
H    -7.816315  -1.432778  1.445454
O    0.014696  0.948328  1.818706
H    -0.932927  0.869624  1.576230
Pb    3.718006  -0.443671  0.027953
