28
Energy: -606655.809310 eV PBE+vdW (tier 2 basis)
N    -0.606906  1.784202  1.374852
C    0.886173  1.826032  1.526288
C    1.501716  2.026380  0.143727
O    0.849169  2.494539  -0.826847
H    -0.920076  0.809287  1.276038
H    -1.045010  2.119845  2.241301
H    1.114485  2.783389  2.032534
C    1.511350  0.724249  2.414834
C    1.423865  -0.741827  1.951325
C    2.181313  -1.643874  2.949688
N    2.125429  -3.054250  2.563554
C    2.276219  -4.099350  3.412932
N    2.041814  -5.336589  2.967692
N    2.622263  -3.900696  4.688680
H    1.053237  0.834465  3.409746
H    2.565843  1.009469  2.548325
H    1.869575  -0.855538  0.950104
H    0.380033  -1.089390  1.890407
H    1.723384  -1.548548  3.944814
H    3.227543  -1.301830  3.024909
H    2.223091  -3.274640  1.576592
H    2.341031  -6.152046  3.493312
H    2.575741  -4.660959  5.360621
H    3.126260  -3.073196  4.984549
H    1.538999  -5.510021  2.104597
O    2.764748  1.753226  0.057766
H    3.150157  1.995477  -0.817876
Pb    -1.360446  3.079194  -0.658461
