28
Energy: -606655.454953 eV PBE+vdW (tier 2 basis)
N    1.137680  -1.397758  1.310808
C    0.162109  -0.464187  0.656850
C    0.751160  0.955727  0.666874
O    1.876763  1.208586  1.163793
H    0.753031  -1.727734  2.204770
H    1.255820  -2.241078  0.738845
H    0.107652  -0.744522  -0.410035
C    -1.265399  -0.536540  1.273857
C    -2.006971  -1.855930  0.977868
C    -3.355286  -2.026943  1.715230
N    -4.473171  -1.215100  1.217300
C    -5.592861  -1.706046  0.624721
N    -6.733366  -1.018812  0.713670
N    -5.559437  -2.854946  -0.056098
H    -1.856967  0.307567  0.885596
H    -1.184639  -0.365688  2.360955
H    -1.390389  -2.714200  1.288533
H    -2.157809  -1.959100  -0.107770
H    -3.232994  -1.808407  2.786546
H    -3.650182  -3.082604  1.661850
H    -4.586652  -0.293478  1.628299
H    -6.887919  -0.322511  1.435432
H    -4.694277  -3.266249  -0.381784
H    -6.417432  -3.312338  -0.349173
H    -7.526982  -1.233500  0.116895
O    0.124834  1.956827  0.133000
H    -0.739018  1.746145  -0.277749
Pb    3.396704  -0.310180  1.835918
