28
Energy: -606655.506492 eV PBE+vdW (tier 2 basis)
N    1.296432  -1.066030  0.097657
C    0.380518  -0.294043  1.003318
C    1.222592  0.310419  2.135618
O    2.477900  0.293591  2.114809
H    1.204030  -2.071597  0.294827
H    0.991360  -0.956064  -0.876502
H    0.021730  0.577096  0.426186
C    -0.847304  -1.144150  1.450917
C    -2.067879  -0.372401  2.003420
C    -3.308838  -1.290955  2.103495
N    -4.473709  -0.555334  2.591492
C    -5.488785  -1.077020  3.325518
N    -5.581253  -2.394872  3.531064
N    -6.381755  -0.248892  3.870614
H    -0.516982  -1.908978  2.171372
H    -1.176149  -1.681192  0.547808
H    -2.300602  0.480374  1.345643
H    -1.890394  0.026062  3.018409
H    -3.102989  -2.109699  2.806895
H    -3.513240  -1.735128  1.114820
H    -4.663057  0.349972  2.169272
H    -5.193407  -3.065799  2.878167
H    -7.268759  -0.590272  4.228743
H    -6.207913  0.746588  3.958410
H    -6.238209  -2.763687  4.212745
O    0.668797  0.908792  3.142867
H    -0.312631  0.894186  3.125200
Pb    3.755499  -0.487968  0.421217
