28
Energy: -606655.814750 eV PBE+vdW (tier 2 basis)
N    1.584440  0.432226  1.936266
C    1.184193  -0.948661  1.501749
C    0.997896  -0.946381  -0.016039
O    1.368205  0.004771  -0.753513
H    0.772456  0.905145  2.355328
H    2.279007  0.373217  2.689180
H    2.059443  -1.604581  1.662371
C    -0.024493  -1.537153  2.275829
C    0.269466  -1.846052  3.756060
C    -0.951647  -2.344700  4.562027
N    -1.394274  -3.714132  4.273616
C    -1.339845  -4.757575  5.138262
N    -2.199386  -5.769369  4.995562
N    -0.430814  -4.791786  6.117034
H    -0.318443  -2.456931  1.750987
H    -0.875966  -0.841286  2.183765
H    0.616549  -0.939659  4.277343
H    1.085856  -2.581684  3.826122
H    -1.810015  -1.674744  4.404753
H    -0.719463  -2.278999  5.632378
H    -2.051185  -3.832525  3.508728
H    -2.059839  -6.652385  5.477324
H    -0.496863  -5.473885  6.866113
H    0.392058  -4.203376  6.111892
H    -3.065650  -5.670033  4.477155
O    0.472329  -2.025024  -0.502174
H    0.422702  -2.016071  -1.487628
Pb    2.396284  1.884635  0.025511
