28
Energy: -606655.836431 eV PBE+vdW (tier 2 basis)
N    1.857429  2.263877  1.091834
C    0.802683  1.241402  0.779682
C    -0.505686  1.970383  0.463148
O    -0.567460  3.211150  0.254747
H    1.993095  2.310583  2.110534
H    2.761003  1.958407  0.713740
H    1.082492  0.772405  -0.181618
C    0.643831  0.130075  1.846041
C    1.817875  -0.865630  1.917882
C    1.485361  -2.043055  2.856409
N    2.572398  -3.023188  2.877944
C    2.801821  -3.916482  3.869106
N    3.923503  -4.641077  3.843638
N    1.938127  -4.053346  4.880632
H    -0.276957  -0.415695  1.595688
H    0.461115  0.598949  2.827515
H    2.740710  -0.379456  2.269616
H    2.019524  -1.257728  0.907327
H    0.543280  -2.515517  2.529536
H    1.340343  -1.672666  3.881643
H    3.051032  -3.207982  2.000854
H    4.037055  -5.459452  4.433491
H    2.184159  -4.603059  5.698300
H    0.960779  -3.804562  4.786259
H    4.706620  -4.396424  3.247972
O    -1.545504  1.206648  0.371002
H    -2.361572  1.694076  0.105731
Pb    1.240943  4.593361  0.302349
