28
Energy: -606655.440051 eV PBE+vdW (tier 2 basis)
N    1.345368  0.722898  2.150468
C    1.437440  -0.773258  2.180237
C    1.608096  -1.273732  0.733933
O    1.906084  -0.488840  -0.201479
H    0.358935  1.010704  2.184512
H    1.773368  1.114995  2.996498
H    2.402833  -1.017055  2.661459
C    0.305832  -1.476652  2.977056
C    0.279378  -1.095976  4.474432
C    -0.446906  -2.081481  5.409183
N    -1.908133  -2.078801  5.260569
C    -2.718578  -3.040510  5.780315
N    -4.034065  -2.964238  5.565766
N    -2.209768  -4.071268  6.459645
H    0.477627  -2.564191  2.911091
H    -0.664050  -1.291292  2.490009
H    -0.137586  -0.085885  4.615215
H    1.311780  -1.050420  4.855385
H    -0.162761  -1.819002  6.441504
H    -0.086444  -3.102364  5.215233
H    -2.349816  -1.168844  5.155115
H    -4.688348  -3.544868  6.081596
H    -2.795311  -4.860496  6.717967
H    -1.304435  -4.023162  6.912261
H    -4.431092  -2.333077  4.879221
O    1.512355  -2.525637  0.420219
H    1.280872  -3.126554  1.158568
Pb    2.326324  1.716003  0.003020
