28
Energy: -606654.777573 eV PBE+vdW (tier 2 basis)
N    1.004866  -2.828784  2.052380
C    0.376575  -1.980792  0.985462
C    1.447218  -1.658661  -0.065442
O    2.567940  -2.225154  -0.069933
H    1.227050  -2.244905  2.869707
H    0.322571  -3.516668  2.392359
H    -0.346137  -2.626233  0.453934
C    -0.397039  -0.759790  1.573740
C    -1.405843  -0.076514  0.617883
C    -2.532893  0.723429  1.322268
N    -2.160574  2.045069  1.833981
C    -2.735933  3.221704  1.468699
N    -2.737874  4.238981  2.332197
N    -3.278652  3.377025  0.258351
H    0.322804  -0.032261  1.980083
H    -0.965003  -1.162536  2.426628
H    -1.919069  -0.844950  0.017576
H    -0.902782  0.616602  -0.079938
H    -2.942869  0.128452  2.152851
H    -3.361256  0.851576  0.615247
H    -1.686872  2.072328  2.731922
H    -2.611763  4.100345  3.329354
H    -3.856466  4.185262  0.047211
H    -3.068301  2.760077  -0.515663
H    -2.954109  5.185277  2.032218
O    1.217579  -0.820684  -1.027014
H    0.329563  -0.403586  -0.987477
Pb    3.193269  -3.903608  1.311419
