28
Energy: -606654.598574 eV PBE+vdW (tier 2 basis)
N    0.329873  -0.171474  0.191876
C    0.008632  0.114188  1.629852
C    1.320684  0.036222  2.428941
O    2.441202  0.033207  1.861335
H    0.115139  -1.155063  -0.019615
H    -0.289205  0.376551  -0.416306
H    -0.287003  1.177571  1.682414
C    -1.159406  -0.764014  2.183751
C    -1.962387  -0.132827  3.345902
C    -3.008619  -1.057268  4.016036
N    -4.293247  -1.119608  3.317413
C    -5.504832  -1.188672  3.928410
N    -6.607111  -1.002516  3.197980
N    -5.601880  -1.415286  5.240851
H    -0.767189  -1.752216  2.472008
H    -1.840788  -0.935002  1.336781
H    -2.450306  0.795623  3.013469
H    -1.302535  0.179446  4.175009
H    -3.207485  -0.642227  5.011960
H    -2.589591  -2.067102  4.159121
H    -4.299148  -1.339081  2.326441
H    -6.580840  -0.544628  2.293771
H    -6.485027  -1.278285  5.724464
H    -4.880424  -1.904253  5.758281
H    -7.523386  -1.260086  3.552598
O    1.333823  0.009379  3.723460
H    0.443271  0.018060  4.136101
Pb    2.800783  0.162363  -0.363303
