28
Energy: -606655.459590 eV PBE+vdW (tier 2 basis)
N    -0.084068  1.011402  0.815210
C    0.045628  0.254117  2.103159
C    1.543737  0.032425  2.382022
O    2.432590  0.641116  1.735698
H    -0.318075  0.361040  0.053560
H    -0.875157  1.662334  0.869736
H    -0.280468  0.939595  2.906873
C    -0.812194  -1.039218  2.168492
C    -2.331083  -0.788798  2.071826
C    -3.211338  -2.053178  2.132497
N    -3.356140  -2.590147  3.492462
C    -3.838350  -3.833585  3.767595
N    -3.936271  -4.221049  5.041296
N    -4.168955  -4.674551  2.784750
H    -0.603533  -1.549495  3.123420
H    -0.481864  -1.730924  1.376171
H    -2.575554  -0.309411  1.112198
H    -2.650981  -0.077469  2.850999
H    -2.777021  -2.838579  1.496947
H    -4.197350  -1.792114  1.715610
H    -3.536114  -1.903679  4.221916
H    -3.512879  -3.695261  5.797647
H    -4.392866  -5.644911  2.986644
H    -4.406052  -4.348525  1.855263
H    -4.451330  -5.056529  5.302264
O    1.958543  -0.747903  3.328420
H    1.253381  -1.220926  3.816604
Pb    2.084600  2.184838  0.129615
