28
Energy: -606655.876001 eV PBE+vdW (tier 2 basis)
N    1.485642  -0.980011  0.296858
C    0.628736  -0.433633  1.433429
C    1.570428  0.020690  2.561762
O    1.086498  0.315892  3.698778
H    0.994852  -0.919611  -0.607886
H    2.368264  -0.443227  0.228069
H    0.205998  0.509312  1.045475
C    -0.546338  -1.350314  1.818433
C    -0.212241  -2.778419  2.283235
C    -1.411148  -3.514332  2.930654
N    -2.508486  -3.870214  2.027122
C    -2.769311  -5.095236  1.506935
N    -3.846279  -5.251979  0.733168
N    -1.949634  -6.130485  1.718043
H    -1.240572  -1.371248  0.964578
H    -1.074001  -0.808747  2.618316
H    0.575630  -2.753997  3.053143
H    0.168967  -3.395979  1.453531
H    -1.841404  -2.892751  3.728082
H    -1.037270  -4.410593  3.441378
H    -3.290294  -3.222972  2.002459
H    -4.439591  -4.473692  0.468307
H    -2.145606  -7.034619  1.299567
H    -1.272878  -6.132270  2.470383
H    -4.154728  -6.171888  0.434310
O    2.811555  0.186560  2.300235
H    1.744961  -1.966240  0.447354
Pb    3.143249  1.222004  4.434284
