29
Energy: -169751.137633 eV PBE+vdW (tier 2 basis)
C    -0.767034  -0.219536  -1.259907
C    -0.115326  0.198974  0.000279
O    1.059389  0.564614  0.079231
H    -1.777068  0.201442  -1.358220
H    -0.894526  -1.317791  -1.229352
H    -0.145012  0.036361  -2.122651
N    -0.839744  0.145480  1.275942
C    -1.911392  1.167051  1.554413
C    -1.269529  2.533539  1.852239
O    -0.186698  2.623636  2.536731
H    -1.288087  -0.774502  1.402382
H    -2.568946  1.250486  0.677023
C    -2.744273  0.654252  2.775350
C    -3.821622  1.659463  3.201467
C    -3.373537  -0.713003  2.472179
H    -2.030523  0.544140  3.611655
H    -4.354426  1.261629  4.073066
H    -4.569199  1.815543  2.412201
H    -3.408145  2.629686  3.502993
H    -3.966024  -1.036907  3.336819
H    -2.651872  -1.531322  2.308512
H    -4.052454  -0.667847  1.609051
N    -1.843268  3.658149  1.464542
C    -3.095842  3.905353  0.745690
H    -1.343952  4.495072  1.777315
H    -3.853938  4.291275  1.438301
H    -3.475230  2.996691  0.273313
H    -2.903969  4.656537  -0.028950
Cd    1.104246  0.926534  2.358383
