29
Energy: -169751.519606 eV PBE+vdW (tier 2 basis)
C    1.169477  1.317634  0.330280
C    0.135395  0.774336  1.258180
O    -0.100515  1.448451  2.321180
H    1.365346  0.657143  -0.521548
H    2.099819  1.499742  0.883738
H    0.824448  2.293252  -0.043812
N    -0.491735  -0.366498  0.931179
C    -1.709137  -0.917986  1.542651
C    -1.382772  -1.774015  2.791578
O    -1.573111  -1.259795  3.964846
H    -0.213778  -0.776515  0.041172
H    -2.287832  -0.063075  1.944212
C    -2.656308  -1.552686  0.488673
C    -3.872129  -2.180465  1.182017
C    -3.088848  -0.489292  -0.530925
H    -2.100911  -2.340009  -0.045463
H    -3.611752  -2.974611  1.894461
H    -4.531865  -2.628139  0.429695
H    -4.463684  -1.423778  1.717464
H    -3.658714  0.318230  -0.048596
H    -3.745868  -0.949255  -1.278547
H    -2.250709  -0.039459  -1.079180
N    -0.926209  -3.008239  2.748882
C    -0.674648  -3.895688  1.608251
H    -0.774896  -3.418716  3.673749
H    0.052500  -4.647194  1.931000
H    -0.248837  -3.345326  0.765154
H    -1.595636  -4.406910  1.300387
Cd    -1.230090  0.827864  4.002322
