29
Energy: -169750.241382 eV PBE+vdW (tier 2 basis)
C    -1.158829  0.537869  0.378267
C    -0.893253  0.559957  1.848193
O    -0.010735  1.409566  2.353161
H    -0.225657  0.362620  -0.173067
H    -1.552746  1.515460  0.055803
H    -1.890505  -0.222603  0.089465
N    -1.407752  -0.202462  2.767943
C    -1.880081  -1.537181  2.597281
C    -2.900660  -1.721269  3.713704
O    -2.765259  -0.981589  4.777626
H    -2.057332  -0.314899  4.554327
H    -2.337802  -1.724756  1.608588
C    -0.685698  -2.612303  2.751619
C    -1.213737  -4.047322  2.717787
C    0.357012  -2.375730  1.661288
H    -0.238368  -2.408245  3.736819
H    -0.356975  -4.733041  2.749051
H    -1.758842  -4.268825  1.788028
H    -1.840766  -4.303740  3.579690
H    1.158885  -3.116715  1.776497
H    0.834685  -1.390921  1.727423
H    -0.062927  -2.510189  0.654194
N    -3.876362  -2.584308  3.652482
C    -4.872795  -2.838237  4.703252
H    -3.928065  -3.162156  2.815020
H    -4.657282  -3.801159  5.183332
H    -5.864895  -2.876945  4.241192
H    -4.835708  -2.038789  5.446235
Cd    0.265447  3.442908  1.912798
