29
Energy: -169751.70981 eV PBE+vdW (tier 2 basis)
C    -0.528530  -0.056735  -0.311564
C    -0.244297  -0.190236  1.150726
O    0.926756  -0.578067  1.474565
H    -1.562179  0.228804  -0.532468
H    -0.305236  -1.015712  -0.799807
H    0.158677  0.684343  -0.742705
N    -1.237960  0.098170  2.007148
C    -1.435358  -0.069233  3.476731
C    -0.716470  1.009487  4.305211
O    0.558674  1.142326  4.337940
H    -2.084953  0.402894  1.534393
H    -2.508142  0.139613  3.579193
C    -1.312964  -1.524680  4.056038
C    -2.120451  -2.503631  3.195020
C    0.077832  -2.110954  4.367176
H    -1.815489  -1.434099  5.033677
H    -2.198648  -3.473038  3.701951
H    -1.650042  -2.680250  2.218354
H    -3.144196  -2.145570  3.023985
H    -0.025840  -3.072327  4.894564
H    0.660933  -1.512256  5.101347
H    0.637203  -2.403424  3.453646
N    -1.466979  1.812540  5.037611
C    -0.960305  2.859552  5.931955
H    -2.477874  1.729469  4.955490
H    -1.609562  2.910459  6.811760
H    -0.972214  3.828586  5.416267
H    0.062586  2.620867  6.233128
Cd    1.771440  -0.322793  3.395044
