29
Energy: -169751.031332 eV PBE+vdW (tier 2 basis)
C    -0.302519  2.506034  -0.588753
C    -0.009277  1.403715  0.355274
O    1.209615  1.087135  0.598106
H    0.227751  3.423209  -0.299864
H    -1.373365  2.685455  -0.720421
H    0.120202  2.208982  -1.565205
N    -0.989294  0.679341  0.965033
C    -2.200947  1.144788  1.637643
C    -1.818615  1.518092  3.098246
O    -0.722041  1.149192  3.674888
H    -0.761261  -0.303697  1.141052
H    -2.550918  2.058854  1.136835
C    -3.313665  0.051042  1.535926
C    -2.931268  -1.245618  2.259928
C    -4.691578  0.557771  1.976130
H    -3.367422  -0.148708  0.453160
H    -3.712720  -1.998653  2.101552
H    -2.837031  -1.102814  3.346169
H    -2.003305  -1.710718  1.888233
H    -5.458277  -0.156629  1.652336
H    -4.952275  1.523997  1.519551
H    -4.789340  0.628274  3.068972
N    -2.684616  2.220491  3.796092
C    -2.522004  2.634309  5.195149
H    -3.576652  2.432227  3.350765
H    -2.872519  1.840774  5.867999
H    -3.118767  3.536512  5.357262
H    -1.468205  2.841936  5.399837
Cd    1.092602  0.616470  2.707460
