29
Energy: -169750.07486 eV PBE+vdW (tier 2 basis)
C    -1.493676  0.581086  0.208741
C    -0.962708  0.603727  1.611454
O    -0.226363  1.631620  1.887678
H    -1.037925  1.384644  -0.375865
H    -2.582972  0.737162  0.228900
H    -1.278229  -0.382336  -0.269881
N    -1.230856  -0.343119  2.487055
C    -2.058573  -1.551836  2.341044
C    -2.823098  -1.600904  3.679901
O    -2.265749  -1.144545  4.686603
H    -0.949308  -0.229936  3.471098
H    -2.719094  -1.438488  1.473166
C    -1.162550  -2.834602  2.184907
C    -1.991112  -4.123731  2.196159
C    -0.292946  -2.753600  0.929300
H    -0.507393  -2.840900  3.074311
H    -1.317991  -4.981544  2.080670
H    -2.702308  -4.162462  1.358367
H    -2.539589  -4.277458  3.133986
H    0.359278  -3.635349  0.883412
H    0.366238  -1.875941  0.912548
H    -0.900164  -2.764681  0.011725
N    -4.064295  -2.146070  3.779280
C    -4.987566  -2.573862  2.752332
H    -4.410455  -2.151296  4.743315
H    -5.907606  -1.969033  2.798688
H    -5.281515  -3.619944  2.940035
H    -4.548846  -2.499306  1.756074
Cd    0.638305  2.539772  3.606176
