29
Energy: -169751.742522 eV PBE+vdW (tier 2 basis)
C    1.229136  0.492633  0.785793
C    0.055556  0.209133  1.665706
O    -0.986451  -0.264348  1.096628
H    2.098694  0.874137  1.331336
H    0.926324  1.232202  0.029998
H    1.502791  -0.421274  0.241994
N    0.169024  0.475376  2.976912
C    -0.831717  0.543217  4.076066
C    -1.139852  -0.851690  4.662102
O    -1.893838  -1.703999  4.067744
H    1.086428  0.827506  3.239270
H    -0.309239  1.104567  4.863438
C    -2.115932  1.374731  3.790878
C    -2.917194  1.533676  5.087662
C    -1.799502  2.715139  3.124144
H    -2.793667  0.827654  3.071855
H    -3.845396  2.083144  4.893117
H    -2.343232  2.117431  5.821984
H    -3.190513  0.575233  5.548789
H    -2.723658  3.288992  2.988833
H    -1.328092  2.611497  2.139914
H    -1.134381  3.312633  3.764435
N    -0.627078  -1.167199  5.833282
C    -0.857998  -2.445362  6.521833
H    -0.035579  -0.482232  6.297831
H    -0.448848  -2.368455  7.532077
H    -0.357464  -3.259733  5.983792
H    -1.932624  -2.653031  6.572512
Cd    -2.586699  -1.167582  2.136078
