29
Energy: -169751.593862 eV PBE+vdW (tier 2 basis)
C    -0.009933  -1.645953  -0.457594
C    -0.334774  -0.569598  0.530245
O    0.530797  -0.352067  1.438995
H    -0.798767  -1.813056  -1.198481
H    0.180321  -2.580270  0.088256
H    0.924795  -1.383146  -0.972194
N    -1.505188  0.076035  0.377105
C    -2.248341  1.122720  1.136142
C    -1.548521  2.492624  1.153188
O    -0.534974  2.757244  1.897119
H    -2.032730  -0.266922  -0.421637
H    -3.138296  1.261253  0.512528
C    -2.855439  0.689408  2.513241
C    -1.912242  0.304951  3.667607
C    -3.858872  1.756274  2.975827
H    -3.414086  -0.229222  2.270934
H    -2.491373  -0.082722  4.520153
H    -1.424764  1.197523  4.136267
H    -1.222257  -0.523285  3.426865
H    -3.367669  2.705755  3.233963
H    -4.391304  1.412110  3.870518
H    -4.619714  1.956427  2.210393
N    -2.029655  3.478296  0.416610
C    -3.183098  3.495459  -0.494185
H    -1.524424  4.360187  0.527989
H    -4.127084  3.453090  0.063139
H    -3.127446  2.677912  -1.221608
H    -3.153015  4.438464  -1.047340
Cd    0.475054  1.184511  2.890956
