29
Energy: -169751.211181 eV PBE+vdW (tier 2 basis)
C    0.745084  -0.968949  1.352467
C    0.662545  -0.323369  2.680687
O    1.644757  0.043115  3.328923
H    0.524811  -2.045031  1.483516
H    1.750925  -0.868077  0.934120
H    -0.015039  -0.583572  0.659351
N    -0.634112  -0.136092  3.345915
C    -1.573125  0.911177  2.817145
C    -1.201111  2.316600  3.325930
O    -0.524972  2.514783  4.396667
H    -1.163317  -1.021143  3.340494
H    -1.515911  0.917039  1.718369
C    -3.034357  0.537801  3.232910
C    -3.455768  -0.789298  2.590361
C    -3.253626  0.550067  4.750940
H    -3.660922  1.328788  2.793403
H    -2.949629  -1.666734  3.029787
H    -3.296740  -0.802372  1.503741
H    -4.524841  -0.959102  2.767950
H    -2.689216  -0.243798  5.264913
H    -4.310840  0.354436  4.967969
H    -3.010082  1.516441  5.212266
N    -1.642338  3.378368  2.675073
C    -2.460760  3.476851  1.462814
H    -1.399581  4.265028  3.122918
H    -2.405595  2.563178  0.864648
H    -2.080162  4.308733  0.860364
H    -3.507206  3.679110  1.725152
Cd    0.507129  0.817020  5.173209
