29
Energy: -169751.696953 eV PBE+vdW (tier 2 basis)
C    0.223813  0.323794  -0.233455
C    -0.237110  1.113492  0.945098
O    0.054813  2.362441  0.953969
H    -0.265867  0.727142  -1.132946
H    -0.010735  -0.742970  -0.149179
H    1.304030  0.461919  -0.370712
N    -0.932950  0.491944  1.908210
C    -1.769022  1.094133  2.965395
C    -0.938274  1.314388  4.251060
O    -0.295785  2.418003  4.439905
H    -1.071772  -0.506679  1.762015
H    -2.064786  2.103379  2.619913
C    -3.095018  0.310198  3.151511
C    -3.994306  1.028156  4.168636
C    -3.825712  0.135601  1.811757
H    -2.845468  -0.700033  3.532086
H    -4.316687  2.006531  3.784689
H    -3.523104  1.184783  5.147602
H    -4.900938  0.436096  4.339229
H    -4.066532  1.108697  1.360195
H    -4.773958  -0.387052  1.983392
H    -3.268381  -0.457782  1.075648
N    -0.876981  0.370134  5.161088
C    -0.117128  0.438289  6.415302
H    -1.470122  -0.446672  5.020177
H    0.730593  1.117395  6.296148
H    0.236443  -0.567892  6.661060
H    -0.765454  0.801844  7.223551
Cd    0.055395  3.554720  2.694656
