29
Energy: -169750.81665 eV PBE+vdW (tier 2 basis)
C    0.653842  0.892354  2.898870
C    0.116395  -0.073614  3.920150
O    0.942417  -0.724836  4.635131
H    0.507203  1.920933  3.260365
H    0.128471  0.779964  1.941260
H    1.723559  0.719811  2.755860
N    -1.201021  -0.266037  4.142398
C    -2.302053  0.107978  3.271759
C    -2.578332  1.597389  3.405808
O    -2.436554  2.163155  4.584904
H    -2.041204  1.524138  5.214250
H    -2.068530  -0.128441  2.221901
C    -3.581823  -0.727322  3.679001
C    -4.835373  -0.288992  2.910823
C    -3.348561  -2.225139  3.476974
H    -3.743118  -0.527078  4.753117
H    -5.098895  0.760443  3.092801
H    -5.691756  -0.887623  3.242735
H    -4.730957  -0.451537  1.829612
H    -3.150422  -2.479722  2.426864
H    -4.229138  -2.788919  3.808821
H    -2.501835  -2.642254  4.066845
N    -2.956307  2.395924  2.445077
C    -3.231698  2.102700  1.035420
H    -3.108641  3.367722  2.734193
H    -4.312592  2.154855  0.855890
H    -2.867983  1.110205  0.761106
H    -2.729608  2.859031  0.421810
Cd    -0.688487  -1.916088  5.556252
