29
Energy: -169750.998631 eV PBE+vdW (tier 2 basis)
C    0.722334  -0.943682  1.574853
C    0.310133  -0.652648  2.967340
O    1.160322  -0.790511  3.919263
H    1.578041  -0.319793  1.281407
H    -0.099334  -0.857206  0.858468
H    1.093542  -1.983212  1.560392
N    -0.951639  -0.263165  3.291712
C    -1.796401  0.749863  2.661772
C    -1.394088  2.131085  3.233169
O    -0.711705  2.276947  4.326316
H    -1.282827  -0.565781  4.212723
H    -1.597624  0.751538  1.580837
C    -3.303422  0.422949  2.905921
C    -3.704197  -0.817332  2.100609
C    -3.637277  0.288779  4.398001
H    -3.866834  1.282544  2.514902
H    -3.163662  -1.715365  2.431371
H    -3.528065  -0.684813  1.024664
H    -4.773977  -1.017087  2.235530
H    -3.200670  -0.615595  4.854687
H    -4.720962  0.171466  4.518411
H    -3.346111  1.167553  4.990960
N    -1.785747  3.237282  2.634402
C    -2.600284  3.414321  1.427179
H    -1.499950  4.096536  3.110148
H    -2.174681  4.242476  0.849788
H    -3.632937  3.666835  1.700051
H    -2.594216  2.514062  0.807202
Cd    0.640766  0.884616  5.184426
