29
Energy: -169750.629232 eV PBE+vdW (tier 2 basis)
C    0.413727  -0.662421  2.388293
C    -0.221071  -0.350090  3.716421
O    0.525845  -0.481768  4.747249
H    1.403379  -0.191567  2.352087
H    -0.189028  -0.345205  1.532860
H    0.570260  -1.749252  2.335516
N    -1.488491  0.048245  3.898383
C    -2.550130  0.048266  2.903965
C    -3.228246  1.415322  2.906114
O    -4.375078  1.620067  3.512626
H    -4.749625  0.788929  3.869671
H    -2.090765  -0.051560  1.905362
C    -3.549614  -1.145736  3.043144
C    -2.922908  -2.408542  2.438823
C    -4.034490  -1.424303  4.476150
H    -4.420873  -0.884116  2.416887
H    -2.020091  -2.715499  2.986330
H    -2.660299  -2.269336  1.381965
H    -3.630727  -3.244414  2.491701
H    -3.247813  -1.905680  5.078379
H    -4.867669  -2.137491  4.451129
H    -4.396078  -0.551971  5.049392
N    -2.722547  2.464689  2.313284
C    -1.471657  2.551440  1.549024
H    -3.285674  3.317193  2.379950
H    -1.496175  1.871038  0.688966
H    -0.609527  2.330956  2.188124
H    -1.379460  3.574415  1.175248
Cd    -1.125174  -0.011611  6.111962
