29
Energy: -169750.390814 eV PBE+vdW (tier 2 basis)
C    0.073491  0.644288  1.616937
C    -0.902335  1.105377  2.631692
O    -0.706469  2.231022  3.225718
H    0.003502  -0.430051  1.419917
H    1.092715  0.944137  1.881112
H    -0.182590  1.158569  0.672270
N    -2.013604  0.402139  2.954472
C    -2.129148  -1.048215  3.268141
C    -1.177416  -1.266686  4.481073
O    -1.223562  -0.388858  5.448839
H    -2.775652  0.977251  3.314807
H    -3.122923  -1.117468  3.744118
C    -2.199409  -2.009243  2.053777
C    -2.928883  -3.298566  2.472027
C    -2.952627  -1.349210  0.889014
H    -1.182254  -2.244261  1.704948
H    -2.821360  -4.064215  1.694966
H    -4.003436  -3.100448  2.590137
H    -2.575101  -3.735061  3.414106
H    -3.086760  -2.084780  0.087012
H    -2.423414  -0.491467  0.457504
H    -3.955625  -1.017653  1.193330
N    -0.360812  -2.278237  4.698611
C    -0.016086  -3.513680  3.984426
H    0.100785  -2.190933  5.609311
H    -0.524376  -4.365660  4.454489
H    1.066234  -3.654763  4.086751
H    -0.276324  -3.460082  2.930038
Cd    -1.072564  1.722754  5.289456
