29
Energy: -169750.105817 eV PBE+vdW (tier 2 basis)
C    0.018792  -0.927339  2.532719
C    -0.567368  -0.691931  3.893381
O    0.059866  -1.282545  4.858553
H    -0.763998  -1.188052  1.808813
H    0.754904  -1.734516  2.576004
H    0.526279  -0.010767  2.194137
N    -1.629797  0.063372  4.078517
C    -2.435034  0.778419  3.075273
C    -3.027462  1.948810  3.885430
O    -3.150483  1.813510  5.111038
H    -1.976619  0.273753  5.027302
H    -1.780336  1.128893  2.267700
C    -3.560386  -0.148810  2.475501
C    -4.558726  -0.631370  3.527340
C    -4.251174  0.479514  1.263673
H    -2.994023  -1.025153  2.112677
H    -5.183466  0.185421  3.916288
H    -4.078705  -1.129399  4.379948
H    -5.240612  -1.361611  3.072791
H    -4.892406  -0.273278  0.788472
H    -3.539922  0.820221  0.499194
H    -4.905734  1.315605  1.542549
N    -3.438961  3.095497  3.287570
C    -3.165256  3.616238  1.964759
H    -3.871966  3.743082  3.952308
H    -4.116354  3.875486  1.471161
H    -2.627505  2.894839  1.348066
H    -2.579228  4.545679  2.043625
Cd    0.102678  -1.235571  6.984212
