29
Energy: -169751.519346 eV PBE+vdW (tier 2 basis)
C    1.088123  1.242222  0.470868
C    0.041740  0.715700  1.394645
O    -0.217313  1.415714  2.435275
H    0.745330  2.207698  0.069460
H    1.300205  0.563425  -0.362480
H    2.008870  1.440807  1.034730
N    -0.571438  -0.438050  1.087150
C    -1.794769  -0.983056  1.692562
C    -1.483145  -1.802363  2.969525
O    -1.698088  -1.258619  4.125074
H    -0.275254  -0.869074  0.213092
H    -2.387148  -0.122532  2.060822
C    -2.718311  -1.654308  0.640294
C    -3.940832  -2.273421  1.329686
C    -3.141481  -0.623098  -0.415590
H    -2.147329  -2.451187  0.137700
H    -3.686328  -3.044441  2.069155
H    -4.582892  -2.748560  0.578914
H    -4.548612  -1.507353  1.832619
H    -2.297549  -0.181975  -0.962035
H    -3.725469  0.192948  0.034420
H    -3.782245  -1.108810  -1.161031
N    -1.015652  -3.033244  2.967850
C    -0.737989  -3.949088  1.856076
H    -0.876855  -3.417443  3.905870
H    -0.011966  -4.686657  2.211782
H    -0.300664  -3.418571  1.006160
H    -1.650004  -4.474737  1.545793
Cd    -1.371932  0.832071  4.112617
