29
Energy: -169751.594992 eV PBE+vdW (tier 2 basis)
C    -3.119820  2.499830  2.875298
C    -2.182374  1.352701  3.087438
O    -0.992884  1.647311  3.434850
H    -4.122802  2.193390  2.560360
H    -2.690331  3.170819  2.118561
H    -3.189682  3.076804  3.807830
N    -2.669806  0.113402  2.896012
C    -2.101761  -1.265181  2.917129
C    -1.618874  -1.716897  4.306268
O    -0.512993  -1.325307  4.829979
H    -3.649337  0.121884  2.623295
H    -2.987380  -1.875093  2.707709
C    -1.137356  -1.641668  1.742127
C    0.215131  -0.917743  1.612477
C    -0.932367  -3.163769  1.730450
H    -1.707851  -1.362441  0.841402
H    0.130892  0.180181  1.527217
H    0.716121  -1.210741  0.676682
H    0.963146  -1.271453  2.367276
H    -0.366616  -3.514374  2.605897
H    -0.369137  -3.462722  0.838370
H    -1.888655  -3.701641  1.697730
N    -2.332585  -2.594364  4.989119
C    -3.603428  -3.246033  4.642123
H    -1.910189  -2.865479  5.879894
H    -3.957206  -3.774594  5.531841
H    -3.464791  -3.979788  3.838412
H    -4.365309  -2.508998  4.364599
Cd    0.542245  0.289965  3.958649
