29
Energy: -169751.520849 eV PBE+vdW (tier 2 basis)
C    0.456212  -1.006957  0.284152
C    0.075447  -0.237966  1.504487
O    0.757826  0.814750  1.761750
H    1.527999  -1.241908  0.318030
H    0.297751  -0.365472  -0.595791
H    -0.124148  -1.928363  0.163931
N    -0.951926  -0.674395  2.250039
C    -1.658825  0.062637  3.307080
C    -0.954472  -0.090130  4.678030
O    -0.224076  0.886443  5.113926
H    -1.413925  -1.514330  1.905695
H    -1.562586  1.140878  3.072171
C    -3.189664  -0.194723  3.275164
C    -3.871564  0.531892  4.441412
C    -3.766589  0.259969  1.926827
H    -3.360189  -1.278253  3.377988
H    -4.950713  0.341799  4.410279
H    -3.735812  1.620797  4.370263
H    -3.516842  0.209222  5.429357
H    -4.844777  0.061649  1.907895
H    -3.332731  -0.262907  1.064388
H    -3.631155  1.341259  1.778592
N    -1.050628  -1.152786  5.449439
C    -1.838952  -2.379912  5.292590
H    -0.521892  -1.072070  6.321609
H    -1.850861  -2.712079  4.251187
H    -2.864409  -2.234625  5.655478
H    -1.360145  -3.157144  5.896165
Cd    0.731646  1.946721  3.551868
