29
Energy: -169750.272703 eV PBE+vdW (tier 2 basis)
C    0.213281  1.099963  0.790469
C    -0.258379  0.092551  1.787758
O    0.528309  -0.435010  2.672551
H    0.573630  1.998029  1.318060
H    -0.574683  1.415420  0.098433
H    1.041449  0.678902  0.202510
N    -1.514039  -0.309191  1.761062
C    -2.143813  -1.301034  2.638603
C    -3.259976  -1.901737  1.759209
O    -3.727469  -1.183395  0.864267
H    -2.137969  0.017656  1.010594
H    -1.391054  -2.044426  2.927796
C    -2.746068  -0.618551  3.930696
C    -3.819608  0.422819  3.618073
C    -3.215674  -1.650653  4.957333
H    -1.870427  -0.097929  4.355424
H    -4.109529  0.933724  4.545538
H    -4.734574  -0.029562  3.209537
H    -3.481081  1.196142  2.916743
H    -3.461021  -1.134908  5.894384
H    -2.444584  -2.396091  5.193846
H    -4.129064  -2.170373  4.639498
N    -3.750034  -3.145682  1.963139
C    -3.212683  -4.246628  2.738284
H    -4.526853  -3.367315  1.334091
H    -2.951427  -5.081173  2.070087
H    -3.985364  -4.610721  3.434195
H    -2.333904  -3.944753  3.309923
Cd    2.481690  0.282179  3.205405
