29
Energy: -169751.744123 eV PBE+vdW (tier 2 basis)
C    -0.855878  1.988218  1.434653
C    -0.724704  0.528180  1.722862
O    0.410775  -0.004910  1.477736
H    -0.659309  2.150319  0.364600
H    -0.080195  2.536928  1.985268
H    -1.842988  2.392696  1.682353
N    -1.797095  -0.120233  2.205497
C    -2.100898  -1.566730  2.377350
C    -1.515793  -2.126643  3.693240
O    -0.267893  -2.393717  3.833388
H    -2.601260  0.484721  2.353001
H    -3.194360  -1.586749  2.486996
C    -1.817357  -2.483034  1.151530
C    -2.395820  -3.877863  1.413881
C    -2.322925  -1.870109  -0.156182
H    -0.706385  -2.629846  1.010419
H    -2.168718  -4.544651  0.574141
H    -3.491021  -3.827139  1.499807
H    -2.000750  -4.346669  2.324907
H    -2.149281  -2.567750  -0.983737
H    -1.831348  -0.924524  -0.412829
H    -3.406692  -1.692024  -0.100654
N    -2.345326  -2.357861  4.690137
C    -1.974933  -2.911544  5.998288
H    -3.328094  -2.132940  4.548711
H    -2.724789  -3.655257  6.288083
H    -1.954402  -2.108917  6.746581
H    -0.989904  -3.378851  5.932676
Cd    0.998801  -1.896633  2.207642
