29
Energy: -169750.783105 eV PBE+vdW (tier 2 basis)
C    -0.389584  0.717095  0.337701
C    -0.418667  0.674486  1.817546
O    0.559576  1.241338  2.436303
H    -1.315441  0.385893  -0.131511
H    0.475235  0.155892  -0.045729
H    -0.195600  1.768480  0.062910
N    -1.431994  0.165899  2.582184
C    -2.112772  -1.148595  2.616002
C    -1.511794  -1.920254  3.818666
O    -0.286352  -1.802941  4.214019
H    -1.543872  0.692180  3.452764
H    -3.169984  -0.953647  2.855432
C    -2.067294  -1.930965  1.265135
C    -2.246672  -3.446632  1.417938
C    -3.141209  -1.362732  0.322323
H    -1.063360  -1.776568  0.838532
H    -2.226268  -3.900839  0.419873
H    -3.221421  -3.710717  1.853604
H    -1.449871  -3.923877  2.002632
H    -2.966945  -1.707361  -0.704274
H    -3.183477  -0.265831  0.310139
H    -4.137400  -1.717892  0.620545
N    -2.297541  -2.771104  4.444072
C    -1.907661  -3.660873  5.541755
H    -3.239193  -2.891325  4.073070
H    -1.629567  -4.645792  5.142951
H    -2.762432  -3.774005  6.216070
H    -1.057318  -3.234439  6.078775
Cd    0.927878  -0.074876  4.084576
