29
Energy: -169750.897703 eV PBE+vdW (tier 2 basis)
C    -0.608499  0.005424  -1.061136
C    -0.232855  -0.036383  0.371483
O    0.999820  -0.206489  0.695258
H    -0.066721  0.804791  -1.585422
H    -1.687756  0.085974  -1.217597
H    -0.257552  -0.938250  -1.513478
N    -1.146925  0.073076  1.367479
C    -2.216629  1.069042  1.526509
C    -1.532595  2.406485  1.877128
O    -0.438269  2.447111  2.578196
H    -0.885210  -0.388513  2.243169
H    -2.766867  1.165166  0.581298
C    -3.180866  0.565464  2.649746
C    -4.214521  1.605111  3.090701
C    -3.858364  -0.733969  2.195558
H    -2.533306  0.351223  3.521935
H    -4.815915  1.180928  3.903406
H    -4.911888  1.856735  2.280820
H    -3.765296  2.526843  3.482642
H    -4.453956  -1.142627  3.020704
H    -3.148298  -1.514363  1.892177
H    -4.542408  -0.549242  1.355377
N    -2.048243  3.567234  1.526966
C    -3.291804  3.885054  0.819585
H    -1.506820  4.373964  1.849811
H    -4.024565  4.300280  1.522403
H    -3.715800  2.999048  0.342749
H    -3.065680  4.637193  0.054710
Cd    1.233792  1.153234  2.357602
