29
Energy: -169750.401092 eV PBE+vdW (tier 2 basis)
C    -0.970148  0.536597  0.040811
C    -0.782294  0.662731  1.512869
O    0.054409  1.503010  2.025876
H    -0.026615  0.212388  -0.420858
H    -1.218320  1.523292  -0.379970
H    -1.761116  -0.162003  -0.244968
N    -1.414493  -0.104807  2.394606
C    -2.161659  -1.330243  2.188012
C    -2.904290  -1.530239  3.540741
O    -2.440671  -1.023085  4.560507
H    -1.250135  0.086513  3.397372
H    -2.864931  -1.202646  1.352955
C    -1.231773  -2.579512  1.871114
C    -0.233100  -2.872643  2.984297
C    -2.045278  -3.807301  1.459088
H    -0.679583  -2.231231  0.978687
H    0.396056  -2.010201  3.239182
H    0.436719  -3.681787  2.662072
H    -0.722263  -3.221105  3.905433
H    -2.522960  -4.298265  2.316719
H    -1.370910  -4.548259  1.011214
H    -2.809062  -3.577464  0.702029
N    -4.036822  -2.267377  3.512914
C    -4.893028  -2.432669  4.673966
H    -4.369315  -2.619646  2.617510
H    -5.687426  -1.667989  4.695816
H    -4.288155  -2.328190  5.581519
H    -5.372438  -3.417818  4.619572
Cd    0.586690  3.502616  1.464543
