29
Energy: -169750.890709 eV PBE+vdW (tier 2 basis)
C    0.830801  0.875905  0.726985
C    0.397935  0.793392  2.140839
O    1.277698  0.815987  3.074817
H    1.480721  1.745665  0.563933
H    -0.005304  0.860458  0.022086
H    1.459941  -0.011242  0.533620
N    -0.907263  0.662434  2.500219
C    -2.077918  1.423648  2.050855
C    -1.972297  2.842068  2.652912
O    -1.404137  3.059892  3.800894
H    -1.064446  0.157694  3.377772
H    -2.073461  1.485795  0.955449
C    -3.364522  0.649820  2.508456
C    -3.463881  0.483457  4.030972
C    -4.653593  1.246744  1.939416
H    -3.225714  -0.345470  2.053938
H    -4.325733  -0.153383  4.265318
H    -3.618728  1.439974  4.548473
H    -2.603981  -0.030381  4.495914
H    -5.490618  0.578614  2.175046
H    -4.623907  1.345133  0.847012
H    -4.895573  2.221337  2.384999
N    -2.497708  3.892933  2.056283
C    -3.207044  4.021450  0.779159
H    -2.388930  4.761992  2.586253
H    -3.087607  3.126053  0.166242
H    -2.788399  4.883123  0.246282
H    -4.274619  4.196738  0.957020
Cd    0.274968  2.018372  4.571743
