29
Energy: -169750.91186 eV PBE+vdW (tier 2 basis)
C    0.775242  1.050873  3.059834
C    0.101901  0.110648  4.020044
O    0.820455  -0.618846  4.769505
H    0.838135  0.552330  2.079155
H    1.796381  1.248956  3.398956
H    0.225420  1.991432  2.943368
N    -1.243499  0.003833  4.137576
C    -2.232517  0.396381  3.159211
C    -2.741496  1.800700  3.463990
O    -2.502617  2.304656  4.649658
H    -1.931331  1.665644  5.137957
H    -1.807563  0.387140  2.142892
C    -3.434034  -0.638330  3.167814
C    -2.961221  -2.026021  2.740723
C    -4.211502  -0.667400  4.482692
H    -4.118036  -0.277965  2.383187
H    -2.375864  -2.020195  1.812497
H    -3.821020  -2.693691  2.603445
H    -2.337212  -2.524037  3.516720
H    -4.615359  0.309777  4.777931
H    -3.604910  -1.038646  5.332652
H    -5.056942  -1.361647  4.401889
N    -3.423821  2.548880  2.640553
C    -3.823667  2.267338  1.257440
H    -3.713787  3.456336  3.017634
H    -3.629035  3.161351  0.654772
H    -4.896399  2.039682  1.219317
H    -3.251494  1.431828  0.845781
Cd    -0.967212  -1.733006  5.507809
