29
Energy: -169750.817442 eV PBE+vdW (tier 2 basis)
C    0.687235  1.049464  3.271693
C    0.070265  0.057700  4.221226
O    0.829189  -0.561710  5.031857
H    1.744535  1.181613  3.514597
H    0.172585  2.017469  3.320793
H    0.606109  0.660167  2.245334
N    -1.252473  -0.209910  4.260496
C    -2.236592  0.114080  3.241646
C    -2.663544  1.566603  3.387067
O    -2.741628  2.083776  4.593754
H    -2.371700  1.453554  5.247361
H    -1.825043  -0.047723  2.233298
C    -3.481987  -0.846083  3.413939
C    -4.648543  -0.471449  2.491544
C    -3.083832  -2.304365  3.181482
H    -3.811856  -0.721646  4.460821
H    -5.031429  0.539372  2.679734
H    -5.484007  -1.159183  2.667951
H    -4.378203  -0.562687  1.430975
H    -3.944045  -2.960626  3.361925
H    -2.285931  -2.675980  3.861360
H    -2.724896  -2.480149  2.158129
N    -2.975282  2.375026  2.410813
C    -3.016693  2.128429  0.966335
H    -3.257465  3.314435  2.709275
H    -2.525839  1.186222  0.713743
H    -2.503874  2.954642  0.461331
H    -4.060487  2.095330  0.630838
Cd    -0.837570  -1.864369  5.703684
