29
Energy: -169750.243276 eV PBE+vdW (tier 2 basis)
C    -1.098939  0.468135  -0.183795
C    -1.059260  0.837227  1.267184
O    -0.502089  1.983205  1.505205
H    -0.118653  0.054985  -0.465859
H    -1.263288  1.366009  -0.789303
H    -1.874526  -0.275008  -0.398857
N    -1.526127  0.056080  2.217328
C    -2.168901  -1.260974  2.114594
C    -2.927613  -1.370583  3.454787
O    -2.630011  -0.619790  4.389922
H    -1.528139  0.360254  3.207023
H    -2.877956  -1.258117  1.273442
C    -1.128816  -2.420567  1.903561
C    -0.152784  -2.555010  3.072658
C    -1.813999  -3.747425  1.558666
H    -0.565134  -2.103604  1.010082
H    0.381486  -1.620906  3.291659
H    0.605931  -3.310200  2.831131
H    -0.651729  -2.887178  3.994156
H    -2.274168  -4.221193  2.436818
H    -1.063850  -4.455861  1.186545
H    -2.570113  -3.641983  0.766822
N    -3.898960  -2.313074  3.556311
C    -4.688163  -2.519193  4.750129
H    -4.134545  -2.855998  2.726488
H    -5.667430  -2.013810  4.662148
H    -4.160438  -2.103168  5.613983
H    -4.885303  -3.592967  4.870372
Cd    -0.274483  3.310717  3.140799
