29
Energy: -169751.291069 eV PBE+vdW (tier 2 basis)
C    -0.010537  -0.236281  -0.027464
C    -0.011519  -0.026732  1.449133
O    1.044867  0.477960  1.967618
H    -0.909820  -0.751782  -0.382255
H    0.883198  -0.804251  -0.316652
H    0.060725  0.744358  -0.521244
N    -1.102768  -0.366976  2.153548
C    -1.351619  -0.019057  3.550755
C    -0.608360  -0.938642  4.553040
O    0.324272  -0.391957  5.272949
H    -1.894752  -0.717809  1.617048
H    -0.860779  0.959143  3.716471
C    -2.845815  0.333148  3.853583
C    -3.171439  1.665385  3.156040
C    -3.894290  -0.732282  3.518764
H    -2.865748  0.506602  4.941935
H    -4.164955  2.007865  3.467421
H    -3.194877  1.566640  2.061433
H    -2.458020  2.459646  3.417351
H    -4.889231  -0.289921  3.650850
H    -3.851690  -1.605288  4.175344
H    -3.858562  -1.070834  2.470903
N    -0.836264  -2.219026  4.755235
C    -1.744983  -3.170214  4.113912
H    -0.237861  -2.617578  5.484729
H    -1.167724  -4.072615  3.877994
H    -2.163928  -2.760730  3.195081
H    -2.554206  -3.444075  4.801952
Cd    1.504687  0.850306  4.014530
