29
Energy: -169750.253181 eV PBE+vdW (tier 2 basis)
C    -1.549259  -0.131848  -0.224748
C    -1.131714  0.325070  1.137009
O    -0.493605  1.451150  1.145297
H    -2.087722  0.684281  -0.723132
H    -2.171757  -1.030156  -0.197981
H    -0.649805  -0.338480  -0.821371
N    -1.368942  -0.357305  2.241671
C    -2.081061  -1.618222  2.451903
C    -2.764664  -1.422738  3.824585
O    -2.368142  -0.535912  4.584872
H    -1.160806  0.078251  3.153794
H    -2.827089  -1.758676  1.658148
C    -1.139029  -2.878313  2.505306
C    -0.594998  -3.206495  1.109314
C    -0.028503  -2.736352  3.546397
H    -1.796964  -3.710441  2.807714
H    -0.032285  -4.147623  1.159952
H    0.100822  -2.435283  0.750777
H    -1.390171  -3.346079  0.364985
H    -0.401938  -2.510588  4.554741
H    0.694257  -1.957316  3.264855
H    0.526226  -3.680094  3.617052
N    -3.761771  -2.283702  4.145747
C    -4.498317  -2.217932  5.391222
H    -4.082907  -2.942386  3.437373
H    -4.763900  -3.236538  5.702454
H    -5.438167  -1.652211  5.263609
H    -3.888693  -1.710243  6.145829
Cd    -0.037094  3.031181  2.487627
