29
Energy: -169751.701986 eV PBE+vdW (tier 2 basis)
C    0.708597  -0.055683  0.188244
C    0.463722  0.008217  1.663204
O    1.495838  0.014424  2.410740
H    -0.209950  -0.076430  -0.407409
H    1.304715  -0.952143  -0.031491
H    1.316880  0.810221  -0.107505
N    -0.814924  0.055933  2.076149
C    -1.504408  0.052223  3.400030
C    -1.225142  1.302571  4.255941
O    -0.135459  1.496264  4.903656
H    -1.472560  0.050196  1.300473
H    -2.557510  0.139047  3.102879
C    -1.475914  -1.299329  4.189982
C    -0.129096  -1.837807  4.706143
C    -2.499621  -1.235781  5.332700
H    -1.825395  -2.039504  3.451950
H    -0.260395  -2.842412  5.137477
H    0.240441  -1.276199  5.602612
H    0.627239  -1.991481  3.916511
H    -2.597162  -2.219316  5.807647
H    -3.497382  -0.955785  4.970295
H    -2.204311  -0.522519  6.115980
N    -2.192526  2.194616  4.362693
C    -2.111443  3.417489  5.170313
H    -3.072057  2.009755  3.886879
H    -2.356209  3.196230  6.217412
H    -2.830974  4.139718  4.774723
H    -1.099750  3.829812  5.115085
Cd    1.525439  0.237718  4.512594
