29
Energy: -169751.635595 eV PBE+vdW (tier 2 basis)
C    -0.223608  -1.208347  -0.788508
C    -0.507352  -0.332096  0.387908
O    0.280200  -0.442181  1.387891
H    -0.925074  -1.064248  -1.617018
H    -0.265560  -2.257007  -0.459615
H    0.802651  -1.026553  -1.134903
N    -1.563424  0.495208  0.319567
C    -2.267619  1.307280  1.347357
C    -1.564663  2.660312  1.584560
O    -0.491899  2.760845  2.286531
H    -2.057389  0.444240  -0.567864
H    -3.233057  1.530946  0.877235
C    -2.639548  0.583274  2.673229
C    -3.557987  1.488929  3.501914
C    -3.244217  -0.799723  2.423415
H    -1.721961  0.407592  3.306582
H    -3.790769  1.014829  4.462330
H    -4.512760  1.644086  2.978938
H    -3.117984  2.471844  3.717768
H    -4.149139  -0.716340  1.804217
H    -3.542474  -1.251023  3.376960
H    -2.553312  -1.494328  1.931523
N    -2.072125  3.768397  1.081881
C    -3.288241  3.949544  0.274525
H    -1.546030  4.614114  1.313103
H    -3.271219  3.314771  -0.618652
H    -3.312114  4.991975  -0.055136
H    -4.188900  3.755673  0.869762
Cd    0.396577  0.960987  2.961499
