29
Energy: -169750.807912 eV PBE+vdW (tier 2 basis)
C    0.612343  1.268376  2.813621
C    0.241960  -0.024878  3.490003
O    1.175302  -0.796450  3.876656
H    0.064510  2.116201  3.243150
H    0.360401  1.190908  1.744620
H    1.688202  1.435916  2.908332
N    -1.033608  -0.408247  3.708346
C    -2.227720  0.176110  3.120187
C    -2.634469  1.428148  3.879910
O    -2.396888  1.498749  5.171789
H    -1.881134  0.715986  5.455567
H    -2.048076  0.435015  2.066457
C    -3.389483  -0.904043  3.124888
C    -3.839375  -1.327919  4.524062
C    -4.581098  -0.479406  2.264939
H    -2.900790  -1.758888  2.625259
H    -4.396876  -0.535984  5.042981
H    -3.015217  -1.639960  5.189857
H    -4.510677  -2.192141  4.446585
H    -5.276656  -1.322831  2.173652
H    -4.283940  -0.195998  1.247301
H    -5.150303  0.343884  2.717657
N    -3.235309  2.468394  3.367780
C    -3.598031  2.761299  1.977030
H    -3.466991  3.200018  4.047588
H    -4.688512  2.733517  1.866939
H    -3.146595  2.040776  1.292464
H    -3.240022  3.768814  1.736230
Cd    -0.272946  -2.356365  4.500148
