14
Energy: -233948.060398 eV PBE+vdW (tier 2 basis)
N    0.151540  0.321238  0.166820
C    0.055494  0.106680  1.645807
C    1.458163  0.062460  2.225916
O    2.463246  -0.204848  1.530745
H    -0.693767  -0.078001  -0.255306
H    0.065914  1.327355  -0.018922
H    -0.483785  0.935386  2.128795
H    -0.717714  -1.365446  3.055685
C    -0.670293  -1.208729  1.972042
H    -1.702270  -1.161972  1.600971
H    -0.167933  -2.076525  1.520956
H    2.421678  0.198919  3.865197
O    1.509896  0.286192  3.509092
Ba    2.587832  -0.565707  -0.910798
