14
Energy: -233948.057929 eV PBE+vdW (tier 2 basis)
N    0.153123  0.093384  0.211256
C    0.162225  0.210262  1.707296
C    1.480185  -0.344706  2.231196
O    2.456174  -0.578277  1.484079
H    -0.395235  -0.745381  -0.019269
H    -0.424299  0.859072  -0.151822
H    0.204440  1.286809  1.952123
H    -1.048354  -0.239317  3.461901
C    -1.073646  -0.396701  2.377906
H    -1.978910  0.086417  1.991182
H    -1.139482  -1.477637  2.191298
H    2.397445  -0.828176  3.827438
O    1.517165  -0.515028  3.522858
Ba    2.686170  -0.205717  -0.944442
