14
Energy: -233947.913998 eV PBE+vdW (tier 2 basis)
N    0.227000  0.456050  0.445071
C    0.502457  0.076673  1.867037
C    1.922042  -0.491877  1.944892
O    2.748609  -0.275617  1.036799
H    -0.265033  -0.332471  0.006110
H    -0.475574  1.202730  0.453829
H    0.557135  1.016835  2.445240
H    -1.556242  -0.343778  2.394339
C    -0.573115  -0.821186  2.487828
H    -0.613508  -1.806850  2.004615
H    -0.419158  -0.966893  3.567238
H    1.606580  -1.331872  3.638933
O    2.316880  -1.174808  2.982744
Ba    2.588927  0.931063  -1.072676
