14
Energy: -233947.91001 eV PBE+vdW (tier 2 basis)
N    0.344947  0.839873  0.813564
C    0.527004  0.137633  2.121365
C    1.909899  -0.506985  2.141119
O    2.519842  -0.747932  1.081126
H    -0.659347  0.854853  0.606769
H    0.585561  1.829409  0.940437
H    0.461863  0.858311  2.953017
H    -0.528706  -1.684067  1.502745
C    -0.542788  -0.949597  2.319829
H    -0.393495  -1.494075  3.260191
H    -1.536726  -0.486628  2.368301
H    1.949773  -0.633487  4.062971
O    2.468127  -0.865946  3.265450
Ba    2.032046  -0.193362  -1.241885
