35
Energy: -172332.288053 eV PBE+vdW (tier 2 basis)
C    0.069539  0.917100  -0.167765
C    -0.091464  0.382253  1.203261
O    0.915822  -0.161837  1.783614
H    0.402243  0.075879  -0.802582
H    0.882210  1.655611  -0.211534
H    -0.858298  1.315888  -0.587875
N    -1.283225  0.397405  1.858814
C    -2.163043  1.556370  2.069596
C    -1.450367  2.444524  3.127513
O    -0.695985  1.907213  4.030847
H    -1.349364  -0.297467  2.606511
H    -2.256882  2.103135  1.122442
C    -3.544806  1.019128  2.538626
C    -4.745126  1.984242  2.565297
C    -6.000622  1.241546  3.076971
C    -7.278371  2.068475  3.256542
N    -8.140090  2.168238  2.000072
H    -3.416111  0.576883  3.540638
H    -3.773786  0.185733  1.857043
H    -4.910915  2.395503  1.556330
H    -4.547216  2.835979  3.233231
H    -5.779964  0.832078  4.074054
H    -6.210809  0.358873  2.450635
H    -7.079103  3.100086  3.572390
H    -7.930058  1.607499  4.007871
H    -8.993854  2.717241  2.187879
H    -8.448833  1.237999  1.679724
H    -7.656987  2.623055  1.213593
N    -1.611652  3.751757  3.168465
C    -2.407948  4.644370  2.322498
H    -1.086023  4.211783  3.918421
H    -1.750707  5.432129  1.932997
H    -3.195386  5.116149  2.923279
H    -2.857132  4.104591  1.486409
Cd    0.923588  0.506103  3.828724
