35
Energy: -172332.891315 eV PBE+vdW (tier 2 basis)
C    0.047787  1.865873  2.099399
C    -0.191214  0.395294  2.185342
O    0.846701  -0.357567  2.227374
H    -0.865789  2.451207  1.949013
H    0.747967  2.063632  1.274738
H    0.552571  2.202177  3.017529
N    -1.460625  -0.041103  2.201336
C    -2.080280  -1.386548  2.040405
C    -1.967071  -2.284540  3.287906
O    -0.885201  -2.909644  3.619055
H    -2.139874  0.717106  2.199519
H    -3.146641  -1.148073  1.949690
C    -1.704923  -2.135101  0.733652
C    -2.179953  -1.372335  -0.524316
C    -2.426930  -2.212529  -1.799908
C    -1.173320  -2.638785  -2.565083
N    -1.542047  -3.264454  -3.905242
H    -2.206971  -3.113950  0.791076
H    -0.625957  -2.344872  0.687592
H    -1.491204  -0.545192  -0.752621
H    -3.146385  -0.898297  -0.295623
H    -3.046128  -1.590286  -2.465043
H    -3.034858  -3.096655  -1.550301
H    -0.576982  -3.392945  -2.037055
H    -0.526367  -1.784865  -2.803281
H    -0.703268  -3.553081  -4.432047
H    -2.061998  -2.603801  -4.503503
H    -2.133831  -4.101621  -3.793246
N    -3.033844  -2.520543  4.024977
C    -4.422666  -2.057041  3.873352
H    -2.864152  -3.168448  4.800325
H    -4.926004  -2.207420  4.833559
H    -4.949157  -2.645080  3.110581
H    -4.462329  -0.989025  3.635049
Cd    1.044165  -2.172616  3.267397
