35
Energy: -172332.234006 eV PBE+vdW (tier 2 basis)
C    -0.707993  0.275405  0.162080
C    -0.280866  0.025714  1.561340
O    0.960546  0.186791  1.843517
H    -0.028407  1.018793  -0.277723
H    -1.743664  0.613325  0.082626
H    -0.573243  -0.641426  -0.437688
N    -1.128770  -0.329459  2.566527
C    -2.119932  -1.428458  2.603730
C    -1.315873  -2.771900  2.627455
O    -0.090579  -2.821852  3.024848
H    -0.736077  -0.130780  3.488002
H    -2.559312  -1.359242  3.612917
C    -3.265212  -1.342868  1.575345
C    -4.202453  -0.114759  1.675160
C    -5.170660  -0.127809  2.882107
C    -6.560008  0.473626  2.650662
N    -6.593304  1.995691  2.540400
H    -3.897381  -2.235082  1.701268
H    -2.861404  -1.414981  0.557157
H    -4.786694  -0.120686  0.742377
H    -3.611254  0.813714  1.659971
H    -4.713853  0.323050  3.777129
H    -5.388917  -1.170487  3.163434
H    -7.225346  0.231404  3.488065
H    -7.022208  0.096662  1.729360
H    -7.563798  2.324469  2.412947
H    -6.051811  2.350807  1.740199
H    -6.234102  2.451344  3.392277
N    -1.917869  -3.902242  2.330832
C    -1.294404  -5.234808  2.408461
H    -2.901337  -3.869982  2.073424
H    -1.092748  -5.494912  3.455152
H    -0.356053  -5.243635  1.843156
H    -1.988570  -5.960709  1.977545
Cd    1.597241  -1.518542  2.988911
