35
Energy: -172331.797734 eV PBE+vdW (tier 2 basis)
C    0.444885  -0.384078  0.694838
C    -0.200806  -0.479575  2.029176
O    0.461662  -0.818045  3.085951
H    -0.192237  0.060010  -0.073190
H    0.702185  -1.403280  0.360379
H    1.381360  0.182182  0.779057
N    -1.493912  -0.232050  2.271015
C    -2.593785  0.423094  1.509548
C    -2.820551  -0.278646  0.130867
O    -2.301407  0.148554  -0.897035
H    -1.745992  -0.443959  3.240791
H    -3.472542  0.195084  2.129020
C    -2.558112  1.968361  1.432629
C    -1.456193  2.695094  0.647356
C    -1.540656  4.232814  0.807540
C    -2.631241  4.979378  0.033441
N    -2.210951  5.344913  -1.388362
H    -2.549955  2.320564  2.476723
H    -3.551530  2.244546  1.044081
H    -1.478664  2.398037  -0.411844
H    -0.467857  2.397569  1.026845
H    -0.561361  4.677153  0.569765
H    -1.700230  4.475339  1.868736
H    -2.866085  5.935640  0.515235
H    -3.566736  4.415215  -0.064751
H    -1.977415  4.520474  -1.958572
H    -1.385625  5.963048  -1.386047
H    -2.964109  5.851934  -1.878309
N    -3.644602  -1.357218  0.155135
C    -4.085395  -2.037000  -1.052633
H    -4.134307  -1.579485  1.020377
H    -4.296902  -3.085429  -0.808581
H    -3.310239  -1.947391  -1.821982
H    -5.014345  -1.588981  -1.444689
Cd    2.155744  -2.101099  3.457063
