35
Energy: -172332.014865 eV PBE+vdW (tier 2 basis)
C    -0.062171  0.174120  -0.018262
C    -0.057758  0.275183  1.466413
O    1.026815  0.128429  2.156148
H    0.427525  -0.761674  -0.320461
H    0.521100  1.009522  -0.437271
H    -1.057476  0.206856  -0.468039
N    -1.149530  0.482713  2.201402
C    -2.571679  0.524074  1.837545
C    -3.107915  1.820202  2.554514
O    -3.027972  1.877443  3.776261
H    -0.976751  0.569023  3.210232
H    -2.663728  0.622376  0.748975
C    -3.337671  -0.715705  2.357029
C    -4.849033  -0.646578  2.066369
C    -5.726996  -1.677667  2.810889
C    -5.632734  -3.108084  2.281030
N    -6.674174  -4.000747  2.945702
H    -3.167517  -0.785538  3.442191
H    -2.880234  -1.602442  1.892743
H    -5.032947  -0.715920  0.982635
H    -5.228682  0.338188  2.375755
H    -6.769372  -1.335456  2.715547
H    -5.488673  -1.656448  3.886171
H    -4.663171  -3.581188  2.478545
H    -5.835590  -3.163411  1.203908
H    -7.632334  -3.664435  2.764886
H    -6.553773  -4.037018  3.969035
H    -6.621501  -4.969751  2.596826
N    -3.632039  2.789691  1.771708
C    -4.280715  3.972331  2.323253
H    -3.714546  2.625176  0.770781
H    -4.159813  4.800526  1.614713
H    -3.831206  4.206174  3.295106
H    -5.360105  3.805069  2.472212
Cd    3.098977  0.514346  1.766814
