35
Energy: -172331.578252 eV PBE+vdW (tier 2 basis)
C    -1.145326  -3.581939  0.208466
C    -0.915195  -2.898474  1.512684
O    0.068894  -3.080695  2.233178
H    -2.203682  -3.632588  -0.073539
H    -0.708584  -4.586578  0.233754
H    -0.607516  -3.015959  -0.570602
N    -1.870210  -1.963855  1.939869
C    -1.655901  -1.120467  3.075919
C    -1.906702  -1.941516  4.441547
O    -2.988620  -1.700604  5.068538
H    -2.759398  -1.910524  1.441812
H    -0.564505  -0.945506  3.132225
C    -2.443670  0.195253  2.992120
C    -1.917078  1.314770  3.924644
C    -0.902069  2.309105  3.308405
C    -1.577554  3.422401  2.503223
N    -0.580216  4.484460  2.057404
H    -3.503776  -0.001124  3.199040
H    -2.396845  0.518695  1.941941
H    -1.446801  0.872750  4.815072
H    -2.776820  1.877669  4.313695
H    -0.165653  1.779015  2.682783
H    -0.336463  2.764885  4.135430
H    -2.327469  3.953893  3.102690
H    -2.063284  3.063041  1.587494
H    -1.047975  5.236537  1.527921
H    0.157207  4.098634  1.449346
H    -0.111156  4.928503  2.861603
N    -0.952049  -2.779127  4.767841
C    -0.935419  -3.691836  5.911268
H    -0.211092  -2.883015  4.050630
H    -1.740110  -4.442855  5.846433
H    -0.970834  -3.137917  6.859738
H    0.011627  -4.242645  5.889707
Cd    -4.015788  -2.699383  6.712106
