35
Energy: -172331.760465 eV PBE+vdW (tier 2 basis)
C    0.605500  -0.557491  0.639910
C    0.201739  -0.524107  2.070688
O    1.050353  -0.786411  3.008663
H    0.949100  -1.569001  0.383752
H    1.447716  0.144389  0.506620
H    -0.184590  -0.287240  -0.059968
N    -1.024993  -0.227774  2.530286
C    -2.356277  -0.279850  1.895169
C    -2.617531  -1.734539  1.380435
O    -1.785749  -2.232145  0.620947
H    -1.055011  -0.210460  3.551962
H    -3.036946  -0.066416  2.729046
C    -2.612359  0.764844  0.775256
C    -4.115296  0.886391  0.450649
C    -4.481522  1.802449  -0.739918
C    -4.437129  3.299711  -0.431895
N    -5.028507  4.110169  -1.579211
H    -2.067604  0.483146  -0.135632
H    -2.200629  1.722258  1.126269
H    -4.667983  1.215367  1.345163
H    -4.508244  -0.108865  0.197449
H    -5.507415  1.536544  -1.039331
H    -3.837204  1.572620  -1.603221
H    -3.420568  3.684490  -0.285806
H    -5.035710  3.554946  0.451859
H    -5.005481  5.121626  -1.378817
H    -4.517172  3.961748  -2.462008
H    -6.013495  3.858163  -1.753431
N    -3.729022  -2.399651  1.766614
C    -4.701954  -2.067013  2.801079
H    -3.776870  -3.345615  1.379640
H    -5.568901  -2.724529  2.672010
H    -5.040855  -1.028538  2.721117
H    -4.297699  -2.247949  3.810087
Cd    3.192819  -0.751675  2.997350
