35
Energy: -172332.595217 eV PBE+vdW (tier 2 basis)
C    0.059573  0.095251  -0.502999
C    0.323161  0.490012  0.899604
O    1.521406  0.792902  1.245929
H    0.364224  0.890626  -1.198337
H    -0.975618  -0.210885  -0.679418
H    0.721474  -0.759680  -0.728868
N    -0.651637  0.500265  1.849198
C    -1.958197  1.154104  1.741762
C    -1.756188  2.649170  2.158939
O    -0.671601  3.079476  2.704843
H    -0.296022  0.448766  2.806723
H    -2.247888  1.148205  0.679987
C    -3.047558  0.426737  2.570405
C    -3.345579  -0.989501  2.038091
C    -4.638187  -1.658804  2.561608
C    -4.563232  -2.192338  3.993150
N    -5.810832  -2.996305  4.340233
H    -3.964560  1.033464  2.527432
H    -2.744420  0.413844  3.629782
H    -2.486212  -1.652948  2.218011
H    -3.456601  -0.933110  0.944708
H    -4.852032  -2.500090  1.884092
H    -5.484893  -0.960692  2.464117
H    -4.498318  -1.400663  4.749611
H    -3.718220  -2.878522  4.132968
H    -5.768376  -3.362642  5.303769
H    -5.928749  -3.806886  3.713011
H    -6.669305  -2.429585  4.268030
N    -2.747778  3.491571  1.963209
C    -2.725609  4.928310  2.280849
H    -3.619742  3.122194  1.587084
H    -1.737434  5.342790  2.060320
H    -2.956153  5.082375  3.343304
H    -3.483300  5.425556  1.668456
Cd    1.392378  2.534585  2.498159
