35
Energy: -172331.788039 eV PBE+vdW (tier 2 basis)
C    0.305339  0.151017  0.496522
C    -0.007421  -0.124950  1.924506
O    0.859768  -0.580846  2.758541
H    0.411671  -0.803759  -0.042720
H    -0.446386  0.763570  -0.009805
H    1.271711  0.670455  0.424267
N    -1.238663  0.027515  2.433949
C    -2.503373  0.193196  1.708139
C    -2.872593  1.714382  1.496757
O    -3.135400  2.008845  0.330920
H    -1.304374  -0.171482  3.436272
H    -2.354440  -0.166530  0.685904
C    -3.642035  -0.600793  2.387410
C    -5.071873  -0.345590  1.868390
C    -5.403646  -0.872231  0.456231
C    -6.903124  -0.717286  0.188812
N    -7.317658  -1.270104  -1.167719
H    -3.640421  -0.376811  3.464530
H    -3.392916  -1.669177  2.293389
H    -5.308723  0.728393  1.926553
H    -5.740627  -0.833152  2.592862
H    -5.122655  -1.935502  0.385570
H    -4.831583  -0.323948  -0.308816
H    -7.216691  0.334164  0.193230
H    -7.506583  -1.258520  0.928455
H    -8.332174  -1.155578  -1.317361
H    -7.112014  -2.276542  -1.252848
H    -6.841155  -0.789645  -1.944891
N    -2.913535  2.607330  2.504649
C    -2.946857  2.399019  3.950708
H    -3.210372  3.533531  2.188140
H    -2.659719  3.342558  4.429576
H    -2.233320  1.635837  4.272305
H    -3.955576  2.136551  4.300242
Cd    3.014728  -0.421954  2.886835
