35
Energy: -172331.304357 eV PBE+vdW (tier 2 basis)
C    -0.889964  -0.605944  -0.473846
C    -0.759671  -0.692401  1.017807
O    0.119315  -1.304158  1.609048
H    -0.631799  0.405071  -0.823474
H    -1.925846  -0.819002  -0.776793
H    -0.209549  -1.324794  -0.938711
N    -1.709331  0.015526  1.782086
C    -1.573498  0.040395  3.207705
C    -2.963421  -0.145105  3.882734
O    -2.996096  -1.222778  4.580167
H    -2.285973  0.696762  1.290350
H    -1.006447  -0.880239  3.433633
C    -0.747662  1.228802  3.835558
C    0.005644  0.860587  5.127722
C    1.420190  0.252816  4.957986
C    2.496221  1.323918  4.760155
N    3.897994  0.727785  4.774563
H    -1.400210  2.090570  4.019733
H    -0.049592  1.532839  3.042058
H    -0.596164  0.158175  5.724123
H    0.071100  1.762367  5.754255
H    1.440250  -0.467299  4.124051
H    1.652657  -0.316300  5.870854
H    2.481381  2.065715  5.568741
H    2.406632  1.856607  3.805202
H    4.102325  0.256973  5.669145
H    4.034914  0.033265  4.025386
H    4.615280  1.458619  4.647736
N    -3.964125  0.700194  3.761978
C    -4.065690  1.939012  2.972320
H    -4.820977  0.453452  4.260501
H    -4.683247  1.761952  2.082055
H    -3.077907  2.305706  2.683461
H    -4.548056  2.706067  3.589000
Cd    -4.511524  -2.418786  5.649448
