35
Energy: -172331.416426 eV PBE+vdW (tier 2 basis)
C    0.070350  -1.751523  2.426517
C    0.164682  -0.278997  2.192802
O    1.073679  0.433040  2.582254
H    -0.526458  -1.955257  3.329240
H    1.077305  -2.143218  2.609277
H    -0.383435  -2.276710  1.576246
N    -0.862299  0.401565  1.476390
C    -2.267252  0.113925  1.580705
C    -2.860326  -0.194161  0.139635
O    -4.111553  -0.403573  0.103764
H    -0.621740  1.391447  1.361568
H    -2.401655  -0.840512  2.113602
C    -3.080260  1.223235  2.286823
C    -2.773383  1.399151  3.796087
C    -1.766631  2.509498  4.171313
C    -1.736073  2.703350  5.690603
N    -0.820189  3.842471  6.116621
H    -4.138291  0.952532  2.174185
H    -2.951529  2.174332  1.745458
H    -2.453963  0.438886  4.231206
H    -3.732369  1.630213  4.282075
H    -2.072392  3.451452  3.688082
H    -0.753621  2.270174  3.810983
H    -1.372118  1.811628  6.216198
H    -2.728094  2.953144  6.087738
H    0.158040  3.683763  5.833159
H    -1.115083  4.745532  5.715995
H    -0.823209  3.952934  7.142756
N    -2.025237  -0.237680  -0.877063
C    -2.362938  -0.536769  -2.266177
H    -1.046284  -0.064151  -0.637288
H    -2.755840  -1.561404  -2.368400
H    -3.056995  0.212624  -2.675196
H    -1.446606  -0.488746  -2.865540
Cd    -5.543436  -1.030924  -1.440383
