35
Energy: -172332.151487 eV PBE+vdW (tier 2 basis)
C    1.094841  -0.569966  0.729765
C    0.651362  -0.759893  2.130452
O    1.536549  -1.081688  3.001365
H    1.754263  0.318852  0.743684
H    0.275827  -0.351887  0.041827
H    1.721493  -1.403474  0.390923
N    -0.609438  -0.488913  2.572474
C    -1.955050  -0.961014  2.190385
C    -2.306483  -2.109030  3.175445
O    -1.396162  -2.844236  3.726472
H    -0.600301  -0.132089  3.531555
H    -2.624408  -0.117654  2.417174
C    -2.220622  -1.317807  0.704906
C    -1.721395  -2.657602  0.130387
C    -2.160882  -2.800722  -1.346329
C    -1.751609  -4.142102  -1.958444
N    -2.205059  -4.263455  -3.407449
H    -1.859627  -0.469465  0.105400
H    -3.314057  -1.283200  0.593400
H    -2.132872  -3.494690  0.716230
H    -0.626579  -2.743571  0.194194
H    -1.727110  -1.977452  -1.936615
H    -3.255502  -2.688995  -1.407188
H    -2.200372  -4.993458  -1.431473
H    -0.663305  -4.280630  -1.972511
H    -1.925176  -5.171771  -3.809946
H    -1.795956  -3.529817  -4.005850
H    -3.230053  -4.196344  -3.500165
N    -3.563419  -2.385711  3.459653
C    -4.803020  -1.763530  2.978545
H    -3.681228  -3.163988  4.114972
H    -5.237127  -2.355235  2.162259
H    -4.629741  -0.736087  2.645039
H    -5.515765  -1.744763  3.810728
Cd    0.570081  -2.371677  4.425459
