35
Energy: -172332.203655 eV PBE+vdW (tier 2 basis)
C    0.365637  3.793003  0.247554
C    0.499524  2.752608  1.292347
O    1.640329  2.573341  1.851731
H    1.086561  3.539963  -0.550907
H    0.680688  4.775743  0.625292
H    -0.633665  3.834998  -0.195129
N    -0.530170  1.938790  1.650309
C    -1.884874  2.345372  2.053003
C    -1.734370  2.996118  3.456645
O    -0.812326  2.589441  4.266907
H    -0.228038  1.066099  2.090498
H    -2.262143  3.079869  1.330450
C    -2.764218  1.059510  2.085348
C    -4.302310  1.178145  2.134613
C    -4.967027  1.523846  0.788246
C    -6.499761  1.517706  0.773267
N    -7.113538  0.121348  0.718802
H    -2.436315  0.459617  2.948503
H    -2.481806  0.487997  1.187830
H    -4.625287  1.884276  2.913880
H    -4.652358  0.194241  2.483902
H    -4.588974  0.859270  -0.006241
H    -4.685454  2.537984  0.464933
H    -6.879764  2.032225  -0.117088
H    -6.933577  2.002387  1.657099
H    -8.143623  0.179964  0.683143
H    -6.876466  -0.455172  1.538260
H    -6.815022  -0.394510  -0.122686
N    -2.549904  3.937140  3.888447
C    -3.693041  4.583902  3.240576
H    -2.340740  4.264781  4.836811
H    -3.539841  5.670258  3.265572
H    -4.611175  4.351296  3.794493
H    -3.794512  4.261049  2.202193
Cd    1.297064  2.303633  3.959047
