35
Energy: -172331.934471 eV PBE+vdW (tier 2 basis)
C    0.486233  0.543413  3.053446
C    -0.428539  -0.626680  3.151333
O    -0.066238  -1.732061  3.726343
H    1.433536  0.228605  2.594205
H    0.710864  0.913921  4.066037
H    0.077803  1.377470  2.477115
N    -1.650456  -0.653762  2.636489
C    -2.372200  0.299273  1.783253
C    -3.852032  0.136058  2.270390
O    -4.247028  -1.007963  2.494119
H    -2.201417  -1.506432  2.815492
H    -1.989312  1.310981  1.955173
C    -2.272926  -0.112920  0.284854
C    -3.138396  0.712599  -0.689243
C    -3.301398  0.044968  -2.076136
C    -2.186313  0.252915  -3.110458
N    -2.498096  1.384303  -4.088170
H    -2.577311  -1.169256  0.225889
H    -1.209194  -0.069921  0.004685
H    -2.742270  1.736892  -0.784199
H    -4.151200  0.818528  -0.275346
H    -4.261531  0.361009  -2.513213
H    -3.415357  -1.039505  -1.937903
H    -2.053171  -0.634221  -3.739948
H    -1.215413  0.499374  -2.663421
H    -3.357782  1.186483  -4.622824
H    -1.738395  1.505099  -4.775630
H    -2.632431  2.290561  -3.618382
N    -4.656383  1.214818  2.425843
C    -4.336706  2.630720  2.371989
H    -5.581117  0.964624  2.788258
H    -4.043818  3.012071  3.364528
H    -5.237996  3.177480  2.066930
H    -3.536408  2.834549  1.654062
Cd    1.275075  -2.214610  5.305170
