35
Energy: -172332.768725 eV PBE+vdW (tier 2 basis)
C    0.184465  1.826236  2.101516
C    -0.490002  0.551163  1.718968
O    0.073254  -0.143014  0.802396
H    0.299894  2.444817  1.198489
H    1.200696  1.606309  2.459216
H    -0.359640  2.398196  2.861142
N    -1.636795  0.227915  2.342523
C    -2.679545  -0.800360  2.066453
C    -2.225435  -2.211056  2.509035
O    -1.532267  -2.980107  1.737763
H    -1.900188  0.895801  3.064175
H    -3.493903  -0.510411  2.739537
C    -3.234427  -0.746452  0.621731
C    -4.641624  -1.361645  0.421562
C    -5.803574  -0.440085  0.845227
C    -7.216729  -1.000137  0.643652
N    -7.725826  -0.906217  -0.791982
H    -2.543393  -1.242323  -0.077185
H    -3.242583  0.310738  0.319707
H    -4.719054  -2.328726  0.944310
H    -4.722416  -1.602868  -0.649196
H    -5.718129  0.539623  0.346974
H    -5.743516  -0.217350  1.921672
H    -7.943171  -0.436772  1.240781
H    -7.294932  -2.058322  0.923192
H    -7.760141  0.070260  -1.121663
H    -8.687114  -1.277077  -0.859277
H    -7.153156  -1.440908  -1.459724
N    -2.571209  -2.705098  3.681981
C    -3.380689  -2.163548  4.778195
H    -2.199193  -3.646105  3.850124
H    -4.248338  -2.814313  4.943340
H    -3.718826  -1.145393  4.572976
H    -2.770995  -2.156288  5.691000
Cd    -0.039545  -2.211405  0.457756
