35
Energy: -172332.481872 eV PBE+vdW (tier 2 basis)
C    -0.724098  0.504995  -1.420727
C    0.035050  -0.028511  -0.262009
O    1.301450  -0.190050  -0.385168
H    -0.023540  0.982714  -2.116475
H    -1.193191  -0.330438  -1.969758
H    -1.504970  1.208956  -1.117709
N    -0.539580  -0.349817  0.929669
C    -1.745063  -1.166450  1.182145
C    -1.406184  -2.622150  0.741592
O    -0.195986  -3.062248  0.718623
H    0.120223  -0.340378  1.708819
H    -1.794681  -1.222664  2.282503
C    -3.081052  -0.538516  0.699211
C    -4.280203  -0.790409  1.642726
C    -5.525311  0.032577  1.244323
C    -6.669563  -0.165300  2.242553
N    -7.891034  0.671653  1.888376
H    -3.313403  -0.847307  -0.330926
H    -2.910026  0.545867  0.664578
H    -3.983702  -0.522328  2.668991
H    -4.553000  -1.858303  1.679665
H    -5.856557  -0.253374  0.233369
H    -5.252410  1.099332  1.203768
H    -6.385465  0.134882  3.259028
H    -7.017880  -1.205228  2.276167
H    -8.649710  0.525010  2.572692
H    -8.271614  0.432441  0.960428
H    -7.681207  1.681256  1.883655
N    -2.380874  -3.460655  0.462517
C    -2.201453  -4.883451  0.128157
H    -3.335015  -3.118162  0.540854
H    -3.140036  -5.259177  -0.287353
H    -1.944649  -5.453047  1.030506
H    -1.401517  -4.995199  -0.610681
Cd    1.715865  -2.149368  0.403618
