35
Energy: -172331.336147 eV PBE+vdW (tier 2 basis)
C    -0.982774  -1.484004  -0.423249
C    -1.073931  -1.274565  1.055753
O    -1.039249  -2.180783  1.884332
H    -0.588408  -2.484230  -0.625593
H    -0.337107  -0.723444  -0.885904
H    -1.982468  -1.406975  -0.876963
N    -1.222183  0.033030  1.528178
C    -1.365384  0.277831  2.929876
C    -2.869309  0.128440  3.412610
O    -3.693440  0.944050  2.876916
H    -1.418750  0.777140  0.859058
H    -0.864258  -0.582758  3.412975
C    -0.784257  1.628631  3.389527
C    0.755442  1.697398  3.267303
C    1.286543  3.083448  3.686167
C    2.761365  3.371419  3.396781
N    3.731943  2.753391  4.400360
H    -1.083832  1.794163  4.435699
H    -1.242845  2.442326  2.806736
H    1.048366  1.494104  2.225728
H    1.203078  0.897675  3.879776
H    1.064727  3.286893  4.746614
H    0.738205  3.857513  3.127550
H    2.954786  4.449815  3.440784
H    3.076223  3.010483  2.409562
H    3.556228  3.094710  5.357036
H    3.685795  1.725648  4.421339
H    4.704917  3.005930  4.166413
N    -3.170005  -0.788578  4.304137
C    -2.287979  -1.768127  4.977619
H    -4.152150  -0.834372  4.583256
H    -1.556112  -1.254420  5.611389
H    -1.793804  -2.409196  4.239666
H    -2.921150  -2.388757  5.618179
Cd    -5.867140  1.272702  2.972473
