35
Energy: -172331.657971 eV PBE+vdW (tier 2 basis)
C    1.428513  -0.252552  1.033459
C    0.625642  0.795522  1.762653
O    1.143751  1.617102  2.510162
H    0.942088  -0.582566  0.106853
H    1.547523  -1.123379  1.697876
H    2.425974  0.142976  0.817067
N    -0.760298  0.732135  1.546099
C    -1.843297  1.276362  2.358015
C    -2.923308  1.927152  1.400651
O    -4.085344  2.018428  1.912166
H    -1.017142  -0.129956  1.061629
H    -2.386262  0.430876  2.807851
C    -1.468529  2.243148  3.501741
C    -0.938570  3.635974  3.135636
C    -0.393088  4.434436  4.339951
C    0.810767  3.884906  5.104592
N    2.094584  3.860344  4.286144
H    -0.736220  1.687381  4.107534
H    -2.365906  2.337176  4.129973
H    -1.749202  4.242621  2.703588
H    -0.168095  3.558282  2.354569
H    -1.187503  4.544859  5.094505
H    -0.173712  5.461731  4.010567
H    0.670642  2.859652  5.467603
H    1.017471  4.518983  5.974997
H    2.897421  3.595098  4.875752
H    2.308928  4.785088  3.885969
H    2.032642  3.172375  3.517003
N    -2.564279  2.308229  0.194132
C    -3.426900  2.923530  -0.814370
H    -1.586752  2.133748  -0.045038
H    -2.811412  3.196060  -1.679059
H    -3.879041  3.852743  -0.435239
H    -4.187865  2.213311  -1.172300
Cd    -6.070397  2.583389  1.245125
