35
Energy: -172331.785195 eV PBE+vdW (tier 2 basis)
C    -2.415547  2.530425  0.623434
C    -1.567356  1.989561  1.734619
O    -0.356766  2.226274  1.833802
H    -2.646373  3.582028  0.859857
H    -3.354701  1.986082  0.479996
H    -1.830734  2.534238  -0.303847
N    -2.198264  1.199710  2.685081
C    -1.532740  0.402069  3.694517
C    -0.894682  1.299553  4.817087
O    -1.318117  1.011592  5.991481
H    -3.196010  1.037938  2.558037
H    -2.324871  -0.160798  4.206227
C    -0.480393  -0.627466  3.158446
C    -1.139736  -1.660917  2.226621
C    -0.170516  -2.606509  1.477713
C    0.383428  -3.758882  2.316125
N    1.138801  -4.753463  1.442484
H    -0.021873  -1.110704  4.033885
H    0.313574  -0.078053  2.633063
H    -1.702343  -1.124797  1.449511
H    -1.882877  -2.255994  2.780450
H    0.655216  -2.026495  1.036241
H    -0.739797  -3.028686  0.634371
H    -0.415214  -4.334607  2.800874
H    1.095323  -3.434306  3.084706
H    1.514556  -5.536367  1.999017
H    1.935146  -4.315113  0.955978
H    0.528489  -5.162489  0.718353
N    -0.016028  2.218488  4.495127
C    0.649065  3.134792  5.412672
H    0.129153  2.319717  3.461329
H    1.307215  3.790754  4.830049
H    1.289065  2.595349  6.128796
H    -0.073136  3.797703  5.921011
Cd    -0.995652  1.934009  7.922797
