35
Energy: -172332.005958 eV PBE+vdW (tier 2 basis)
C    0.484047  -1.217263  2.395701
C    0.151818  0.233910  2.343893
O    1.007717  1.148234  2.662414
H    1.039025  -1.441384  3.317426
H    1.120034  -1.462698  1.530878
H    -0.391827  -1.872088  2.368748
N    -1.039853  0.682330  1.954784
C    -2.134389  -0.086367  1.344628
C    -1.676573  -0.617987  -0.051529
O    -0.642587  -0.206665  -0.568187
H    -1.108851  1.699324  1.905904
H    -2.347794  -0.946638  1.996748
C    -3.429964  0.762704  1.255137
C    -3.382864  1.983305  0.316083
C    -4.760852  2.581950  -0.052103
C    -5.468895  3.317911  1.086419
N    -6.738359  3.999395  0.590090
H    -3.699266  1.049098  2.283657
H    -4.225630  0.078166  0.924037
H    -2.907789  1.699623  -0.634500
H    -2.750398  2.783075  0.734828
H    -5.412623  1.784374  -0.443783
H    -4.594949  3.285924  -0.882390
H    -4.847272  4.116962  1.510317
H    -5.785855  2.654444  1.900442
H    -7.219614  4.501888  1.351635
H    -7.411619  3.323377  0.198950
H    -6.536349  4.689511  -0.149486
N    -2.476179  -1.549411  -0.642620
C    -2.161927  -2.159072  -1.922157
H    -3.232209  -1.964988  -0.099564
H    -3.097626  -2.405960  -2.439863
H    -1.540428  -1.473972  -2.508854
H    -1.600980  -3.101156  -1.786041
Cd    2.977899  1.011864  3.475654
