35
Energy: -172331.450984 eV PBE+vdW (tier 2 basis)
C    -3.379459  -1.612483  0.124667
C    -2.448502  -1.449958  1.285295
O    -1.578835  -2.268088  1.583556
H    -3.718085  -0.643383  -0.265345
H    -4.260608  -2.190526  0.442982
H    -2.877736  -2.184769  -0.662847
N    -2.580184  -0.318675  2.088411
C    -1.757611  -0.167936  3.251544
C    -2.413420  -0.833209  4.529070
O    -3.530935  -0.324379  4.885159
H    -3.374610  0.303015  1.939823
H    -0.882636  -0.814728  3.050378
C    -1.374926  1.294984  3.554842
C    -0.516200  1.983337  2.465725
C    0.960911  1.553265  2.419425
C    1.806400  2.194499  1.315229
N    2.174405  3.652487  1.578961
H    -2.295692  1.879416  3.694292
H    -0.849853  1.321760  4.522199
H    -0.594399  3.062593  2.669697
H    -0.979536  1.829363  1.478888
H    1.038501  0.471570  2.228356
H    1.443701  1.712609  3.397819
H    1.300070  2.183989  0.341796
H    2.763609  1.671422  1.206447
H    1.351513  4.267604  1.643083
H    2.764219  4.020267  0.816040
H    2.713027  3.758886  2.451406
N    -1.799201  -1.825963  5.131763
C    -0.515131  -2.476950  4.789413
H    -2.262891  -2.202442  5.961030
H    -0.375650  -3.308291  5.486361
H    0.317643  -1.776025  4.919321
H    -0.545316  -2.872166  3.768411
Cd    -5.016169  -0.699712  6.458405
