35
Energy: -172331.857272 eV PBE+vdW (tier 2 basis)
C    -0.423879  -1.449494  1.535525
C    -0.030478  -0.291711  2.383062
O    0.787121  -0.383979  3.369465
H    0.440262  -2.108218  1.375639
H    -0.817714  -1.159259  0.556532
H    -1.189427  -2.042384  2.062332
N    -0.556408  0.935125  2.209116
C    -1.782235  1.298133  1.484426
C    -1.495099  1.991861  0.102802
O    -2.493075  2.234425  -0.575944
H    -0.203395  1.634280  2.870393
H    -2.303327  0.370594  1.215340
C    -2.714370  2.194938  2.354511
C    -4.186161  1.738598  2.450859
C    -5.132043  1.946723  1.248539
C    -5.503851  3.409444  1.009889
N    -6.648712  3.532247  0.012277
H    -2.633233  3.237423  2.016942
H    -2.317973  2.184209  3.380192
H    -4.616696  2.245796  3.327409
H    -4.206800  0.668584  2.706281
H    -6.048223  1.378684  1.475353
H    -4.708641  1.515799  0.329006
H    -4.678283  3.997583  0.591473
H    -5.854655  3.899602  1.927144
H    -7.496197  3.050028  0.348009
H    -6.407495  3.124257  -0.902757
H    -6.904543  4.518148  -0.148859
N    -0.239074  2.278489  -0.262540
C    0.090308  2.989531  -1.500191
H    0.504249  2.130165  0.414398
H    1.097859  2.695539  -1.813434
H    0.072822  4.078196  -1.344781
H    -0.641961  2.727923  -2.271275
Cd    2.376639  -1.763771  3.895300
