35
Energy: -172332.254390 eV PBE+vdW (tier 2 basis)
C    -0.982835  1.036838  1.970285
C    -0.233952  -0.117009  2.527774
O    1.040839  -0.132148  2.386217
H    -0.309381  1.903999  1.934649
H    -1.881920  1.277287  2.543094
H    -1.260215  0.827642  0.922408
N    -0.820148  -1.147301  3.196374
C    -1.978885  -1.974439  2.790388
C    -1.544909  -2.781645  1.525398
O    -0.307290  -3.054883  1.292057
H    -0.164232  -1.648420  3.797249
H    -2.046332  -2.737249  3.584384
C    -3.343690  -1.254041  2.735675
C    -3.741196  -0.587889  4.071566
C    -5.057583  0.224367  3.994587
C    -6.372585  -0.516380  4.270728
N    -6.776762  -0.482366  5.742858
H    -4.105097  -2.007634  2.479025
H    -3.358966  -0.515578  1.921442
H    -2.939993  0.095584  4.385064
H    -3.793556  -1.353725  4.862889
H    -5.155443  0.669916  2.993810
H    -4.987119  1.092237  4.668294
H    -6.344249  -1.576654  3.990072
H    -7.208394  -0.048874  3.737487
H    -7.665208  -0.985207  5.895019
H    -6.922388  0.485690  6.068447
H    -6.075239  -0.911635  6.362517
N    -2.457366  -3.281459  0.721125
C    -2.181922  -4.141616  -0.442302
H    -3.434738  -3.114796  0.947563
H    -3.078672  -4.168612  -1.066958
H    -1.937008  -5.158005  -0.107642
H    -1.343153  -3.736075  -1.016449
Cd    1.562867  -2.098458  1.684421
