35
Energy: -172331.694886 eV PBE+vdW (tier 2 basis)
C    -0.058342  -0.624925  -0.293797
C    -0.290351  -0.195017  1.121199
O    0.445769  0.597720  1.727251
H    0.956278  -0.353213  -0.597875
H    -0.765135  -0.080888  -0.943559
H    -0.229119  -1.698288  -0.446651
N    -1.408931  -0.718451  1.750076
C    -1.765079  -0.604009  3.143499
C    -2.080377  0.863897  3.604895
O    -3.208136  0.926546  4.214542
H    -1.985077  -1.352000  1.195575
H    -2.746889  -1.088544  3.225090
C    -0.882027  -1.402379  4.188602
C    0.655323  -1.444022  4.148992
C    1.439091  -0.270563  4.770948
C    2.754239  -0.653029  5.455955
N    3.842084  -1.144663  4.504091
H    -1.230638  -2.436396  4.054524
H    -1.234475  -1.099139  5.186455
H    1.003929  -1.656040  3.127604
H    0.887576  -2.357451  4.724982
H    0.845573  0.186564  5.577977
H    1.619189  0.526413  4.035182
H    2.615621  -1.458251  6.188808
H    3.189970  0.208783  5.975183
H    4.082443  -0.437651  3.794027
H    4.708312  -1.355374  5.024493
H    3.574750  -2.007823  4.010557
N    -1.254856  1.850233  3.362339
C    -1.473623  3.255026  3.692458
H    -0.422674  1.560929  2.792341
H    -2.381571  3.646647  3.202634
H    -1.503517  3.412486  4.780523
H    -0.634065  3.837948  3.297636
Cd    -4.458724  2.510851  4.977977
