35
Energy: -172332.899090 eV PBE+vdW (tier 2 basis)
C    0.664602  -0.334130  0.306570
C    0.356049  -0.059106  1.739631
O    1.239329  0.570768  2.418498
H    1.528188  -1.013947  0.250521
H    0.980637  0.601635  -0.176687
H    -0.176164  -0.768891  -0.244700
N    -0.826693  -0.465146  2.233926
C    -1.439352  -0.165010  3.545800
C    -0.930219  -1.160579  4.626652
O    0.186565  -0.956521  5.237204
H    -1.395790  -1.016278  1.594162
H    -1.070038  0.824528  3.862021
C    -2.980283  -0.089837  3.453101
C    -3.632128  1.149638  2.788890
C    -3.704392  1.172741  1.245448
C    -4.956129  1.827087  0.649992
N    -5.053730  3.336633  0.852328
H    -3.345667  -0.109784  4.490032
H    -3.371268  -1.002843  2.970545
H    -3.152950  2.062562  3.175664
H    -4.659060  1.163544  3.185826
H    -3.755245  0.141633  0.860501
H    -2.799397  1.613592  0.799300
H    -5.874313  1.409674  1.082850
H    -4.993514  1.675962  -0.435490
H    -5.914406  3.701099  0.413158
H    -4.264152  3.838672  0.420483
H    -5.092249  3.604425  1.845953
N    -1.636992  -2.222691  4.941159
C    -1.255474  -3.241751  5.933002
H    -2.552798  -2.331137  4.509193
H    -1.669918  -2.975596  6.914651
H    -0.166552  -3.303239  6.001027
H    -1.669963  -4.203345  5.614163
Cd    1.681099  0.320405  4.474040
