35
Energy: -172331.854292 eV PBE+vdW (tier 2 basis)
C    -0.168215  -0.125903  -0.705049
C    0.077666  -0.425060  0.731003
O    1.265754  -0.696265  1.160351
H    -1.205577  0.101267  -0.948720
H    0.138363  -0.987642  -1.313209
H    0.455005  0.742653  -0.982659
N    -0.852210  -0.430035  1.699147
C    -2.317311  -0.606743  1.655829
C    -2.639246  -1.975888  0.974320
O    -2.115866  -2.210586  -0.115555
H    -0.443106  -0.600129  2.620393
H    -2.590954  -0.651210  2.717122
C    -3.117899  0.551178  0.997722
C    -4.615295  0.482348  1.361197
C    -5.530110  1.519751  0.669773
C    -5.465683  2.926244  1.266615
N    -6.554589  3.817699  0.681347
H    -3.009212  0.513269  -0.094393
H    -2.666363  1.492279  1.343760
H    -4.741473  0.557131  2.453139
H    -5.007571  -0.504226  1.076055
H    -6.561451  1.145607  0.765236
H    -5.311480  1.554224  -0.409246
H    -4.517857  3.440851  1.067781
H    -5.637212  2.920258  2.350553
H    -6.521106  4.767654  1.081677
H    -7.495915  3.441434  0.872034
H    -6.468153  3.913839  -0.341440
N    -3.479088  -2.860636  1.561934
C    -4.024808  -2.905395  2.910079
H    -3.596261  -3.711262  1.003507
H    -3.425791  -3.570970  3.552152
H    -5.038783  -3.325936  2.859548
H    -4.080889  -1.912399  3.362308
Cd    3.182671  -0.316387  0.283978
