35
Energy: -172331.890042 eV PBE+vdW (tier 2 basis)
C    -1.012657  0.225428  -0.290862
C    -0.541187  0.260589  1.117744
O    0.278498  1.159123  1.547394
H    -1.577429  -0.676243  -0.541059
H    -0.140266  0.276508  -0.960426
H    -1.624894  1.117447  -0.492100
N    -0.942585  -0.596783  2.068766
C    -2.073230  -1.556503  2.126457
C    -1.697194  -2.807374  1.244529
O    -2.022659  -2.838252  0.063320
H    -0.454966  -0.454757  2.956972
H    -2.095208  -1.869162  3.179972
C    -3.446353  -0.974352  1.748846
C    -4.627647  -1.900972  2.105800
C    -5.962381  -1.303281  1.616512
C    -7.196710  -2.200361  1.711149
N    -7.799357  -2.287247  3.111735
H    -3.471782  -0.770179  0.670097
H    -3.554747  -0.013133  2.273193
H    -4.642595  -2.068841  3.195553
H    -4.484799  -2.883637  1.629983
H    -5.870958  -1.069532  0.544776
H    -6.162569  -0.335484  2.105111
H    -6.992175  -3.233810  1.404168
H    -8.002990  -1.811764  1.077935
H    -8.644184  -2.879561  3.107958
H    -8.084711  -1.359417  3.458297
H    -7.150926  -2.691844  3.800465
N    -1.005544  -3.790645  1.866960
C    -0.666165  -5.046897  1.212309
H    -0.871547  -3.733908  2.874652
H    0.253355  -5.439362  1.663141
H    -0.543769  -4.870360  0.137678
H    -1.460859  -5.798147  1.350416
Cd    1.873457  2.274447  0.609929
