35
Energy: -172331.684461 eV PBE+vdW (tier 2 basis)
C    0.677328  0.642487  0.163923
C    0.491710  0.434711  1.634716
O    1.433678  0.386030  2.440615
H    0.535208  1.715677  -0.050725
H    -0.040730  0.080211  -0.445248
H    1.702624  0.381629  -0.115066
N    -0.812178  0.313469  2.085468
C    -1.252240  -0.064603  3.408472
C    -0.854295  0.959432  4.529655
O    -1.868343  1.277045  5.250279
H    -1.543326  0.375119  1.376825
H    -2.344901  0.039550  3.381217
C    -1.044873  -1.578162  3.834151
C    0.247687  -2.354429  3.523170
C    1.384031  -2.285177  4.555550
C    2.630840  -3.104923  4.210142
N    2.444839  -4.613897  4.351118
H    -1.862842  -2.087322  3.306101
H    -1.299496  -1.641694  4.903026
H    0.629102  -2.095336  2.525250
H    -0.094821  -3.399474  3.427165
H    1.017181  -2.568764  5.555767
H    1.751312  -1.254007  4.652193
H    3.460800  -2.853594  4.880726
H    2.964782  -2.937948  3.178182
H    3.325404  -5.108489  4.138378
H    1.730566  -4.990784  3.712438
H    2.176495  -4.879698  5.310267
N    0.371512  1.402373  4.653405
C    0.831431  2.399135  5.613955
H    1.017658  1.044021  3.904629
H    1.890023  2.605410  5.419428
H    0.750145  2.031084  6.647221
H    0.301342  3.358999  5.483237
Cd    -2.244852  2.743658  6.787678
