35
Energy: -172331.796231 eV PBE+vdW (tier 2 basis)
C    0.157992  -2.311068  1.973435
C    -0.430905  -1.037307  2.474390
O    -0.081540  -0.467595  3.509813
H    -0.046221  -3.114905  2.696422
H    1.250974  -2.198923  1.940823
H    -0.212055  -2.608435  0.985862
N    -1.459288  -0.446706  1.720659
C    -1.990985  0.842572  2.031548
C    -3.018918  0.759714  3.277245
O    -4.254120  0.915590  3.012313
H    -1.880808  -0.987466  0.964969
H    -1.165746  1.417536  2.493827
C    -2.566197  1.573989  0.814051
C    -1.481316  1.998693  -0.202836
C    -2.100991  2.733972  -1.408358
C    -1.175766  3.016045  -2.593466
N    -0.234143  4.200682  -2.388703
H    -3.103289  2.462848  1.174912
H    -3.319517  0.941515  0.319058
H    -0.936803  1.111483  -0.561615
H    -0.739591  2.633704  0.309401
H    -2.595719  3.665606  -1.088253
H    -2.907288  2.112979  -1.828407
H    -0.535308  2.160336  -2.841930
H    -1.763153  3.269370  -3.484015
H    0.334571  4.361694  -3.234742
H    0.422310  4.060235  -1.608758
H    -0.754091  5.072141  -2.207402
N    -2.452890  0.558496  4.441111
C    -3.122572  0.412060  5.734539
H    -1.430391  0.384284  4.395102
H    -2.352545  0.229085  6.492442
H    -3.796660  -0.459327  5.748215
H    -3.644380  1.337339  6.018281
Cd    -6.065591  0.764521  4.209160
