35
Energy: -172331.910522 eV PBE+vdW (tier 2 basis)
C    0.764191  -1.070305  0.638116
C    0.294423  0.046613  1.511873
O    1.042724  1.062711  1.806557
H    1.636151  -1.556570  1.102438
H    1.059534  -0.673009  -0.345915
H    0.000930  -1.838547  0.473426
N    -0.925454  0.000537  2.023176
C    -1.514904  0.926820  3.003312
C    -2.216315  0.000521  4.028856
O    -2.694856  -1.059878  3.614472
H    -1.471989  -0.859873  1.897989
H    -0.697438  1.491347  3.471220
C    -2.525660  1.929689  2.372788
C    -3.737715  1.331865  1.634401
C    -4.577245  2.400163  0.890784
C    -5.681660  3.110087  1.680239
N    -7.017769  2.373010  1.612868
H    -1.946208  2.554098  1.675225
H    -2.847365  2.604508  3.181292
H    -4.365526  0.749147  2.328114
H    -3.388003  0.609920  0.883160
H    -5.014626  1.954630  -0.016261
H    -3.910864  3.187702  0.510159
H    -5.886321  4.105961  1.270556
H    -5.451282  3.224247  2.746802
H    -6.961371  1.412234  1.978577
H    -7.359212  2.310898  0.641627
H    -7.743929  2.865713  2.155298
N    -2.300341  0.409160  5.313914
C    -2.901999  -0.393276  6.367585
H    -1.794857  1.249663  5.590701
H    -2.130441  -0.973948  6.902659
H    -3.617415  -1.096211  5.928551
H    -3.381935  0.272569  7.095915
Cd    3.026605  1.431082  1.057550
