35
Energy: -172332.243943 eV PBE+vdW (tier 2 basis)
C    0.190516  -0.081643  0.240615
C    0.152081  0.010628  1.721274
O    1.274969  0.136031  2.333579
H    0.505593  -1.091126  -0.067847
H    0.984206  0.595820  -0.109868
H    -0.756430  0.186544  -0.230276
N    -0.988218  0.039505  2.458648
C    -2.141086  -0.882517  2.472392
C    -1.700684  -2.118693  3.311718
O    -0.454768  -2.431665  3.432884
H    -0.831543  0.463644  3.376300
H    -2.909716  -0.356158  3.059423
C    -2.783689  -1.249809  1.111626
C    -3.566577  -0.069056  0.497835
C    -4.588043  -0.417759  -0.610378
C    -3.992493  -0.688746  -1.992808
N    -5.089392  -0.814056  -3.043678
H    -3.482243  -2.075226  1.310793
H    -2.030699  -1.666867  0.429217
H    -2.880299  0.712844  0.138091
H    -4.146163  0.409574  1.301174
H    -5.270686  0.443005  -0.686724
H    -5.204872  -1.273669  -0.292788
H    -3.419891  -1.623005  -2.044827
H    -3.351284  0.135011  -2.331695
H    -5.652486  0.048003  -3.110701
H    -5.740505  -1.585934  -2.834726
H    -4.696932  -0.992825  -3.980930
N    -2.592433  -2.886116  3.906357
C    -4.056120  -2.809797  3.912748
H    -2.187536  -3.668165  4.429597
H    -4.404154  -3.035774  4.927475
H    -4.477975  -3.557248  3.227474
H    -4.403363  -1.810067  3.637116
Cd    1.354733  -1.359975  3.872348
