35
Energy: -172331.107460 eV PBE+vdW (tier 2 basis)
C    -1.416856  -0.406286  -0.875208
C    -0.905655  -0.399930  0.547608
O    0.290424  -0.398218  0.811588
H    -2.311080  0.225169  -0.974103
H    -1.680704  -1.436017  -1.160065
H    -0.626006  -0.050832  -1.541308
N    -1.890225  -0.425644  1.534139
C    -1.788955  -0.785892  2.937210
C    -2.033052  0.460603  3.888127
O    -2.824059  0.154675  4.849444
H    -2.830430  -0.528498  1.152637
H    -2.687628  -1.382032  3.138140
C    -0.615772  -1.697495  3.418962
C    0.794661  -1.146183  3.668623
C    1.789664  -2.305844  3.906851
C    3.222040  -1.804952  4.091708
N    4.201508  -2.956674  4.278057
H    -0.575352  -2.499739  2.664942
H    -0.989371  -2.169620  4.339666
H    0.798419  -0.467547  4.536096
H    1.133542  -0.573782  2.793688
H    1.750205  -2.989769  3.043555
H    1.479032  -2.887171  4.790106
H    3.332457  -1.169569  4.979235
H    3.579881  -1.245750  3.218141
H    5.165641  -2.610205  4.399793
H    4.208419  -3.591065  3.465188
H    3.976525  -3.525492  5.107972
N    -1.515760  1.654105  3.703062
C    -0.604551  2.149096  2.660591
H    -1.821205  2.367881  4.367776
H    0.022135  2.927899  3.108194
H    -1.179390  2.588852  1.835861
H    0.039838  1.349341  2.291099
Cd    -3.963736  1.150341  6.432340
