35
Energy: -172332.878061 eV PBE+vdW (tier 2 basis)
C    -0.191861  -0.363979  0.105920
C    0.168544  -0.167949  1.540863
O    1.416183  -0.057140  1.809392
H    -1.259131  -0.549115  -0.057155
H    0.390068  -1.208202  -0.292305
H    0.119948  0.521923  -0.467169
N    -0.825642  -0.131106  2.445413
C    -0.846591  -0.174025  3.934808
C    -0.447033  1.170445  4.588283
O    0.772156  1.566348  4.707053
H    -1.749413  -0.179132  2.021045
H    -1.913951  -0.305884  4.160899
C    -0.090824  -1.381203  4.547960
C    -0.696069  -2.763798  4.201879
C    -1.916741  -3.197452  5.051275
C    -1.623080  -4.018773  6.312783
N    -1.447981  -5.508599  6.029335
H    -0.063892  -1.230718  5.638386
H    0.959063  -1.375267  4.219939
H    0.113154  -3.504367  4.289682
H    -0.972506  -2.784009  3.138320
H    -2.633331  -3.748086  4.422642
H    -2.482367  -2.317582  5.393720
H    -2.455787  -3.960672  7.023492
H    -0.710440  -3.699617  6.832074
H    -0.673915  -5.707300  5.379549
H    -2.303278  -5.918782  5.623634
H    -1.251731  -6.027968  6.899708
N    -1.408858  1.909170  5.103717
C    -1.237983  3.200200  5.784400
H    -2.361952  1.552280  5.053293
H    -1.370096  3.063604  6.866038
H    -2.004181  3.891770  5.415356
H    -0.240286  3.595740  5.583736
Cd    2.307804  1.025242  3.376038
