35
Energy: -172331.486935 eV PBE+vdW (tier 2 basis)
C    0.183924  1.470543  -0.906647
C    0.137157  0.917400  0.470092
O    1.069200  1.166189  1.332025
H    1.059519  1.042720  -1.422954
H    0.329035  2.558213  -0.860347
H    -0.695125  1.231164  -1.507566
N    -0.838247  0.139425  0.956437
C    -2.198345  -0.252526  0.504472
C    -2.127595  -1.014400  -0.862157
O    -2.122663  -0.382504  -1.919229
H    -0.617038  -0.192643  1.899258
H    -2.497170  -0.984638  1.263690
C    -3.318052  0.820075  0.533832
C    -3.247648  2.046240  -0.387923
C    -4.607982  2.739649  -0.637483
C    -5.222069  3.434359  0.578374
N    -6.499094  4.172307  0.193716
H    -3.410525  1.125842  1.587984
H    -4.234984  0.248738  0.312901
H    -2.892279  1.737365  -1.380158
H    -2.522606  2.779792  -0.002282
H    -5.317383  1.998954  -1.040693
H    -4.450753  3.484844  -1.432694
H    -4.553768  4.193182  1.004841
H    -5.510725  2.737795  1.375051
H    -6.322420  4.891930  -0.523632
H    -7.212260  3.532802  -0.188009
H    -6.920362  4.648621  1.005810
N    -2.109072  -2.369132  -0.844633
C    -2.295831  -3.302754  0.259476
H    -2.160807  -2.770157  -1.785111
H    -3.362348  -3.438659  0.500677
H    -1.750116  -2.987678  1.155020
H    -1.904351  -4.276971  -0.057465
Cd    3.189068  1.520649  1.148094
