35
Energy: -172331.702696 eV PBE+vdW (tier 2 basis)
C    0.067580  -0.502974  0.547602
C    -0.442172  -0.512612  1.943595
O    0.326720  -0.319572  2.962239
H    0.966716  -1.134487  0.487444
H    0.373442  0.520202  0.279986
H    -0.655440  -0.867980  -0.186539
N    -1.732279  -0.678225  2.268713
C    -2.967036  -0.578696  1.448122
C    -3.083651  -1.890762  0.591215
O    -2.768545  -1.852127  -0.595957
H    -1.883727  -0.712887  3.280232
H    -3.776905  -0.571708  2.189640
C    -3.057110  0.708478  0.604310
C    -4.464653  1.148743  0.135585
C    -5.067848  0.387405  -1.064443
C    -5.987910  1.204204  -1.971339
N    -7.318136  1.602740  -1.334467
H    -2.397603  0.627757  -0.269715
H    -2.664601  1.515176  1.240108
H    -4.344396  2.207033  -0.145128
H    -5.153565  1.147438  0.996197
H    -5.577615  -0.537059  -0.750004
H    -4.259931  0.053140  -1.732197
H    -6.255018  0.634491  -2.869369
H    -5.518735  2.143842  -2.290025
H    -7.870724  0.779677  -1.054215
H    -7.893951  2.137206  -2.003422
H    -7.195677  2.197371  -0.503139
N    -3.507381  -3.032816  1.186419
C    -4.131190  -3.245673  2.485818
H    -3.572398  -3.814908  0.529168
H    -3.833043  -4.238178  2.849962
H    -5.229199  -3.238985  2.407969
H    -3.814553  -2.500112  3.219915
Cd    2.420405  -0.684931  3.323480
