35
Energy: -172331.840812 eV PBE+vdW (tier 2 basis)
C    2.116805  -0.045354  1.458656
C    0.844071  -0.768580  1.779837
O    0.778553  -1.996360  1.917403
H    2.615982  0.196016  2.412329
H    1.963602  0.888742  0.906786
H    2.784215  -0.714787  0.905829
N    -0.296399  0.006405  1.936141
C    -1.647944  -0.491864  2.067716
C    -1.888418  -1.209903  3.449107
O    -2.871229  -0.710403  4.102382
H    -0.187269  1.013952  1.831914
H    -2.295988  0.393510  2.104126
C    -2.172905  -1.409182  0.912307
C    -2.259889  -0.673452  -0.451118
C    -1.183032  -1.064058  -1.489484
C    -1.482163  -2.285648  -2.364389
N    -2.388856  -1.957661  -3.548008
H    -3.170874  -1.748276  1.221271
H    -1.538226  -2.303774  0.851025
H    -2.208342  0.413322  -0.294554
H    -3.269337  -0.837075  -0.858317
H    -0.230269  -1.281142  -0.985467
H    -0.963750  -0.202190  -2.139056
H    -1.978248  -3.097338  -1.817420
H    -0.564193  -2.687004  -2.809422
H    -2.573536  -2.798833  -4.116449
H    -1.953833  -1.262482  -4.173550
H    -3.302954  -1.581010  -3.259670
N    -1.129987  -2.218768  3.802256
C    -1.226904  -2.977850  5.043900
H    -0.355289  -2.421346  3.126832
H    -0.436932  -3.738371  5.046018
H    -2.185732  -3.516266  5.113400
H    -1.045992  -2.338954  5.924865
Cd    -3.716177  -1.135430  6.043169
