35
Energy: -172331.590580 eV PBE+vdW (tier 2 basis)
C    0.699060  0.669785  0.292918
C    0.101049  -0.300848  1.254324
O    0.522296  -1.508784  1.381477
H    1.755385  0.839964  0.559865
H    0.200161  1.645057  0.290713
H    0.665663  0.256129  -0.725200
N    -0.944794  0.074072  2.002334
C    -1.620078  -0.743774  3.007615
C    -2.623349  -1.783063  2.382843
O    -2.466566  -2.951697  2.741852
H    -1.330184  0.995235  1.797959
H    -0.855671  -1.391167  3.453224
C    -2.270043  0.125758  4.108750
C    -2.812105  -0.684718  5.304428
C    -3.277056  0.250946  6.439694
C    -3.569209  -0.400251  7.791593
N    -4.906945  -1.133478  7.860036
H    -3.068091  0.756345  3.688182
H    -1.486420  0.811553  4.467955
H    -2.017425  -1.347485  5.681134
H    -3.632466  -1.340129  4.970968
H    -4.138155  0.860774  6.120787
H    -2.477654  0.977398  6.652815
H    -3.620174  0.361037  8.579024
H    -2.806828  -1.135663  8.077990
H    -4.963641  -1.921509  7.200804
H    -5.696177  -0.500648  7.662391
H    -5.061084  -1.519398  8.804536
N    -3.611262  -1.417892  1.539458
C    -3.902437  -0.127007  0.925921
H    -4.163156  -2.212096  1.209081
H    -3.787058  0.697997  1.637176
H    -4.947618  -0.136629  0.597100
H    -3.278140  0.051530  0.037263
Cd    2.432900  -2.364967  0.836338
