35
Energy: -172332.098137 eV PBE+vdW (tier 2 basis)
C    -0.197623  0.807733  0.645313
C    0.198544  0.067981  1.875452
O    1.355903  0.241657  2.433277
H    -1.140249  0.469860  0.207243
H    0.593372  0.709891  -0.110528
H    -0.305311  1.877487  0.885944
N    -0.570482  -0.834418  2.471951
C    -1.869440  -1.404697  2.093658
C    -2.612513  -1.544517  3.466091
O    -1.987925  -2.015127  4.413247
H    -0.199025  -1.239075  3.342327
H    -2.395631  -0.712012  1.424856
C    -1.708062  -2.805951  1.438395
C    -3.048804  -3.482122  1.094778
C    -2.971138  -4.978607  0.715400
C    -2.402259  -5.267388  -0.673546
N    -2.547599  -6.744502  -1.020119
H    -1.137302  -3.433938  2.139931
H    -1.086742  -2.672681  0.539731
H    -3.564659  -2.923671  0.297613
H    -3.711037  -3.437819  1.971212
H    -3.998893  -5.371576  0.762206
H    -2.393916  -5.523101  1.479620
H    -1.331859  -5.044063  -0.759270
H    -2.937564  -4.721454  -1.460859
H    -2.167672  -6.954059  -1.955661
H    -3.536408  -7.038059  -1.021017
H    -2.052831  -7.348509  -0.346700
N    -3.905907  -1.150475  3.531827
C    -4.683230  -1.187670  4.761307
H    -4.325553  -0.702850  2.719063
H    -5.723946  -1.438301  4.518644
H    -4.682583  -0.199088  5.251979
H    -4.243210  -1.917950  5.447848
Cd    2.729470  1.869449  2.507367
