35
Energy: -172331.754354 eV PBE+vdW (tier 2 basis)
C    0.914807  -0.034965  2.635018
C    -0.232697  -0.968895  2.477220
O    -0.112551  -2.248326  2.515708
H    0.619851  0.970015  2.953364
H    1.458983  0.041056  1.679407
H    1.622840  -0.434675  3.373776
N    -1.478978  -0.537887  2.217124
C    -1.874811  0.789109  1.747810
C    -2.532744  1.670778  2.888509
O    -2.115907  2.832109  2.887028
H    -2.177354  -1.284572  2.167398
H    -0.963226  1.340658  1.500193
C    -2.773257  0.719596  0.485560
C    -3.027033  2.052157  -0.259824
C    -4.213402  2.901324  0.241126
C    -4.801701  3.880033  -0.776589
N    -3.916521  5.089647  -1.068412
H    -3.731159  0.231601  0.720630
H    -2.245399  0.046888  -0.207732
H    -3.223411  1.765550  -1.304719
H    -2.095001  2.639760  -0.278081
H    -3.968654  3.435343  1.171668
H    -5.055188  2.236281  0.489703
H    -5.747873  4.295944  -0.410689
H    -4.990670  3.405655  -1.748079
H    -4.384278  5.728946  -1.729706
H    -3.015605  4.828554  -1.492015
H    -3.716573  5.632225  -0.215325
N    -3.475661  1.208067  3.712833
C    -4.090089  -0.118192  3.795890
H    -3.787657  1.897280  4.398190
H    -5.032455  -0.014830  4.343965
H    -3.459094  -0.826326  4.348869
H    -4.341597  -0.513240  2.804395
Cd    1.292068  -3.567063  3.510499
