35
Energy: -172331.642665 eV PBE+vdW (tier 2 basis)
C    0.237770  0.078523  0.693829
C    -0.138475  -0.173985  2.108991
O    0.479644  0.387672  3.094000
H    0.063264  1.137962  0.454088
H    -0.290422  -0.556994  -0.021342
H    1.316724  -0.107021  0.574592
N    -1.152787  -0.962246  2.492350
C    -2.282813  -1.564435  1.744098
C    -1.719756  -2.757114  0.883336
O    -1.368066  -2.534180  -0.272212
H    -1.209025  -1.062678  3.508981
H    -2.930204  -1.973751  2.529741
C    -3.109058  -0.590211  0.882237
C    -4.400297  -1.235607  0.334565
C    -5.128844  -0.359482  -0.713107
C    -6.165712  0.645319  -0.203416
N    -7.560926  0.035668  -0.078890
H    -2.502923  -0.247003  0.033734
H    -3.341954  0.287196  1.504364
H    -5.071666  -1.498993  1.169074
H    -4.144460  -2.183546  -0.158670
H    -5.598907  -1.008743  -1.468045
H    -4.386746  0.217178  -1.283566
H    -6.284018  1.482339  -0.901186
H    -5.925928  1.057408  0.784737
H    -7.904507  -0.295842  -0.993152
H    -8.242486  0.729265  0.265434
H    -7.588415  -0.765667  0.566753
N    -1.632675  -3.990552  1.439015
C    -2.168663  -4.499318  2.693845
H    -1.311431  -4.696989  0.770856
H    -3.196197  -4.876472  2.570224
H    -1.544748  -5.346078  3.008583
H    -2.146390  -3.742816  3.483855
Cd    2.509886  1.068910  3.355324
