35
Energy: -172331.610391 eV PBE+vdW (tier 2 basis)
C    -2.156036  -1.213476  -0.671692
C    -1.768113  -1.057181  0.765593
O    -0.872760  -1.702374  1.308785
H    -1.553845  -0.500969  -1.259782
H    -3.216746  -1.002733  -0.852139
H    -1.902658  -2.221306  -1.017049
N    -2.443642  -0.107415  1.531830
C    -2.124080  0.062958  2.916885
C    -2.938782  -0.945301  3.831217
O    -4.206590  -0.787773  3.802649
H    -3.281229  0.329363  1.147807
H    -1.081184  -0.293002  3.009360
C    -2.328061  1.504735  3.422244
C    -1.458021  2.581355  2.731529
C    -0.016371  2.744201  3.257540
C    0.637229  3.966746  2.605911
N    2.027584  4.256717  3.154939
H    -2.161555  1.518752  4.510255
H    -3.383621  1.776049  3.277426
H    -1.987820  3.534549  2.874128
H    -1.443614  2.408332  1.644655
H    0.586137  1.844844  3.051580
H    -0.041537  2.879192  4.351094
H    0.760771  3.843031  1.522786
H    0.052634  4.878815  2.781026
H    2.009955  4.449259  4.167545
H    2.437243  5.086430  2.697830
H    2.679928  3.474153  3.000087
N    -2.297453  -1.846288  4.540289
C    -0.843831  -2.102890  4.634465
H    -2.878775  -2.456206  5.118729
H    -0.709569  -2.987230  5.263911
H    -0.335625  -1.258452  5.114412
H    -0.425990  -2.306758  3.642920
Cd    -5.952163  -1.759345  4.711612
