35
Energy: -172332.550126 eV PBE+vdW (tier 2 basis)
C    -1.180049  0.229347  -1.806891
C    -1.104276  0.938147  -0.508497
O    -0.978584  2.215577  -0.503656
H    -1.175836  -0.859762  -1.706351
H    -0.297708  0.533412  -2.396742
H    -2.048784  0.571033  -2.388692
N    -1.119223  0.281074  0.682564
C    -2.114774  -0.709628  1.107206
C    -3.364726  0.088250  1.581401
O    -3.276829  1.333574  1.920926
H    -0.748490  0.833492  1.459001
H    -2.398496  -1.305070  0.227320
C    -1.553812  -1.647598  2.206582
C    -0.444578  -2.577237  1.674703
C    -0.036114  -3.751386  2.595417
C    0.852978  -3.370812  3.780477
N    1.365186  -4.613528  4.498944
H    -2.387500  -2.250050  2.594434
H    -1.207318  -1.032953  3.053228
H    0.447315  -1.992146  1.403598
H    -0.796697  -3.035054  0.738058
H    0.510020  -4.469291  1.963714
H    -0.936108  -4.276512  2.953168
H    1.748050  -2.821147  3.462430
H    0.332168  -2.778419  4.542730
H    1.970158  -4.366004  5.297121
H    1.922388  -5.213722  3.871474
H    0.596162  -5.192610  4.868547
N    -4.540559  -0.494200  1.692546
C    -4.929722  -1.888515  1.459423
H    -5.286124  0.124519  2.025900
H    -4.190377  -2.411457  0.846996
H    -5.890669  -1.890947  0.931518
H    -5.058332  -2.408619  2.417993
Cd    -2.307086  3.007834  0.992423
