35
Energy: -172331.502227 eV PBE+vdW (tier 2 basis)
C    0.626862  1.002659  0.181396
C    0.243467  0.229271  1.406599
O    0.975077  -0.550969  2.001554
H    0.349476  2.062848  0.254478
H    0.092044  0.571691  -0.680928
H    1.702129  0.909354  0.006653
N    -1.060236  0.432840  1.898962
C    -1.514731  -0.272235  3.057500
C    -2.937853  -0.878393  2.818043
O    -2.915046  -2.152941  2.960111
H    -1.571638  1.236773  1.538453
H    -0.842623  -1.142805  3.137916
C    -1.468296  0.481625  4.431564
C    -0.052087  0.817368  4.944471
C    0.773607  -0.379106  5.456975
C    1.873471  -0.048862  6.467900
N    3.085671  0.661486  5.870356
H    -1.988437  -0.147460  5.169761
H    -2.043206  1.413610  4.352536
H    -0.220472  1.522358  5.775594
H    0.497396  1.385296  4.177686
H    1.193829  -0.964872  4.625025
H    0.110274  -1.068295  6.003054
H    2.270038  -0.966506  6.918213
H    1.514545  0.600238  7.276872
H    3.810008  0.807723  6.590787
H    2.853409  1.588660  5.488878
H    3.518214  0.109068  5.115481
N    -4.010514  -0.175784  2.527442
C    -4.174786  1.272678  2.316924
H    -4.868697  -0.712991  2.389581
H    -4.237811  1.489174  1.242499
H    -3.358469  1.833782  2.776795
H    -5.109625  1.586213  2.795141
Cd    -4.315917  -3.841429  2.772660
