35
Energy: -172331.140205 eV PBE+vdW (tier 2 basis)
C    0.777511  -1.311235  1.885946
C    0.073636  -0.590827  2.987667
O    0.394835  0.422932  3.530991
H    1.281343  -0.581280  1.239725
H    0.130738  -1.964086  1.288170
H    1.592152  -1.917226  2.324340
N    -1.187757  -1.262852  3.579336
C    -2.473820  -1.164678  2.779722
C    -2.844192  -2.533664  2.135450
O    -2.058620  -3.545860  2.203086
H    -1.320933  -0.765508  4.469331
H    -3.260534  -0.969618  3.526415
C    -2.444053  0.014004  1.758970
C    -2.628884  1.417685  2.379129
C    -2.456642  2.518681  1.309492
C    -2.344564  3.963542  1.806651
N    -3.678640  4.639265  2.113669
H    -3.229216  -0.160267  1.012961
H    -1.507381  -0.028214  1.183448
H    -1.891979  1.584707  3.178929
H    -3.624120  1.470831  2.849922
H    -3.238483  2.444236  0.536179
H    -1.511770  2.341456  0.773014
H    -1.881303  4.591638  1.036572
H    -1.742528  4.050370  2.719917
H    -3.527060  5.617574  2.407039
H    -4.201069  4.178658  2.871177
H    -4.289826  4.669628  1.283804
N    -3.996700  -2.700456  1.516457
C    -5.144076  -1.801685  1.347824
H    -4.113021  -3.639248  1.123499
H    -5.147039  -1.362490  0.341646
H    -5.151228  -1.017506  2.110207
H    -6.053743  -2.402721  1.463636
Cd    -0.756431  -3.516688  3.899217
