35
Energy: -172333.095885 eV PBE+vdW (tier 2 basis)
C    0.863145  2.797789  0.962794
C    0.591553  1.836177  2.071741
O    1.394896  0.843391  2.180145
H    0.082072  3.555658  0.838449
H    0.981132  2.235376  0.025391
H    1.828165  3.293327  1.147901
N    -0.466855  2.067125  2.866236
C    -1.148642  1.252447  3.910855
C    -0.373269  1.191019  5.248149
O    0.638736  0.420069  5.450031
H    -0.947928  2.936636  2.646243
H    -2.054089  1.837000  4.124994
C    -1.620166  -0.144362  3.432262
C    -2.820832  -0.101588  2.461309
C    -3.221697  -1.514901  1.990426
C    -4.314467  -1.604287  0.920213
N    -5.737987  -1.515417  1.464429
H    -1.891570  -0.721796  4.329358
H    -0.793092  -0.691062  2.952810
H    -2.570312  0.512727  1.582481
H    -3.663021  0.399195  2.967021
H    -3.485511  -2.153295  2.849663
H    -2.344436  -1.999633  1.535372
H    -4.267734  -2.572412  0.407968
H    -4.229835  -0.816341  0.161296
H    -5.936527  -0.620214  1.931558
H    -5.934699  -2.270560  2.138433
H    -6.424389  -1.612754  0.699365
N    -0.827728  1.917663  6.248698
C    -0.260893  1.976489  7.602895
H    -1.668846  2.471203  6.091567
H    0.741033  1.542650  7.604993
H    -0.906449  1.417101  8.293042
H    -0.223941  3.025328  7.918904
Cd    1.956183  -0.180745  3.929006
