35
Energy: -172330.927079 eV PBE+vdW (tier 2 basis)
C    -0.974137  -0.121351  -0.669934
C    -0.825640  0.233294  0.793555
O    -0.021306  1.066841  1.183679
H    -0.334151  -0.989777  -0.888826
H    -0.630325  0.721413  -1.276665
H    -2.014767  -0.371389  -0.915985
N    -1.652189  -0.481941  1.667035
C    -1.512890  -0.652417  3.105222
C    -2.932052  -0.491379  3.816188
O    -3.122596  -1.414884  4.681315
H    -2.121768  -1.260497  1.203568
H    -1.296748  -1.713671  3.285385
C    -0.395878  0.138732  3.833871
C    -0.538107  1.654709  4.053671
C    0.802920  2.409560  4.212112
C    1.582124  2.102713  5.490858
N    2.824244  2.980343  5.590336
H    0.505538  -0.066612  3.231162
H    -0.244514  -0.379073  4.791744
H    -1.186299  1.858920  4.920081
H    -1.014096  2.116948  3.181369
H    0.572492  3.485934  4.185849
H    1.428396  2.201563  3.329603
H    1.944673  1.068493  5.539915
H    0.995929  2.309957  6.395175
H    3.356597  2.786965  6.452355
H    2.582685  3.983042  5.600611
H    3.465152  2.831063  4.796419
N    -3.804628  0.455381  3.545365
C    -3.762503  1.600260  2.623145
H    -4.672373  0.398871  4.084367
H    -4.666208  1.581770  2.002749
H    -2.883963  1.549424  1.982395
H    -3.745882  2.529573  3.205447
Cd    -4.748750  -2.224082  5.914778
