35
Energy: -172331.577819 eV PBE+vdW (tier 2 basis)
C    1.064742  0.314610  0.436119
C    0.616357  -0.059116  1.809104
O    1.396553  -0.599839  2.678013
H    1.457362  -0.572491  -0.082065
H    1.873424  1.060919  0.508083
H    0.269453  0.750852  -0.178326
N    -0.659247  0.139152  2.158663
C    -1.263086  -0.155387  3.460690
C    -1.496885  -1.689652  3.662313
O    -0.968429  -2.195784  4.653375
H    -1.273900  0.484086  1.421844
H    -0.504874  0.070359  4.220049
C    -2.523276  0.708530  3.681547
C    -3.302398  0.473293  4.994031
C    -2.554817  0.864494  6.285904
C    -3.432529  1.294196  7.462533
N    -4.235882  0.162530  8.099546
H    -3.222048  0.566513  2.843991
H    -2.202510  1.761022  3.637072
H    -3.645981  -0.572881  5.042595
H    -4.212585  1.085500  4.901081
H    -1.928192  1.749289  6.090341
H    -1.858482  0.072091  6.603406
H    -4.168262  2.054515  7.170597
H    -2.820010  1.706264  8.273256
H    -4.779666  0.513900  8.903222
H    -4.909100  -0.261145  7.446365
H    -3.625864  -0.588387  8.454270
N    -2.235277  -2.439486  2.805013
C    -3.179503  -2.039859  1.770217
H    -2.290761  -3.417408  3.101283
H    -4.171693  -1.807990  2.188471
H    -3.303105  -2.885811  1.082525
H    -2.820224  -1.181501  1.195743
Cd    3.559265  -0.661637  2.682121
