35
Energy: -172332.967988 eV PBE+vdW (tier 2 basis)
C    0.633487  -2.418547  -1.147504
C    0.652150  -2.091703  0.306977
O    1.768139  -1.712091  0.808520
H    -0.367558  -2.643844  -1.530886
H    1.300502  -3.273443  -1.333463
H    1.058548  -1.571676  -1.706280
N    -0.491456  -2.192256  1.006204
C    -0.797383  -1.727713  2.377320
C    -0.388581  -2.800086  3.425577
O    0.825719  -2.876385  3.852357
H    -1.282417  -2.567144  0.484181
H    -0.156335  -0.854826  2.583068
C    -2.280838  -1.300140  2.470382
C    -2.725964  -0.028592  1.707706
C    -2.310620  1.314197  2.357850
C    -3.368282  2.421965  2.357238
N    -3.660327  3.030908  0.988329
H    -2.521234  -1.164322  3.535449
H    -2.907567  -2.136090  2.115204
H    -3.824543  -0.091038  1.675786
H    -2.396785  -0.075576  0.658509
H    -1.369185  1.697209  1.934528
H    -2.105306  1.158215  3.428721
H    -3.046184  3.261669  2.984743
H    -4.334168  2.064897  2.736982
H    -4.036288  2.345537  0.318160
H    -2.821120  3.456191  0.567599
H    -4.364595  3.781364  1.072784
N    -1.281766  -3.638285  3.901063
C    -1.023831  -4.709858  4.876146
H    -2.250402  -3.515964  3.610628
H    0.032833  -4.985633  4.852750
H    -1.647801  -5.571039  4.614657
H    -1.290914  -4.362748  5.883354
Cd    2.459072  -2.102153  2.767362
