35
Energy: -172332.010887 eV PBE+vdW (tier 2 basis)
C    0.028708  0.711272  0.270843
C    0.064337  0.126269  1.639959
O    1.064452  0.297396  2.440247
H    -0.715970  0.249680  -0.384531
H    1.010035  0.603208  -0.211408
H    -0.204802  1.784358  0.354232
N    -0.942332  -0.589339  2.136434
C    -2.278583  -0.795930  1.558823
C    -3.036308  0.565686  1.474349
O    -2.653557  1.533729  2.123561
H    -0.809942  -0.884186  3.104736
H    -2.147925  -1.198589  0.543132
C    -3.067478  -1.846009  2.388288
C    -3.524574  -1.394388  3.788013
C    -4.086449  -2.515807  4.692899
C    -5.473269  -3.021752  4.292312
N    -6.018565  -3.999621  5.325763
H    -2.431089  -2.743250  2.455152
H    -3.930663  -2.142721  1.775214
H    -4.265060  -0.584098  3.703586
H    -2.681950  -0.951883  4.341329
H    -4.139987  -2.109206  5.714683
H    -3.376525  -3.357782  4.726625
H    -5.478324  -3.563960  3.338894
H    -6.206914  -2.207561  4.235243
H    -6.956052  -4.341202  5.064128
H    -6.103508  -3.562451  6.256095
H    -5.412219  -4.826686  5.432246
N    -4.127502  0.602840  0.661140
C    -4.917505  1.805666  0.459103
H    -4.299073  -0.181940  0.033735
H    -5.955698  1.520181  0.248711
H    -4.548899  2.382382  -0.407372
H    -4.843730  2.442051  1.347785
Cd    3.009500  1.120609  2.132419
