35
Energy: -172332.092970 eV PBE+vdW (tier 2 basis)
C    -0.046619  -1.667060  2.237692
C    0.474708  -0.301870  1.952033
O    1.715348  0.013282  2.159239
H    0.219540  -1.951310  3.265173
H    0.428760  -2.387055  1.552530
H    -1.129205  -1.763416  2.121750
N    -0.280044  0.693902  1.502985
C    -1.731870  0.778321  1.299440
C    -1.876667  1.750556  0.084690
O    -1.203564  2.779065  0.082596
H    0.202604  1.584271  1.319759
H    -2.126305  -0.216833  1.056587
C    -2.447508  1.362067  2.548376
C    -3.969255  1.546206  2.392695
C    -4.687078  1.848134  3.729006
C    -4.655752  3.292106  4.244225
N    -5.852980  4.113111  3.769865
H    -1.954972  2.312508  2.804326
H    -2.250609  0.664427  3.377506
H    -4.407482  0.619542  1.992405
H    -4.185413  2.327662  1.645881
H    -4.252316  1.221222  4.520795
H    -5.733061  1.510103  3.662130
H    -3.764144  3.849428  3.931335
H    -4.707573  3.324179  5.338510
H    -5.808875  5.078715  4.130528
H    -6.739481  3.706884  4.105849
H    -5.913045  4.173377  2.744063
N    -2.747575  1.409248  -0.892356
C    -2.916376  2.190275  -2.109458
H    -3.199572  0.497804  -0.849534
H    -3.962040  2.123309  -2.434866
H    -2.285222  1.789805  -2.920800
H    -2.619331  3.226783  -1.919743
Cd    3.521647  -1.113204  2.216053
