35
Energy: -172332.945655 eV PBE+vdW (tier 2 basis)
C    -0.862096  0.959270  0.143931
C    -0.760957  0.375670  1.513801
O    0.088326  -0.571168  1.673928
H    0.099622  1.423430  -0.120745
H    -1.665914  1.696030  0.039208
H    -1.018357  0.143646  -0.577359
N    -1.562713  0.866358  2.473530
C    -1.900984  0.406141  3.850463
C    -0.792955  0.706050  4.887207
O    0.277911  0.000721  5.009032
H    -2.129852  1.649378  2.155352
H    -2.743273  1.056960  4.123429
C    -2.421162  -1.051824  3.934072
C    -3.759295  -1.272451  3.196154
C    -4.253070  -2.740044  3.221455
C    -5.111775  -3.183449  4.413882
N    -6.608902  -3.014960  4.164644
H    -2.521234  -1.293460  5.003775
H    -1.677026  -1.756492  3.530823
H    -3.642187  -0.978279  2.143872
H    -4.522836  -0.594424  3.612549
H    -3.387944  -3.417959  3.188688
H    -4.794840  -2.954728  2.287500
H    -4.894691  -2.631636  5.337001
H    -4.979438  -4.251506  4.621304
H    -6.921529  -3.584852  3.363479
H    -6.877415  -2.040113  3.969875
H    -7.157511  -3.323770  4.982627
N    -1.000211  1.697574  5.729671
C    -0.090774  2.128323  6.800426
H    -1.881512  2.204606  5.660374
H    -0.489907  1.805135  7.771041
H    -0.030791  3.222631  6.785480
H    0.897481  1.690878  6.645951
Cd    1.172807  -1.032684  3.413583
