35
Energy: -172331.487219 eV PBE+vdW (tier 2 basis)
C    -1.098208  0.048725  0.043136
C    -0.732208  0.444980  1.454515
O    0.335714  0.976262  1.737038
H    -0.429218  0.556698  -0.656499
H    -2.142795  0.314663  -0.173734
H    -0.984182  -1.038491  -0.080313
N    -1.684111  0.130289  2.424816
C    -1.537772  0.116078  3.865680
C    -2.383436  1.286391  4.532604
O    -3.198131  0.822194  5.407414
H    -2.465442  -0.418776  2.068084
H    -2.061897  -0.780261  4.223716
C    -0.101765  0.073977  4.456498
C    0.568897  -1.287835  4.183996
C    1.994070  -1.448445  4.763038
C    3.090386  -0.785607  3.927378
N    4.473971  -1.167756  4.439365
H    -0.191546  0.218329  5.543757
H    0.485013  0.912439  4.063549
H    0.593666  -1.496422  3.104385
H    -0.049592  -2.078914  4.631616
H    2.192793  -2.530587  4.813676
H    2.027946  -1.077933  5.799787
H    3.053278  0.310173  3.948921
H    3.059403  -1.110339  2.879776
H    5.218946  -0.728539  3.877218
H    4.625473  -2.187359  4.399868
H    4.619024  -0.877357  5.417869
N    -2.261944  2.556037  4.223124
C    -1.391308  3.226428  3.246238
H    -2.892660  3.188597  4.720762
H    -0.537669  2.598593  2.982010
H    -1.968754  3.471883  2.345927
H    -1.025133  4.154329  3.699272
Cd    -4.755423  1.583096  6.743473
