35
Energy: -172331.617552 eV PBE+vdW (tier 2 basis)
C    -0.837025  -0.227166  -0.624405
C    -0.142230  0.048935  0.662311
O    1.074374  -0.292520  0.895455
H    -1.198294  -1.268715  -0.628895
H    -0.129596  -0.132654  -1.459402
H    -1.684300  0.439025  -0.816404
N    -0.766468  0.624912  1.704881
C    -2.206889  0.788864  1.885421
C    -2.694763  2.274178  1.611240
O    -3.728200  2.314496  0.940137
H    -0.163723  0.788962  2.515516
H    -2.707615  0.214875  1.100574
C    -2.699896  0.273555  3.263663
C    -4.238007  0.138640  3.401746
C    -4.955976  1.348176  4.028537
C    -6.483255  1.265238  4.068294
N    -7.028423  0.304705  5.122922
H    -2.289700  0.890166  4.077292
H    -2.253746  -0.725692  3.377441
H    -4.409087  -0.758676  4.016322
H    -4.679405  -0.085856  2.417918
H    -4.748654  2.257627  3.446512
H    -4.565656  1.549427  5.039705
H    -6.908891  0.937048  3.111500
H    -6.917010  2.240905  4.316744
H    -8.060199  0.316630  5.124936
H    -6.723342  0.567294  6.071887
H    -6.741246  -0.670453  4.961593
N    -2.073857  3.346065  2.110946
C    -0.872445  3.437164  2.941767
H    -2.498857  4.229567  1.826283
H    -0.872779  4.422151  3.420431
H    0.045497  3.357515  2.344514
H    -0.877972  2.693217  3.747267
Cd    2.794329  -0.571616  -0.398776
