35
Energy: -172331.803576 eV PBE+vdW (tier 2 basis)
C    -0.040668  1.611502  0.167601
C    0.071050  0.622586  1.274753
O    1.167287  0.028039  1.584343
H    -0.171783  1.075410  -0.786939
H    0.889684  2.187936  0.082033
H    -0.872106  2.313324  0.290164
N    -0.996852  0.232134  1.990436
C    -2.405942  0.478275  1.675188
C    -2.933188  1.772820  2.422266
O    -3.410166  2.622896  1.673707
H    -0.782356  -0.430057  2.740425
H    -2.465562  0.768900  0.621853
C    -3.302971  -0.761079  1.890124
C    -4.763413  -0.513333  1.462446
C    -5.622844  -1.794040  1.508067
C    -7.057176  -1.504488  1.061465
N    -7.925734  -2.755049  1.081116
H    -3.262040  -1.094672  2.937435
H    -2.870451  -1.570291  1.280660
H    -4.778271  -0.100957  0.441656
H    -5.219000  0.253182  2.108181
H    -5.626530  -2.205914  2.530009
H    -5.177960  -2.560065  0.852929
H    -7.100653  -1.124662  0.032965
H    -7.557741  -0.780361  1.716400
H    -7.989546  -3.166582  2.024068
H    -7.563833  -3.486018  0.450725
H    -8.888504  -2.542306  0.777328
N    -2.856205  1.929326  3.758140
C    -2.601349  0.954441  4.814745
H    -3.268960  2.812752  4.067288
H    -1.851305  0.215115  4.521983
H    -3.523027  0.440335  5.121952
H    -2.211106  1.496305  5.684753
Cd    3.251046  0.613779  1.411794
