35
Energy: -172331.845913 eV PBE+vdW (tier 2 basis)
C    -0.379510  1.171255  -0.163845
C    -0.299436  0.529259  1.175798
O    0.587390  -0.349858  1.485291
H    0.632545  1.381237  -0.537047
H    -0.944353  2.108670  -0.167018
H    -0.845255  0.472157  -0.877243
N    -1.193794  0.777430  2.146208
C    -2.500645  1.420594  2.011743
C    -2.501097  2.936816  2.475378
O    -3.139068  3.667324  1.712378
H    -0.999550  0.294396  3.027934
H    -2.733488  1.486090  0.945268
C    -3.603291  0.618227  2.746493
C    -5.031701  1.204500  2.725629
C    -5.697114  1.279231  1.337893
C    -7.225275  1.343990  1.335948
N    -7.796694  2.675352  1.817736
H    -3.309373  0.477660  3.797386
H    -3.617340  -0.384811  2.290745
H    -5.033146  2.189572  3.218419
H    -5.622435  0.540658  3.375329
H    -5.288568  2.109347  0.740026
H    -5.468040  0.361107  0.773738
H    -7.673404  0.575311  1.978508
H    -7.617299  1.211104  0.320694
H    -8.826478  2.671885  1.751447
H    -7.460347  3.464847  1.247085
H    -7.561308  2.875094  2.799600
N    -1.919583  3.355002  3.603177
C    -1.201947  2.602805  4.633431
H    -2.012476  4.360358  3.755639
H    -0.164243  2.397420  4.339369
H    -1.722042  1.674372  4.897569
H    -1.175649  3.219988  5.537587
Cd    2.605462  -0.721130  0.792342
