35
Energy: -172332.203570 eV PBE+vdW (tier 2 basis)
C    -0.005866  -0.587544  -1.162172
C    0.108689  0.164659  0.112275
O    1.176485  0.843179  0.323994
H    0.667528  -0.134078  -1.901074
H    -1.029631  -0.615929  -1.544782
H    0.352390  -1.621463  -1.013327
N    -0.861885  0.179010  1.066319
C    -1.576250  -0.971591  1.660418
C    -0.510486  -1.810024  2.431233
O    0.548651  -1.264608  2.921679
H    -0.795753  0.983862  1.691051
H    -2.186957  -0.515229  2.457351
C    -2.548398  -1.715600  0.705995
C    -3.827089  -2.255751  1.390958
C    -4.753326  -3.045979  0.432488
C    -5.800264  -2.250476  -0.359024
N    -7.143696  -2.153171  0.360507
H    -2.027349  -2.527650  0.176365
H    -2.842365  -0.988850  -0.063844
H    -3.570982  -2.922769  2.228333
H    -4.366776  -1.415943  1.858801
H    -4.141541  -3.581702  -0.307685
H    -5.258565  -3.847306  0.993029
H    -6.026457  -2.737914  -1.314337
H    -5.495466  -1.218054  -0.571136
H    -7.824289  -1.614029  -0.197738
H    -7.075873  -1.695185  1.280377
H    -7.555778  -3.086757  0.512214
N    -0.720813  -3.086962  2.666792
C    0.169033  -3.955499  3.456640
H    -1.586380  -3.497483  2.325851
H    -0.185882  -4.984789  3.362361
H    0.150060  -3.654525  4.511588
H    1.194502  -3.885422  3.077800
Cd    1.815688  0.354201  2.320474
