35
Energy: -172331.639980 eV PBE+vdW (tier 2 basis)
C    -0.230671  -0.365253  -0.030556
C    -0.230186  -0.410001  1.455389
O    0.854125  -0.297556  2.146570
H    0.092327  0.632268  -0.364619
H    -1.197247  -0.602129  -0.482520
H    0.507451  -1.089653  -0.408668
N    -1.334260  -0.538050  2.205157
C    -2.770208  -0.357322  1.867336
C    -3.236209  -1.572993  0.988267
O    -3.394932  -1.406954  -0.218359
H    -1.126513  -0.611417  3.204440
H    -3.278467  -0.417577  2.838732
C    -3.077179  1.001035  1.206252
C    -4.562138  1.381566  1.011198
C    -5.368459  1.663022  2.296082
C    -6.499488  2.683095  2.152700
N    -7.654248  2.222727  1.266221
H    -2.606307  1.027820  0.215710
H    -2.588404  1.771904  1.821484
H    -5.056076  0.622936  0.385864
H    -4.533522  2.298108  0.400991
H    -4.710903  2.106758  3.060566
H    -5.759795  0.736449  2.745878
H    -6.144633  3.623546  1.712303
H    -6.950072  2.909633  3.126266
H    -8.385107  2.949659  1.218375
H    -8.103150  1.370036  1.630589
H    -7.357025  2.032702  0.298901
N    -3.439520  -2.778369  1.578575
C    -3.547444  -3.131082  2.987280
H    -3.774166  -3.484077  0.916587
H    -3.171893  -4.155594  3.113589
H    -4.596077  -3.121997  3.322635
H    -2.955391  -2.466752  3.622286
Cd    2.921551  -0.742727  1.721469
