35
Energy: -172331.837550 eV PBE+vdW (tier 2 basis)
C    0.604854  -0.023684  0.087196
C    0.017707  -0.259007  1.439398
O    0.713243  -0.677133  2.434413
H    1.066388  -0.956182  -0.278864
H    1.388256  0.746175  0.157685
H    -0.127420  0.299158  -0.660969
N    -1.283172  0.008908  1.636914
C    -2.002039  -0.039568  2.919797
C    -3.462541  -0.542224  2.699223
O    -4.415842  0.014034  3.244335
H    -1.751085  0.473434  0.857359
H    -1.483599  -0.788576  3.539699
C    -2.004634  1.299478  3.686064
C    -2.641052  2.494495  2.951007
C    -3.194898  3.592563  3.892693
C    -4.711003  3.637922  4.058839
N    -5.285396  2.430391  4.790664
H    -0.966015  1.530936  3.962880
H    -2.518188  1.090740  4.634881
H    -3.452981  2.159750  2.283476
H    -1.890546  2.947999  2.288363
H    -2.931747  4.579990  3.487370
H    -2.702437  3.551530  4.877091
H    -5.226480  3.675930  3.090784
H    -5.013568  4.517845  4.638998
H    -6.312613  2.492092  4.842092
H    -4.940935  2.382416  5.759467
H    -5.043052  1.540024  4.313391
N    -3.629739  -1.642869  1.915366
C    -4.912291  -2.284840  1.699906
H    -2.799640  -2.142975  1.601013
H    -5.097856  -3.058647  2.468252
H    -5.713097  -1.540955  1.767288
H    -4.902725  -2.785471  0.723296
Cd    2.686901  -1.587741  2.396834
