35
Energy: -172331.554342 eV PBE+vdW (tier 2 basis)
C    0.049295  -0.738678  -0.234619
C    -0.110579  0.293448  0.857160
O    0.660413  1.234021  1.001136
H    0.870160  -0.441904  -0.892313
H    -0.882974  -0.806263  -0.816207
H    0.261145  -1.729422  0.191638
N    -1.194635  0.088137  1.712975
C    -1.507680  0.744417  2.963743
C    -2.778006  1.694104  2.798668
O    -3.703364  1.372297  3.625957
H    -1.674709  -0.798403  1.562535
H    -1.885776  -0.034377  3.638936
C    -0.388084  1.512778  3.715199
C    0.734358  0.604670  4.261931
C    1.709117  1.430837  5.129253
C    2.777467  0.648640  5.896801
N    4.001424  0.280465  5.062083
H    -0.874200  2.016733  4.564739
H    0.031173  2.297687  3.075055
H    1.263053  0.123028  3.425620
H    0.296631  -0.199209  4.874071
H    1.133181  1.956710  5.905660
H    2.181599  2.228722  4.533375
H    2.397477  -0.293224  6.312004
H    3.169573  1.250530  6.725169
H    3.773350  -0.328660  4.264968
H    4.470844  1.119318  4.689550
H    4.695861  -0.221938  5.636865
N    -2.858406  2.676608  1.932464
C    -1.897515  3.164097  0.931461
H    -3.744606  3.187135  1.936114
H    -2.218762  2.846428  -0.068528
H    -0.890972  2.792531  1.134572
H    -1.889259  4.259108  0.973356
Cd    -5.735114  2.031378  4.107486
