35
Energy: -172332.927013 eV PBE+vdW (tier 2 basis)
C    0.132601  -0.392855  -0.020649
C    -0.046549  -0.370107  1.461468
O    0.982768  -0.655922  2.166652
H    0.596309  -1.347824  -0.307455
H    0.846647  0.394278  -0.306462
H    -0.800853  -0.257489  -0.577667
N    -1.261997  -0.062440  1.948101
C    -1.849680  -0.122686  3.315313
C    -1.364339  1.022369  4.237570
O    -0.223689  1.016895  4.833761
H    -1.926612  0.196590  1.222685
H    -2.915956  0.073813  3.139368
C    -1.729093  -1.508150  3.999126
C    -2.614748  -2.647298  3.438114
C    -4.115357  -2.542578  3.800213
C    -4.859237  -3.863834  4.018419
N    -5.150701  -4.659287  2.748740
H    -1.959014  -1.369875  5.066782
H    -0.685563  -1.854919  3.956992
H    -2.206274  -3.573330  3.870447
H    -2.470049  -2.735623  2.350138
H    -4.669905  -1.919585  3.080648
H    -4.218541  -2.029557  4.769583
H    -5.839839  -3.678757  4.473108
H    -4.303023  -4.543396  4.676537
H    -5.732760  -4.126855  2.085375
H    -5.672783  -5.520319  2.977639
H    -4.296546  -4.952394  2.254589
N    -2.197019  2.016377  4.471178
C    -1.935773  3.173579  5.339215
H    -3.120674  1.975673  4.043383
H    -2.441857  3.030828  6.303483
H    -2.337070  4.069411  4.852552
H    -0.861088  3.279249  5.502250
Cd    1.469435  0.003929  4.105870
