35
Energy: -172331.535638 eV PBE+vdW (tier 2 basis)
C    0.075404  0.289057  0.445709
C    -0.286084  -0.690511  1.515692
O    0.561079  -1.523595  2.003261
H    -0.761529  0.919269  0.125680
H    0.439935  -0.256168  -0.439814
H    0.879992  0.946830  0.807549
N    -1.536121  -0.686156  1.991572
C    -2.078975  -1.512487  3.084458
C    -3.496198  -2.013260  2.662935
O    -4.494472  -1.638866  3.274150
H    -2.142086  0.043146  1.616978
H    -1.415728  -2.382270  3.184108
C    -2.130791  -0.788959  4.449588
C    -2.875621  0.556538  4.483274
C    -3.167603  1.102131  5.900017
C    -4.383780  0.453312  6.563948
N    -4.711343  1.126020  7.891076
H    -1.091182  -0.649909  4.782991
H    -2.580165  -1.510138  5.147230
H    -3.828935  0.478593  3.934899
H    -2.280390  1.319840  3.960520
H    -3.349273  2.183822  5.807693
H    -2.277653  0.985223  6.539365
H    -4.238182  -0.608936  6.794161
H    -5.285720  0.550818  5.946917
H    -3.933172  1.055413  8.563379
H    -5.538153  0.698468  8.335226
H    -4.917588  2.128978  7.768185
N    -3.637659  -2.875894  1.611850
C    -2.665080  -3.765665  1.009219
H    -4.621317  -3.107049  1.437372
H    -2.797554  -4.794915  1.382090
H    -1.642481  -3.436214  1.207083
H    -2.840087  -3.792518  -0.077488
Cd    2.594440  -1.918467  1.310073
