35
Energy: -172331.282586 eV PBE+vdW (tier 2 basis)
C    -1.507455  3.161545  0.380929
C    -1.614586  1.791039  0.969163
O    -2.044166  0.809674  0.369293
H    -1.712379  3.953974  1.111341
H    -2.179746  3.251532  -0.478205
H    -0.474432  3.287431  0.014592
N    -1.176196  1.600031  2.286536
C    -1.237726  0.300364  2.871372
C    -2.694831  -0.082837  3.370671
O    -3.229723  0.725636  4.199871
H    -1.014251  2.417594  2.873540
H    -1.105327  -0.390232  2.015606
C    -0.180473  0.048101  3.966123
C    1.234307  -0.019042  3.344957
C    2.358945  -0.574028  4.248202
C    2.903811  0.412570  5.281872
N    4.151999  -0.141482  5.959028
H    -0.419186  -0.909671  4.453511
H    -0.255727  0.822640  4.744413
H    1.520977  0.970377  2.956970
H    1.194293  -0.678122  2.465248
H    3.180798  -0.867599  3.576192
H    2.023044  -1.497482  4.746447
H    2.195899  0.631662  6.090504
H    3.211776  1.359957  4.821486
H    4.529263  0.519516  6.655301
H    4.904009  -0.324964  5.276965
H    3.965295  -1.028504  6.450318
N    -3.245968  -1.182545  2.907274
C    -2.703559  -2.164479  1.943321
H    -4.188600  -1.387674  3.244795
H    -3.441086  -2.966260  1.844417
H    -1.771558  -2.601833  2.317602
H    -2.557542  -1.695938  0.962927
Cd    -5.237437  0.938647  5.084298
