35
Energy: -172331.967603 eV PBE+vdW (tier 2 basis)
C    0.722870  1.015443  0.150332
C    -0.039978  1.490791  1.343371
O    -0.535455  2.685612  1.423243
H    1.618472  1.641794  0.015705
H    0.094006  1.096264  -0.750240
H    1.052857  -0.025329  0.237457
N    -0.211194  0.676479  2.372482
C    -0.804184  1.015087  3.676280
C    0.149803  0.366113  4.710355
O    0.734530  -0.672130  4.384712
H    0.286691  -0.221754  2.372696
H    -0.806347  2.109233  3.770823
C    -2.258942  0.495991  3.854754
C    -2.484989  -1.027996  3.830570
C    -3.986357  -1.356655  3.968384
C    -4.396452  -2.816910  3.775575
N    -4.127191  -3.705967  4.987594
H    -2.861372  0.972422  3.065996
H    -2.627011  0.914671  4.804117
H    -1.902649  -1.504018  4.635988
H    -2.110582  -1.451784  2.885581
H    -4.544842  -0.805501  3.196269
H    -4.382520  -0.979665  4.925774
H    -3.881668  -3.293238  2.931686
H    -5.476329  -2.892452  3.601561
H    -4.453039  -4.669118  4.812038
H    -4.627836  -3.367538  5.822660
H    -3.127509  -3.764870  5.223864
N    0.268473  0.944419  5.925755
C    1.154656  0.448240  6.966024
H    -0.184948  1.843759  6.082350
H    2.102539  1.014534  6.969051
H    1.381938  -0.606346  6.782066
H    0.678854  0.595994  7.944427
Cd    -0.469859  4.198888  -0.104384
