35
Energy: -172332.708140 eV PBE+vdW (tier 2 basis)
C    1.060285  0.042357  0.535589
C    0.638923  0.068609  1.965804
O    1.499084  0.470748  2.821693
H    1.481376  1.021643  0.267018
H    0.245753  -0.209577  -0.152332
H    1.875801  -0.686906  0.416849
N    -0.612937  -0.314140  2.278803
C    -1.273069  -0.245881  3.593438
C    -0.799757  -1.395368  4.531730
O    0.080918  -1.126784  5.441724
H    -1.176458  -0.647842  1.499654
H    -0.905190  0.664752  4.093276
C    -2.812769  -0.115219  3.490424
C    -3.416655  1.288137  3.238451
C    -3.407691  1.803682  1.781882
C    -4.614090  2.654604  1.369858
N    -4.694050  4.026201  2.034453
H    -3.213893  -0.463478  4.453291
H    -3.200746  -0.818892  2.739103
H    -2.949583  2.017040  3.919397
H    -4.462442  1.200049  3.571983
H    -3.455857  0.949712  1.087467
H    -2.472233  2.331448  1.538723
H    -5.561380  2.154050  1.608186
H    -4.597497  2.854574  0.291772
H    -5.523701  4.539632  1.696069
H    -3.873739  4.611101  1.817818
H    -4.779043  3.968606  3.059118
N    -1.257595  -2.629531  4.495588
C    -2.284029  -3.263975  3.659927
H    -0.837686  -3.235470  5.207688
H    -3.278933  -3.147890  4.108938
H    -2.050484  -4.332604  3.607604
H    -2.273173  -2.859977  2.643985
Cd    1.712787  0.103387  4.903512
