35
Energy: -172331.845483 eV PBE+vdW (tier 2 basis)
C    2.801692  -2.071075  1.600751
C    1.769371  -1.890908  2.665932
O    1.955511  -2.278709  3.889397
H    2.489235  -1.676582  0.627788
H    3.013552  -3.144381  1.473899
H    3.730170  -1.554678  1.891269
N    0.615150  -1.325270  2.357196
C    -0.574551  -1.187744  3.214569
C    -1.745148  -1.579935  2.278876
O    -1.590437  -1.380328  1.066603
H    0.412310  -1.142815  1.365314
H    -0.471039  -1.887836  4.052726
C    -0.773883  0.257150  3.765808
C    -0.881019  1.363816  2.701313
C    -0.998392  2.807426  3.245515
C    -2.395402  3.184495  3.740739
N    -2.483035  4.673371  4.054621
H    0.074186  0.460677  4.437204
H    -1.669469  0.226943  4.404911
H    -1.720044  1.166318  2.016200
H    0.020946  1.345985  2.073368
H    -0.725407  3.483096  2.420072
H    -0.257121  2.973378  4.043480
H    -2.684297  2.667393  4.663911
H    -3.163257  2.995866  2.979569
H    -3.424241  4.935193  4.385446
H    -2.283359  5.248593  3.221994
H    -1.813420  4.954696  4.786231
N    -2.903372  -2.075582  2.768033
C    -3.222093  -2.540937  4.105998
H    -3.590857  -2.277717  2.035924
H    -4.237738  -2.209091  4.365654
H    -2.517166  -2.155734  4.846993
H    -3.223864  -3.642996  4.139571
Cd    3.741929  -3.213357  4.639660
