35
Energy: -172331.804904 eV PBE+vdW (tier 2 basis)
C    -0.600215  -1.975596  1.449668
C    -0.021989  -0.608936  1.580696
O    1.152517  -0.412127  2.093114
H    -1.656503  -1.986733  1.168088
H    -0.486730  -2.514803  2.399496
H    -0.043103  -2.530744  0.677408
N    -0.663454  0.495549  1.222035
C    -2.009406  0.679518  0.674738
C    -1.847913  1.898732  -0.285371
O    -1.009462  2.756019  -0.002327
H    -0.135545  1.379355  1.278704
H    -2.296112  -0.221388  0.121020
C    -3.112680  0.999726  1.730649
C    -2.849037  2.225463  2.623196
C    -4.096975  2.862412  3.275926
C    -4.725450  2.046232  4.405503
N    -5.840691  2.830522  5.087204
H    -3.255155  0.086706  2.329799
H    -4.046233  1.136224  1.162129
H    -2.385220  3.024641  2.024798
H    -2.109686  1.977993  3.400395
H    -4.851589  3.070811  2.500424
H    -3.784520  3.839390  3.676587
H    -4.000943  1.809767  5.195106
H    -5.184509  1.111163  4.061569
H    -6.596272  3.076543  4.430227
H    -6.268354  2.291307  5.855372
H    -5.491859  3.712762  5.492108
N    -2.645511  2.011651  -1.375323
C    -3.546756  1.044730  -1.977348
H    -2.419778  2.836932  -1.938859
H    -4.375456  1.590773  -2.448563
H    -3.952316  0.350331  -1.235932
H    -3.039884  0.475057  -2.774361
Cd    2.943640  -1.571184  2.113855
