35
Energy: -172331.923435 eV PBE+vdW (tier 2 basis)
C    -0.626288  -1.792036  0.657877
C    -0.342946  -0.609923  1.518235
O    0.811458  -0.440372  2.085653
H    -0.374379  -2.711512  1.204348
H    0.012266  -1.747138  -0.239271
H    -1.664214  -1.861450  0.321944
N    -1.240332  0.326400  1.797867
C    -2.658079  0.414197  1.434713
C    -2.934139  1.945605  1.428021
O    -2.305330  2.655147  2.214509
H    -0.920406  1.134536  2.352448
H    -2.793746  -0.013177  0.434294
C    -3.619598  -0.320547  2.422157
C    -3.681785  0.199600  3.877036
C    -4.801328  1.221260  4.186023
C    -6.177043  0.648152  4.538387
N    -6.282833  0.215015  5.998765
H    -3.303226  -1.374087  2.414940
H    -4.618074  -0.315507  1.959119
H    -2.719678  0.646537  4.163118
H    -3.778148  -0.678348  4.535282
H    -4.962976  1.884414  3.324335
H    -4.474713  1.899774  4.989226
H    -6.445359  -0.233360  3.942056
H    -6.964014  1.400002  4.407220
H    -7.220580  -0.162183  6.206044
H    -6.130158  1.010179  6.637507
H    -5.601322  -0.515217  6.248587
N    -3.870335  2.454091  0.588378
C    -4.553138  1.816534  -0.527141
H    -3.919225  3.476122  0.629847
H    -5.499348  2.344712  -0.699650
H    -4.766488  0.762882  -0.321267
H    -3.961991  1.895520  -1.454891
Cd    2.783432  -1.036328  1.545292
