35
Energy: -172331.617763 eV PBE+vdW (tier 2 basis)
C    0.776123  -1.327593  0.794805
C    0.473919  -0.783532  2.151619
O    1.188085  -1.080649  3.196552
H    0.715214  -2.427288  0.819478
H    1.793335  -1.032527  0.493080
H    0.081100  -0.976718  0.024337
N    -0.554500  0.029379  2.324251
C    -1.029952  0.570256  3.611009
C    -2.551920  0.698414  3.449895
O    -2.984451  1.022732  2.324638
H    -1.173415  0.219778  1.530179
H    -0.760388  -0.166253  4.378162
C    -0.408903  1.950023  4.008517
C    -1.079732  3.276428  3.582097
C    -0.732345  3.931654  2.228066
C    -1.414862  3.488921  0.936552
N    -2.925994  3.669556  0.966389
H    0.647264  1.937865  3.701709
H    -0.392684  1.945380  5.107543
H    -0.749816  4.003205  4.338054
H    -2.169783  3.225455  3.737394
H    0.349653  3.848158  2.042129
H    -0.902418  5.014872  2.335872
H    -1.255378  2.434753  0.684818
H    -1.049512  4.095522  0.099213
H    -3.192613  4.593594  1.337058
H    -3.361645  2.933020  1.547493
H    -3.330762  3.595752  0.021680
N    -3.382203  0.524395  4.494507
C    -3.096052  0.171678  5.873586
H    -4.371153  0.640974  4.252878
H    -3.564996  0.910372  6.542418
H    -2.022325  0.138110  6.070469
H    -3.548108  -0.806349  6.108347
Cd    2.890075  -2.373276  3.258528
