35
Energy: -172331.946019 eV PBE+vdW (tier 2 basis)
C    0.285137  -1.592254  0.834031
C    -0.312752  -0.324189  1.350871
O    0.094811  0.844158  0.968235
H    0.182963  -1.631064  -0.262065
H    -0.187216  -2.490622  1.246033
H    1.354570  -1.625289  1.093904
N    -1.286255  -0.386780  2.245721
C    -1.897640  0.731959  2.980200
C    -1.926574  0.245475  4.453501
O    -2.044740  -0.966025  4.658539
H    -1.508446  -1.303910  2.651819
H    -1.250517  1.611225  2.863556
C    -3.334778  1.084137  2.489851
C    -4.361422  -0.060325  2.542990
C    -5.764535  0.278836  1.985153
C    -6.646364  1.083176  2.941232
N    -8.066259  1.210296  2.402250
H    -3.662685  1.947544  3.088920
H    -3.233564  1.451815  1.456958
H    -4.462599  -0.446766  3.569146
H    -3.990245  -0.905657  1.946408
H    -6.264146  -0.678104  1.768822
H    -5.670885  0.807482  1.023112
H    -6.742272  0.592955  3.918368
H    -6.294103  2.109808  3.099015
H    -8.505671  0.286609  2.269561
H    -8.669192  1.743253  3.047438
H    -8.092339  1.693017  1.491781
N    -1.859643  1.166469  5.440300
C    -1.852552  0.817362  6.852350
H    -1.659031  2.133857  5.190601
H    -2.352445  1.611991  7.420274
H    -0.817736  0.736162  7.228769
H    -2.344366  -0.151231  6.991283
Cd    1.604365  1.225671  -0.520691
