35
Energy: -172331.968063 eV PBE+vdW (tier 2 basis)
C    -0.814376  0.496102  -0.953519
C    -0.230364  0.200436  0.384377
O    1.042701  0.227801  0.601703
H    -1.858092  0.185032  -1.056114
H    -0.233872  -0.014546  -1.734305
H    -0.764321  1.582448  -1.127085
N    -0.978404  -0.110099  1.441466
C    -2.436779  0.033322  1.589745
C    -2.792795  1.548248  1.489301
O    -1.898873  2.390368  1.533084
H    -0.448898  -0.203468  2.310226
H    -2.924572  -0.519579  0.773173
C    -2.880918  -0.549049  2.955773
C    -2.777171  -2.084320  3.043121
C    -3.017202  -2.693311  4.444356
C    -4.479086  -2.708627  4.893582
N    -4.643113  -3.481154  6.196922
H    -3.913984  -0.218627  3.132928
H    -2.280013  -0.067981  3.745557
H    -1.769702  -2.402108  2.737727
H    -3.463655  -2.546011  2.315912
H    -2.400729  -2.167070  5.190723
H    -2.648459  -3.730389  4.409572
H    -5.127308  -3.211793  4.164836
H    -4.883529  -1.707915  5.088667
H    -4.335185  -4.460767  6.099820
H    -5.628084  -3.501697  6.502518
H    -4.094870  -3.064573  6.964370
N    -4.095652  1.935154  1.364426
C    -5.255062  1.175264  0.938622
H    -4.198284  2.954543  1.373751
H    -5.548195  1.458941  -0.085659
H    -6.106160  1.423820  1.591974
H    -5.072576  0.098396  0.974858
Cd    2.697698  0.668462  -0.670930
