35
Energy: -172332.127828 eV PBE+vdW (tier 2 basis)
C    -0.726220  0.943381  0.139193
C    -0.189816  0.102266  1.236149
O    1.088406  0.013888  1.342132
H    -0.550596  0.468159  -0.837490
H    -0.122387  1.866386  0.125030
H    -1.776357  1.208371  0.270481
N    -0.950790  -0.496791  2.193828
C    -2.074019  -1.456545  2.102747
C    -1.403610  -2.850357  2.250126
O    -0.275284  -3.092077  1.664300
H    -0.427876  -0.612857  3.065687
H    -2.706256  -1.269468  2.982188
C    -2.958732  -1.322564  0.836514
C    -4.234563  -2.190340  0.883350
C    -5.359966  -1.792545  -0.102419
C    -5.135860  -2.196149  -1.560713
N    -6.388280  -1.943190  -2.391824
H    -2.362004  -1.539267  -0.061843
H    -3.260526  -0.267150  0.787689
H    -4.682517  -2.101256  1.882751
H    -3.987633  -3.254400  0.746850
H    -5.544192  -0.708571  -0.034344
H    -6.277488  -2.283249  0.258268
H    -4.921075  -3.267439  -1.664081
H    -4.332980  -1.631828  -2.050504
H    -6.249358  -2.215304  -3.377260
H    -6.663865  -0.949402  -2.386583
H    -7.194577  -2.482536  -2.040331
N    -1.954270  -3.824237  2.947884
C    -3.201337  -3.882475  3.718118
H    -1.402422  -4.687914  2.948907
H    -3.958004  -4.457938  3.170118
H    -3.582546  -2.881985  3.936476
H    -2.990404  -4.397484  4.662865
Cd    1.593989  -2.037430  1.716151
