35
Energy: -172333.170890 eV PBE+vdW (tier 2 basis)
C    -1.948635  -3.587226  1.309515
C    -1.060082  -2.413498  1.545693
O    -0.178257  -2.158914  0.653748
H    -2.427168  -3.474854  0.325176
H    -2.719444  -3.710779  2.077858
H    -1.335985  -4.498622  1.251074
N    -1.239325  -1.679999  2.658689
C    -0.656184  -0.367035  3.006390
C    0.723706  -0.542315  3.696593
O    1.792701  -0.700377  2.994663
H    -1.936283  -2.042124  3.307171
H    -0.444197  0.156364  2.059097
C    -1.661146  0.495936  3.801476
C    -2.878631  1.018555  3.004715
C    -3.651947  2.071639  3.830115
C    -4.719917  2.892675  3.100106
N    -6.093012  2.229229  3.025190
H    -1.101384  1.366225  4.176720
H    -2.011474  -0.058407  4.689749
H    -3.531462  0.181780  2.710048
H    -2.523548  1.485846  2.072545
H    -2.931946  2.819963  4.194936
H    -4.078175  1.622837  4.742256
H    -4.439662  3.129634  2.066122
H    -4.894233  3.838558  3.626237
H    -6.769141  2.852162  2.555453
H    -6.471263  2.034052  3.964371
H    -6.086519  1.344382  2.500432
N    0.820900  -0.522971  5.006933
C    2.063326  -0.693377  5.777861
H    -0.022620  -0.327264  5.542535
H    1.824146  -1.228134  6.702726
H    2.481682  0.291233  6.025723
H    2.788352  -1.260842  5.189769
Cd    1.729827  -1.304332  0.972315
