35
Energy: -172332.015974 eV PBE+vdW (tier 2 basis)
C    -0.761274  -1.311632  1.366581
C    0.408862  -0.490282  0.951188
O    1.609805  -0.977698  0.916802
H    -1.699305  -0.753163  1.420655
H    -0.562538  -1.756299  2.351837
H    -0.901545  -2.133897  0.647009
N    0.326534  0.793754  0.623858
C    -0.794861  1.739014  0.713158
C    -0.522556  2.733096  -0.462531
O    0.621861  3.157113  -0.607346
H    1.204648  1.246762  0.334584
H    -1.741385  1.203014  0.566295
C    -0.779987  2.486835  2.073431
C    -1.826717  3.604718  2.245973
C    -1.826307  4.120142  3.700711
C    -2.898315  5.145320  4.075045
N    -2.546428  6.580646  3.689572
H    0.231187  2.895972  2.219125
H    -0.931588  1.723301  2.852748
H    -2.831619  3.224475  2.001468
H    -1.613893  4.421600  1.537308
H    -0.829550  4.501182  3.978457
H    -2.001654  3.268419  4.375378
H    -3.042469  5.171447  5.161561
H    -3.869390  4.934466  3.609406
H    -3.290363  7.230730  3.987424
H    -2.426053  6.704024  2.675295
H    -1.675786  6.890742  4.146487
N    -1.566159  3.076603  -1.250525
C    -1.417704  3.919691  -2.429658
H    -2.457287  2.602772  -1.117099
H    -2.337578  4.499842  -2.571589
H    -1.261608  3.305645  -3.332339
H    -0.547375  4.571771  -2.301216
Cd    2.395661  -2.939134  0.661565
