35
Energy: -172332.936130 eV PBE+vdW (tier 2 basis)
C    -0.010495  1.693707  0.218400
C    -0.497093  0.317857  0.528919
O    0.153060  -0.652575  0.001172
H    0.013908  1.817075  -0.874991
H    1.027482  1.798581  0.565638
H    -0.629032  2.485448  0.655024
N    -1.576787  0.188614  1.317953
C    -2.481300  -0.956305  1.624626
C    -1.860373  -1.950298  2.629930
O    -1.047183  -2.887959  2.275247
H    -1.930120  1.081477  1.656157
H    -3.310862  -0.471605  2.153587
C    -3.095349  -1.623011  0.368349
C    -4.394358  -2.398278  0.671239
C    -5.129264  -2.854255  -0.609174
C    -6.454115  -3.545549  -0.274800
N    -7.217488  -3.960639  -1.525056
H    -2.372664  -2.282771  -0.138290
H    -3.305759  -0.808343  -0.339890
H    -5.066888  -1.747519  1.253075
H    -4.178974  -3.273986  1.303540
H    -4.487525  -3.538832  -1.186278
H    -5.321844  -1.977405  -1.247880
H    -7.131748  -2.887264  0.283364
H    -6.308782  -4.463808  0.307859
H    -7.451528  -3.153195  -2.122312
H    -8.107809  -4.420785  -1.278128
H    -6.684488  -4.626847  -2.103842
N    -2.206685  -1.902226  3.900490
C    -3.153415  -1.004055  4.583390
H    -1.747561  -2.605111  4.486744
H    -2.856597  0.044586  4.463699
H    -3.125047  -1.245187  5.649971
H    -4.178177  -1.160171  4.224929
Cd    0.354858  -2.608368  0.727337
