35
Energy: -172332.765996 eV PBE+vdW (tier 2 basis)
C    -1.462405  -0.008955  -0.083135
C    -1.543066  0.658275  1.250737
O    -1.405828  1.934858  1.258744
H    -0.550318  0.332017  -0.594050
H    -2.306643  0.326276  -0.704217
H    -1.459341  -1.102889  -0.028479
N    -1.747325  -0.115429  2.327679
C    -1.653038  0.040768  3.811556
C    -2.707136  0.933159  4.486175
O    -2.791145  2.215734  4.341690
H    -1.864352  -1.093697  2.069030
H    -1.912174  -0.971143  4.143364
C    -0.213412  0.232850  4.372810
C    0.593896  1.524895  4.154172
C    1.989944  1.368844  4.808708
C    2.881019  2.600671  4.641833
N    4.243043  2.397615  5.293188
H    0.361477  -0.618284  3.976725
H    -0.300236  0.046370  5.455641
H    0.077826  2.386228  4.608993
H    0.716941  1.729872  3.079564
H    2.490928  0.492230  4.367514
H    1.858670  1.153762  5.881292
H    3.084436  2.829398  3.588128
H    2.453434  3.492986  5.116088
H    4.839620  3.231976  5.178423
H    4.754720  1.602285  4.881387
H    4.165571  2.219373  6.306183
N    -3.522538  0.389913  5.369530
C    -3.625899  -1.002062  5.840370
H    -4.152380  1.061949  5.817244
H    -3.770597  -1.691910  5.000329
H    -4.506765  -1.065967  6.485971
H    -2.745398  -1.287428  6.429738
Cd    -2.351386  3.250900  2.580905
