35
Energy: -172331.572022 eV PBE+vdW (tier 2 basis)
C    0.510058  0.084437  1.067943
C    0.040691  0.034547  2.479085
O    0.826898  -0.304943  3.452432
H    0.927568  -0.893207  0.787989
H    1.314441  0.831308  0.978461
H    -0.271477  0.348782  0.351123
N    -1.209502  0.288695  2.850449
C    -2.437734  0.462451  2.059556
C    -3.298145  1.414389  2.950693
O    -3.416203  1.113621  4.138190
H    -1.397139  0.232536  3.861242
H    -2.190411  0.915707  1.094274
C    -3.157632  -0.909328  1.903683
C    -4.623642  -0.953505  1.424557
C    -4.886896  -0.604427  -0.055908
C    -6.000145  -1.407681  -0.732686
N    -7.396984  -1.145463  -0.174966
H    -3.129519  -1.386315  2.894038
H    -2.533031  -1.524013  1.236759
H    -5.250091  -0.341848  2.092471
H    -4.932751  -1.995339  1.606268
H    -3.995299  -0.833699  -0.660578
H    -5.068352  0.473093  -0.193943
H    -5.838846  -2.488319  -0.628732
H    -6.062145  -1.172315  -1.801891
H    -8.097924  -1.714198  -0.675501
H    -7.678474  -0.160395  -0.283894
H    -7.474724  -1.386499  0.823324
N    -3.892413  2.508111  2.418629
C    -3.653794  3.158435  1.136707
H    -4.385902  3.062791  3.123450
H    -4.526836  3.777334  0.898027
H    -3.510274  2.426897  0.334854
H    -2.778828  3.826509  1.180339
Cd    2.926091  -0.195371  3.781667
