35
Energy: -172332.797421 eV PBE+vdW (tier 2 basis)
C    -0.735160  -1.163780  -0.574748
C    -0.346330  -0.791966  0.814739
O    0.870586  -0.437478  1.002829
H    -0.545624  -0.300316  -1.231608
H    -1.786916  -1.456938  -0.665795
H    -0.086274  -1.975269  -0.932614
N    -1.281808  -0.826513  1.780318
C    -1.244385  -0.234714  3.139773
C    -0.593551  -1.232318  4.129466
O    0.677461  -1.206858  4.336020
H    -2.195081  -1.159872  1.473425
H    -0.567366  0.634842  3.101605
C    -2.663944  0.290973  3.471318
C    -2.837751  1.358539  4.578199
C    -2.835967  0.883464  6.047225
C    -3.724207  1.689120  7.002412
N    -3.261727  3.119310  7.266612
H    -3.358461  -0.548859  3.647330
H    -3.015709  0.756932  2.538965
H    -3.816360  1.814625  4.361704
H    -2.098041  2.160038  4.423378
H    -1.815612  0.804851  6.454244
H    -3.259510  -0.131190  6.110875
H    -3.766392  1.210563  7.988156
H    -4.750313  1.775117  6.622263
H    -3.902246  3.584223  7.930060
H    -3.247642  3.697904  6.414782
H    -2.321817  3.153069  7.687785
N    -1.338201  -2.119697  4.753031
C    -0.858464  -3.187645  5.642354
H    -2.342772  -2.083390  4.587641
H    -1.312752  -3.067040  6.633248
H    0.228432  -3.136742  5.725803
H    -1.162639  -4.157559  5.228962
Cd    1.982000  -0.565904  2.785541
