35
Energy: -172331.903920 eV PBE+vdW (tier 2 basis)
C    -0.778200  1.571601  0.613075
C    -0.330175  0.199903  0.984209
O    0.897741  -0.171650  0.860084
H    -0.558553  1.720938  -0.458890
H    -0.225310  2.318126  1.196641
H    -1.847810  1.746942  0.755645
N    -1.174351  -0.771058  1.377190
C    -2.384294  -0.559629  2.174201
C    -1.982362  0.324573  3.429928
O    -0.894640  0.892205  3.433610
H    -0.700481  -1.661675  1.550597
H    -3.086069  0.066469  1.597321
C    -3.016525  -1.921083  2.530481
C    -3.709068  -2.723076  1.404373
C    -5.068790  -2.153442  0.934030
C    -6.165116  -3.179368  0.639877
N    -5.920115  -4.029754  -0.603880
H    -3.754773  -1.766861  3.330482
H    -2.236002  -2.548173  2.990189
H    -3.860864  -3.730060  1.823871
H    -3.024062  -2.853231  0.552709
H    -4.951031  -1.475018  0.074944
H    -5.506323  -1.532933  1.732202
H    -7.126879  -2.681792  0.466536
H    -6.292347  -3.890685  1.465969
H    -5.851684  -3.453429  -1.455243
H    -6.700719  -4.689151  -0.749477
H    -5.061451  -4.593455  -0.534312
N    -2.889806  0.467516  4.425491
C    -2.632079  1.242179  5.627242
H    -3.758748  -0.059783  4.388456
H    -2.261090  0.591379  6.439373
H    -3.571599  1.696273  5.967016
H    -1.869400  1.999186  5.418370
Cd    2.526402  0.772144  -0.157780
