35
Energy: -172331.812574 eV PBE+vdW (tier 2 basis)
C    -0.103839  1.682222  -0.029147
C    -0.177299  0.698819  1.093271
O    0.878860  0.156673  1.616165
H    0.502683  2.549629  0.275739
H    -1.086408  2.053240  -0.340394
H    0.366833  1.206715  -0.903883
N    -1.358871  0.351582  1.573429
C    -1.644615  -0.688427  2.576755
C    -2.894448  -1.407945  2.017271
O    -3.669325  -0.735806  1.322585
H    -2.202372  0.678121  1.084291
H    -0.777121  -1.358292  2.624962
C    -1.928310  -0.112985  3.995561
C    -3.089804  0.892138  4.118329
C    -3.205835  1.503441  5.538318
C    -4.151093  0.815980  6.526636
N    -5.591403  1.310074  6.403894
H    -0.996148  0.366042  4.331725
H    -2.082376  -0.973548  4.664957
H    -4.039145  0.422563  3.813309
H    -2.932392  1.717256  3.410199
H    -3.479994  2.566959  5.461822
H    -2.215676  1.514580  6.016519
H    -3.865048  1.029171  7.563213
H    -4.192083  -0.273530  6.403536
H    -5.986253  1.158048  5.465243
H    -5.656202  2.319819  6.603667
H    -6.208669  0.830667  7.077285
N    -3.150367  -2.701102  2.313030
C    -2.306744  -3.688357  2.964176
H    -4.009242  -3.048698  1.876509
H    -2.931967  -4.314188  3.616499
H    -1.522036  -3.219007  3.563126
H    -1.847822  -4.356946  2.216912
Cd    2.909804  0.561853  1.042394
