35
Energy: -172331.380677 eV PBE+vdW (tier 2 basis)
C    0.315806  -0.040566  0.934779
C    -0.728670  -0.752009  1.717232
O    -0.643407  -2.013666  1.960828
H    1.285987  -0.151737  1.439985
H    0.114854  1.018912  0.777260
H    0.402764  -0.521850  -0.052331
N    -1.811926  -0.178880  2.269319
C    -2.217934  1.195104  2.630909
C    -3.593249  1.575450  1.921636
O    -4.426175  2.037066  2.700859
H    -2.409633  -0.878006  2.720987
H    -2.530182  1.099189  3.679033
C    -1.208857  2.359751  2.559271
C    -1.703647  3.566040  3.388443
C    -0.694634  4.731369  3.447074
C    -1.265241  5.879428  4.283435
N    -0.303141  7.054634  4.384969
H    -1.017208  2.669855  1.522561
H    -0.256488  2.000177  2.981159
H    -1.924948  3.226198  4.411913
H    -2.654679  3.934015  2.976654
H    -0.471152  5.087648  2.428693
H    0.254221  4.385427  3.887471
H    -1.474100  5.572322  5.315919
H    -2.189649  6.283788  3.852371
H    -0.708685  7.815385  4.951961
H    -0.079212  7.452573  3.460888
H    0.587485  6.787827  4.829962
N    -3.796952  1.439856  0.606099
C    -2.885723  1.002688  -0.446681
H    -4.733856  1.723058  0.314929
H    -3.308419  1.321672  -1.404915
H    -2.786359  -0.090483  -0.470406
H    -1.902111  1.475690  -0.352155
Cd    0.260998  -3.722698  0.986407
