35
Energy: -172332.256569 eV PBE+vdW (tier 2 basis)
C    0.320039  0.174899  0.062161
C    0.178207  0.160611  1.535874
O    1.234133  0.118093  2.263716
H    0.963858  1.003043  -0.265046
H    -0.638732  0.179761  -0.464086
H    0.861834  -0.747207  -0.216284
N    -1.033291  0.140490  2.153784
C    -2.162352  1.057560  1.931996
C    -1.711926  2.432882  2.497361
O    -0.920370  2.489173  3.518561
H    -0.999724  -0.225520  3.108681
H    -2.358777  1.129283  0.855007
C    -3.380631  0.476074  2.706282
C    -4.795193  1.052063  2.477342
C    -5.600849  0.387052  1.338247
C    -7.075049  0.798487  1.411138
N    -7.945535  0.043181  0.415853
H    -3.147928  0.563257  3.779171
H    -3.388452  -0.601453  2.482573
H    -4.773653  2.143803  2.349890
H    -5.340325  0.889662  3.418287
H    -5.524154  -0.707008  1.445073
H    -5.185509  0.642415  0.349968
H    -7.226134  1.863864  1.197219
H    -7.502599  0.585513  2.399208
H    -8.932465  0.335110  0.495496
H    -7.920127  -0.975165  0.576575
H    -7.660455  0.207977  -0.560744
N    -2.143889  3.574997  2.001349
C    -3.057212  3.850822  0.890111
H    -1.774765  4.402417  2.480553
H    -2.546455  4.502920  0.170100
H    -3.943550  4.377026  1.266157
H    -3.360683  2.929147  0.388802
Cd    0.947095  1.494265  3.893929
