35
Energy: -172331.798637 eV PBE+vdW (tier 2 basis)
C    0.002017  0.271268  0.055603
C    -0.154716  -0.286368  1.426352
O    0.874390  -0.695826  2.093545
H    -0.925585  0.584943  -0.421773
H    0.668114  1.150947  0.122633
H    0.472844  -0.482358  -0.590024
N    -1.308957  -0.404048  2.101555
C    -2.709961  -0.469323  1.639709
C    -2.855382  -1.679705  0.658445
O    -2.027342  -1.783921  -0.246252
H    -1.163890  -0.761184  3.048118
H    -3.267920  -0.669774  2.562237
C    -3.236152  0.834931  0.981284
C    -4.774108  0.981725  0.890090
C    -5.462492  1.628281  2.111927
C    -6.926187  1.941150  1.787985
N    -7.622947  2.712933  2.900887
H    -2.843612  0.898886  -0.040122
H    -2.809885  1.681835  1.538217
H    -5.246470  0.016990  0.649756
H    -4.967324  1.617939  0.014434
H    -4.936240  2.562936  2.364654
H    -5.404367  0.976707  2.998989
H    -7.523576  1.034736  1.629105
H    -7.014670  2.568542  0.891940
H    -8.604006  2.913835  2.651413
H    -7.167052  3.619415  3.083498
H    -7.637822  2.191181  3.789382
N    -3.875276  -2.558043  0.792742
C    -4.783143  -2.783171  1.908188
H    -3.851895  -3.291840  0.079035
H    -4.385106  -3.545159  2.596660
H    -5.732240  -3.162991  1.507849
H    -4.981119  -1.860345  2.460440
Cd    2.943849  -0.246493  1.785364
