35
Energy: -172332.448491 eV PBE+vdW (tier 2 basis)
C    0.500051  -0.533593  -0.255380
C    0.276872  0.696862  0.538493
O    0.992281  1.733491  0.291589
H    1.571353  -0.786550  -0.169130
H    0.332333  -0.343850  -1.325654
H    -0.090926  -1.385933  0.091702
N    -0.630329  0.757096  1.550274
C    -2.038713  0.358039  1.479435
C    -2.821525  1.550190  0.833393
O    -2.314015  2.729258  0.722842
H    -0.454828  1.511277  2.218634
H    -2.114600  -0.501884  0.797192
C    -2.597161  -0.021982  2.872578
C    -1.980751  -1.302655  3.466642
C    -2.600193  -1.667528  4.833855
C    -2.011671  -2.966951  5.387537
N    -2.620485  -3.341065  6.732117
H    -3.685848  -0.148980  2.779877
H    -2.456963  0.831583  3.556342
H    -0.892773  -1.178579  3.578147
H    -2.131634  -2.137473  2.763794
H    -3.691385  -1.774592  4.725211
H    -2.427485  -0.847006  5.548493
H    -0.930224  -2.894218  5.557271
H    -2.200047  -3.821088  4.725256
H    -2.454362  -2.617454  7.447460
H    -2.215227  -4.219715  7.090751
H    -3.639860  -3.482291  6.669597
N    -4.055317  1.333045  0.430700
C    -4.958283  2.313332  -0.189057
H    -4.446145  0.404362  0.588282
H    -5.457685  1.838018  -1.040791
H    -4.388294  3.183399  -0.520285
H    -5.715081  2.627723  0.541891
Cd    -0.330667  3.428301  0.313552
