35
Energy: -172332.105655 eV PBE+vdW (tier 2 basis)
C    -0.515840  0.995937  2.076549
C    -0.716797  -0.418838  2.496014
O    0.250893  -1.104239  3.003355
H    0.337659  1.059586  1.390400
H    -1.374935  1.451000  1.582793
H    -0.290634  1.583084  2.985262
N    -1.888170  -1.081037  2.464914
C    -3.011294  -0.943582  1.525256
C    -2.460068  -0.957505  0.055053
O    -1.344947  -0.507172  -0.186921
H    -1.809491  -2.009480  2.884932
H    -3.590769  -1.866108  1.674041
C    -3.967665  0.258474  1.749268
C    -4.864191  0.109101  2.993849
C    -5.937951  1.216148  3.071646
C    -6.870445  1.009930  4.266528
N    -7.963628  2.069190  4.324126
H    -4.600295  0.329462  0.851675
H    -3.403565  1.199781  1.787389
H    -4.248181  0.120966  3.906051
H    -5.362365  -0.873187  2.965963
H    -6.528186  1.215079  2.140929
H    -5.452929  2.202805  3.142085
H    -6.340199  1.071748  5.224960
H    -7.390982  0.045009  4.222521
H    -7.576520  3.020431  4.412791
H    -8.585674  1.917709  5.133186
H    -8.556236  2.057005  3.480535
N    -3.280255  -1.468816  -0.894270
C    -2.906377  -1.565219  -2.295979
H    -4.133514  -1.943491  -0.603757
H    -3.809235  -1.465905  -2.911631
H    -2.456448  -2.549313  -2.515215
H    -2.171802  -0.788409  -2.532088
Cd    2.153410  -0.483408  3.777061
