35
Energy: -172331.852633 eV PBE+vdW (tier 2 basis)
C    0.688355  -1.129387  0.706186
C    0.202428  -0.027855  1.588925
O    0.928004  0.985087  1.896149
H    1.600017  -1.571213  1.142331
H    0.941225  -0.720379  -0.283697
H    -0.038203  -1.937811  0.569215
N    -1.056682  -0.078042  2.054301
C    -1.744129  0.960597  2.838088
C    -2.708636  0.284522  3.867024
O    -3.883676  0.635093  3.970657
H    -1.631079  -0.825851  1.663406
H    -0.963064  1.487726  3.408331
C    -2.495571  2.001360  1.983247
C    -3.631224  1.452050  1.105030
C    -4.708001  2.485867  0.719777
C    -5.504415  3.135644  1.849568
N    -6.272124  2.127027  2.693976
H    -1.752460  2.529227  1.367792
H    -2.867812  2.746163  2.700317
H    -4.116500  0.592440  1.597992
H    -3.219363  1.046508  0.168871
H    -5.403500  2.018299  0.006362
H    -4.245895  3.318472  0.167101
H    -6.248912  3.828073  1.439353
H    -4.881419  3.697674  2.555854
H    -6.865621  2.605388  3.387215
H    -5.622631  1.506458  3.208933
H    -6.894311  1.543761  2.116121
N    -2.173706  -0.680607  4.663580
C    -2.905048  -1.330474  5.735525
H    -1.166337  -0.829232  4.631662
H    -2.492283  -2.335295  5.891078
H    -3.970608  -1.364781  5.485459
H    -2.792054  -0.772408  6.683133
Cd    3.085729  1.195332  1.698083
