35
Energy: -172332.012541 eV PBE+vdW (tier 2 basis)
C    -0.741049  -1.756210  0.724989
C    -0.102699  -0.600372  1.414530
O    1.043771  -0.710158  2.009477
H    -1.745707  -1.551884  0.345838
H    -0.796229  -2.608711  1.416115
H    -0.116128  -2.056685  -0.131456
N    -0.664056  0.599024  1.504366
C    -1.972848  1.065701  1.041314
C    -1.744407  2.583574  0.755753
O    -0.932025  3.202620  1.438992
H    -0.108419  1.344972  1.948686
H    -2.231178  0.537691  0.114138
C    -3.133854  0.868023  2.060159
C    -2.989382  1.556064  3.428358
C    -4.084368  1.129311  4.436414
C    -5.435380  1.849263  4.368957
N    -5.482343  3.096570  5.248675
H    -3.237583  -0.220045  2.202975
H    -4.056958  1.185501  1.550121
H    -2.965534  2.651698  3.310379
H    -2.018198  1.292444  3.870697
H    -3.685404  1.208441  5.459654
H    -4.296064  0.057678  4.310909
H    -6.244565  1.209964  4.740336
H    -5.704824  2.180632  3.358582
H    -6.399217  3.564894  5.182283
H    -4.764976  3.790185  4.995498
H    -5.339536  2.856702  6.241445
N    -2.484779  3.137665  -0.233942
C    -2.291339  4.504756  -0.692050
H    -3.071748  2.531359  -0.805325
H    -1.877010  5.106256  0.123611
H    -3.253117  4.900896  -1.041779
H    -1.587183  4.539441  -1.541113
Cd    2.731330  -1.969052  1.663642
