35
Energy: -172332.050747 eV PBE+vdW (tier 2 basis)
C    0.483856  0.310966  0.209142
C    0.103358  0.649322  1.609024
O    0.994132  0.918865  2.511327
H    1.217516  -0.507073  0.217836
H    0.961619  1.187252  -0.257987
H    -0.356770  0.015291  -0.424016
N    -1.151032  0.664084  2.042947
C    -2.394877  0.333259  1.343807
C    -3.466624  1.218603  2.053974
O    -3.331554  1.475181  3.248109
H    -1.307469  0.971532  3.014150
H    -2.298032  0.623591  0.289595
C    -2.798117  -1.169755  1.405766
C    -3.000828  -1.782101  2.802103
C    -3.205172  -3.316525  2.762676
C    -4.620550  -3.839441  2.494494
N    -5.429282  -4.030051  3.775841
H    -2.009493  -1.723856  0.870896
H    -3.703078  -1.278563  0.787363
H    -3.833549  -1.285391  3.326261
H    -2.112927  -1.585922  3.419686
H    -2.831190  -3.756320  3.700486
H    -2.559854  -3.749694  1.984710
H    -4.595880  -4.829453  2.024697
H    -5.217463  -3.177674  1.854703
H    -4.984978  -4.724078  4.396048
H    -6.378813  -4.376790  3.569552
H    -5.531915  -3.159295  4.315506
N    -4.509117  1.639801  1.298621
C    -5.516112  2.567333  1.790689
H    -4.496513  1.449537  0.297501
H    -5.245517  3.608690  1.544951
H    -5.590346  2.478546  2.879503
H    -6.471717  2.347338  1.297941
Cd    2.950458  1.762777  2.394308
