35
Energy: -172331.901812 eV PBE+vdW (tier 2 basis)
C    0.043019  0.450494  -0.557476
C    -0.297671  0.100613  0.853715
O    0.605870  -0.188283  1.738663
H    -0.837535  0.675743  -1.168660
H    0.569146  -0.394999  -1.027548
H    0.702629  1.332203  -0.574268
N    -1.564637  0.067840  1.232921
C    -2.070683  -0.386869  2.539326
C    -3.331997  -1.212501  2.199930
O    -3.994326  -0.874591  1.211321
H    -2.296429  0.176709  0.521514
H    -1.291117  -1.017994  2.987405
C    -2.401910  0.762179  3.537387
C    -3.718958  1.556502  3.404300
C    -3.849571  2.499277  2.192156
C    -4.786470  3.693914  2.385437
N    -6.262079  3.322008  2.506699
H    -1.545088  1.452821  3.531133
H    -2.399374  0.299844  4.535107
H    -3.776889  2.154712  4.327579
H    -4.572523  0.860904  3.446503
H    -4.133498  1.946199  1.282881
H    -2.873083  2.960443  1.975626
H    -4.728613  4.380508  1.532537
H    -4.546613  4.258170  3.295774
H    -6.452678  2.730764  3.327617
H    -6.841567  4.169930  2.607580
H    -6.602651  2.821845  1.672636
N    -3.668877  -2.231798  3.019387
C    -4.818128  -3.095603  2.809713
H    -3.034310  -2.472053  3.780404
H    -4.490749  -4.079797  2.431296
H    -5.493073  -2.641342  2.079390
H    -5.322574  -3.268805  3.771044
Cd    2.734347  -0.197248  1.453143
