35
Energy: -172333.015151 eV PBE+vdW (tier 2 basis)
C    0.860767  2.702326  0.804026
C    0.627788  1.778131  1.952935
O    1.545043  0.916655  2.190780
H    1.092367  2.104033  -0.089430
H    1.754783  3.310161  1.007667
H    0.011298  3.360264  0.590835
N    -0.518128  1.903794  2.645229
C    -1.175006  1.060448  3.682904
C    -0.519831  1.188440  5.079258
O    0.570691  0.589060  5.408895
H    -1.084736  2.689887  2.334699
H    -2.168011  1.519466  3.781987
C    -1.379249  -0.418835  3.267310
C    -2.406726  -0.668604  2.135797
C    -3.880490  -0.619716  2.585505
C    -4.928736  -0.857857  1.492462
N    -5.108693  -2.323910  1.107673
H    -1.677044  -0.975581  4.169156
H    -0.420365  -0.853344  2.948800
H    -2.169745  -1.660995  1.723010
H    -2.241024  0.040961  1.309858
H    -4.125929  0.375503  2.987597
H    -4.051730  -1.317187  3.421942
H    -4.694478  -0.327621  0.560717
H    -5.918131  -0.528118  1.830534
H    -5.398049  -2.898217  1.913764
H    -4.256099  -2.745487  0.713826
H    -5.847057  -2.420885  0.392485
N    -1.155444  1.895706  5.991265
C    -0.716852  2.109954  7.377649
H    -2.048938  2.312109  5.733892
H    -0.899349  3.157765  7.640998
H    0.345310  1.874303  7.470690
H    -1.297640  1.464227  8.049837
Cd    2.075428  0.062166  4.038450
