35
Energy: -172332.276812 eV PBE+vdW (tier 2 basis)
C    -1.295604  0.788190  0.192113
C    -0.867208  0.361970  1.547410
O    0.237065  0.844935  1.993547
H    -2.363319  0.654439  0.012748
H    -0.706393  0.261927  -0.575848
H    -1.031757  1.851820  0.085074
N    -1.593916  -0.440542  2.370185
C    -2.181643  -1.774748  2.133315
C    -1.019040  -2.799649  2.301351
O    0.209426  -2.448930  2.125064
H    -1.323409  -0.315235  3.348657
H    -2.876680  -1.931330  2.972814
C    -2.966345  -1.972494  0.816534
C    -4.330998  -1.250315  0.775197
C    -5.013155  -1.416312  -0.598373
C    -6.292420  -0.610387  -0.842821
N    -7.554817  -1.232366  -0.251128
H    -3.130166  -3.052677  0.696460
H    -2.342185  -1.686847  -0.041499
H    -4.201827  -0.178485  0.992753
H    -4.965283  -1.647880  1.584475
H    -5.192119  -2.481183  -0.820481
H    -4.318387  -1.081178  -1.384124
H    -6.492719  -0.532573  -1.917944
H    -6.237016  0.406591  -0.434391
H    -7.730236  -2.173237  -0.634578
H    -7.522106  -1.312664  0.774297
H    -8.381600  -0.658191  -0.480401
N    -1.262986  -4.059796  2.601596
C    -2.536374  -4.757076  2.799814
H    -0.422879  -4.640880  2.678201
H    -3.340323  -4.053706  3.034116
H    -2.418332  -5.449441  3.641431
H    -2.793324  -5.339286  1.904614
Cd    1.441719  -0.787293  2.695844
