35
Energy: -172332.122329 eV PBE+vdW (tier 2 basis)
C    -0.044141  -0.450340  0.538753
C    -0.128529  0.576718  1.613087
O    0.883706  0.854918  2.375791
H    0.666763  -0.111753  -0.231712
H    -0.998109  -0.653047  0.045129
H    0.338431  -1.389900  0.960681
N    -1.232889  1.252626  1.898828
C    -2.606459  1.111070  1.398238
C    -3.167923  2.564548  1.516718
O    -2.868974  3.207122  2.523274
H    -1.160130  1.961762  2.643554
H    -2.583409  0.762608  0.359722
C    -3.430935  0.151481  2.303800
C    -4.921488  0.016308  1.943495
C    -5.663996  -0.905009  2.935911
C    -7.151199  -1.013897  2.597111
N    -7.894818  -1.902423  3.585651
H    -3.328816  0.511030  3.339113
H    -2.943125  -0.834275  2.254998
H    -5.029206  -0.383567  0.922981
H    -5.402274  1.006776  1.950946
H    -5.545400  -0.507852  3.956776
H    -5.205742  -1.906885  2.923766
H    -7.321558  -1.456751  1.607799
H    -7.655919  -0.040245  2.631931
H    -7.834959  -1.540246  4.549061
H    -7.523124  -2.863879  3.595340
H    -8.896537  -1.966827  3.347440
N    -3.963338  3.081646  0.548701
C    -4.266694  2.571787  -0.777486
H    -4.225829  4.053301  0.737932
H    -5.246753  2.960426  -1.081979
H    -4.296708  1.478257  -0.791293
H    -3.530899  2.925876  -1.518970
Cd    2.991928  0.766221  2.115629
