35
Energy: -172332.839782 eV PBE+vdW (tier 2 basis)
C    -0.759541  -0.980178  -0.342639
C    -0.543485  -0.449210  1.033459
O    0.556925  0.163433  1.257491
H    -1.751379  -1.423142  -0.485186
H    0.013937  -1.730255  -0.564704
H    -0.615997  -0.164216  -1.066014
N    -1.508497  -0.626839  1.954202
C    -1.593779  -0.048721  3.307312
C    -0.681264  -0.805936  4.314042
O    0.460763  -0.280531  4.624534
H    -2.319512  -1.155044  1.636920
H    -1.148101  0.958116  3.259682
C    -3.069636  0.103851  3.751094
C    -3.858751  1.274960  3.111939
C    -3.736179  2.614036  3.863936
C    -4.541884  3.784849  3.290292
N    -6.031494  3.734328  3.620042
H    -3.084121  0.205339  4.846485
H    -3.599444  -0.833628  3.536154
H    -4.910721  0.952807  3.085709
H    -3.567471  1.407543  2.057691
H    -2.691443  2.961395  3.859761
H    -3.987917  2.479516  4.928848
H    -4.477023  3.846635  2.196603
H    -4.189599  4.736133  3.705970
H    -6.515516  4.560766  3.234581
H    -6.198230  3.739183  4.637674
H    -6.502729  2.905692  3.231074
N    -0.994489  -1.939225  4.907121
C    -2.197803  -2.778392  4.837030
H    -0.266496  -2.271293  5.547418
H    -2.956178  -2.435373  5.552167
H    -1.902268  -3.797087  5.108692
H    -2.606993  -2.799093  3.823168
Cd    1.628085  0.518627  3.050916
