35
Energy: -172332.091248 eV PBE+vdW (tier 2 basis)
C    -0.810476  1.048700  0.318421
C    -0.454322  0.421357  1.620104
O    0.777687  0.222878  1.971358
H    -0.338568  0.485646  -0.498947
H    -0.416116  2.076532  0.290585
H    -1.886243  1.099661  0.132103
N    -1.351013  -0.013715  2.497402
C    -2.809515  -0.171071  2.401799
C    -3.283981  0.036806  3.878815
O    -2.668581  -0.548422  4.766345
H    -0.972468  -0.407926  3.370408
H    -3.221440  0.596948  1.735011
C    -3.157901  -1.614375  1.934446
C    -4.636539  -2.056763  1.973823
C    -5.514382  -1.559931  0.811867
C    -6.971203  -2.030733  0.836654
N    -7.147776  -3.506748  0.490133
H    -2.584541  -2.294185  2.580849
H    -2.755155  -1.732471  0.916325
H    -5.093668  -1.780211  2.936910
H    -4.604898  -3.157665  1.976572
H    -5.058094  -1.821921  -0.157100
H    -5.576062  -0.460462  0.813187
H    -7.570950  -1.486330  0.097835
H    -7.437353  -1.897503  1.821172
H    -8.147169  -3.763845  0.494792
H    -6.675486  -4.131760  1.158331
H    -6.786354  -3.724607  -0.450349
N    -4.351225  0.837267  4.099480
C    -4.827866  1.153897  5.440713
H    -4.726448  1.378434  3.323598
H    -5.907127  1.342053  5.400329
H    -4.336615  2.062515  5.827045
H    -4.591653  0.322437  6.113528
Cd    2.631077  1.165048  1.511916
