35
Energy: -172332.279824 eV PBE+vdW (tier 2 basis)
C    -0.277936  0.740742  0.771957
C    -0.428368  0.317045  2.182769
O    0.521698  0.590003  3.002431
H    0.717471  0.483203  0.388998
H    -0.325178  1.846277  0.770573
H    -1.069205  0.374716  0.114781
N    -1.541895  -0.293130  2.676775
C    -2.248844  -1.493990  2.175611
C    -1.258879  -2.689121  2.308019
O    -0.342808  -2.709787  3.213179
H    -1.648598  -0.156775  3.683240
H    -3.004981  -1.687278  2.954780
C    -3.010091  -1.314970  0.835238
C    -4.381580  -2.030161  0.764155
C    -5.070768  -1.779030  -0.593420
C    -6.383587  -2.523128  -0.858004
N    -7.617629  -1.861282  -0.249764
H    -2.378505  -1.612083  -0.016250
H    -3.188119  -0.237061  0.720959
H    -5.005581  -1.670689  1.598592
H    -4.275260  -3.117427  0.915913
H    -4.396213  -2.101595  -1.401332
H    -5.212397  -0.698486  -0.760278
H    -6.373347  -3.552342  -0.477591
H    -6.586403  -2.563922  -1.934640
H    -8.468950  -2.391875  -0.493828
H    -7.750575  -0.903820  -0.608618
H    -7.582989  -1.807991  0.777418
N    -1.403701  -3.746923  1.539481
C    -0.588937  -4.970586  1.627089
H    -2.163788  -3.742531  0.864370
H    -0.799374  -5.586219  0.748856
H    -0.843095  -5.528015  2.537489
H    0.474659  -4.710831  1.646513
Cd    0.865984  -1.201559  4.134798
