35
Energy: -172331.708142 eV PBE+vdW (tier 2 basis)
C    -0.477801  0.126655  -0.217499
C    -0.430300  -0.206514  1.234416
O    0.448271  -0.883298  1.770413
H    -0.989524  1.076302  -0.419441
H    -1.014993  -0.671457  -0.755478
H    0.543141  0.152539  -0.614234
N    -1.476888  0.264295  2.046327
C    -1.484301  0.084413  3.463215
C    -1.917906  -1.426383  3.852339
O    -3.070435  -1.570839  4.372683
H    -2.297576  0.673222  1.597430
H    -0.425461  0.073060  3.783905
C    -2.310023  1.143900  4.200718
C    -1.738503  2.583292  4.182125
C    -0.477000  2.801133  5.045226
C    -0.283682  4.209544  5.612001
N    0.098848  5.266219  4.578557
H    -2.427582  0.819328  5.244624
H    -3.325678  1.165343  3.778348
H    -2.550830  3.219250  4.566114
H    -1.567696  2.906429  3.143234
H    0.438732  2.481089  4.522642
H    -0.536918  2.165767  5.943198
H    0.527002  4.220835  6.350274
H    -1.193459  4.583955  6.098445
H    0.233586  6.182785  5.033791
H    -0.623323  5.395514  3.856475
H    0.983670  5.035956  4.103145
N    -1.014796  -2.341708  3.603714
C    -1.137833  -3.784160  3.825975
H    -0.173957  -1.992066  3.108239
H    -1.946872  -4.220705  3.219686
H    -1.261075  -4.010991  4.894636
H    -0.203751  -4.255079  3.500184
Cd    -4.260323  -3.291171  4.966850
