35
Energy: -172332.219916 eV PBE+vdW (tier 2 basis)
C    1.122856  0.177318  1.435102
C    0.224140  -0.629959  2.296196
O    0.263093  -1.906398  2.150561
H    0.706908  0.251286  0.417156
H    2.063013  -0.385064  1.324698
H    1.332547  1.171238  1.832522
N    -0.578083  -0.124003  3.273059
C    -1.596554  0.944916  3.223672
C    -2.887607  0.292174  2.641197
O    -2.826193  -0.762208  1.901656
H    -0.813195  -0.837906  3.966730
H    -1.803400  1.190922  4.276614
C    -1.201809  2.237745  2.473464
C    -0.121082  3.108664  3.163006
C    -0.663621  4.052452  4.254426
C    0.376863  4.900290  4.994889
N    0.876673  6.107114  4.205171
H    -2.115548  2.834011  2.341729
H    -0.890126  1.983647  1.452610
H    0.362824  3.691555  2.364109
H    0.665575  2.470353  3.594653
H    -1.156230  3.469362  5.048197
H    -1.449621  4.706650  3.842445
H    1.271153  4.325314  5.266773
H    -0.049728  5.317393  5.914661
H    1.552639  6.650329  4.765528
H    0.108242  6.749870  3.960882
H    1.355082  5.847642  3.331339
N    -4.076799  0.817464  2.861261
C    -4.459301  2.027786  3.592731
H    -4.845583  0.306359  2.417181
H    -3.676526  2.328960  4.294194
H    -5.373358  1.810557  4.157534
H    -4.671176  2.844665  2.889613
Cd    -1.748024  -2.617445  1.918749
