35
Energy: -172331.930973 eV PBE+vdW (tier 2 basis)
C    0.600948  -0.649702  1.251360
C    0.328463  0.782060  1.550183
O    1.249197  1.670130  1.659028
H    1.428421  -0.734556  0.534392
H    -0.263860  -1.183721  0.845316
H    0.924514  -1.155602  2.175844
N    -0.913612  1.232374  1.796222
C    -2.115268  0.444071  2.102714
C    -2.947861  0.117188  0.806157
O    -3.453294  -1.000734  0.760363
H    -0.962484  2.238129  1.987568
H    -1.804611  -0.538280  2.473047
C    -2.970394  1.182256  3.159244
C    -4.377453  0.624180  3.453058
C    -4.449008  -0.729949  4.188318
C    -5.900562  -1.027660  4.572577
N    -6.046342  -2.328543  5.350114
H    -3.101664  2.225127  2.826780
H    -2.380949  1.222645  4.088277
H    -4.964571  0.570985  2.523955
H    -4.871564  1.388544  4.070828
H    -3.825709  -0.690856  5.096374
H    -4.061163  -1.539078  3.549603
H    -6.547522  -1.129530  3.692284
H    -6.319782  -0.245686  5.218297
H    -5.511171  -2.312782  6.230840
H    -5.725207  -3.143037  4.806761
H    -7.032870  -2.500029  5.599047
N    -3.086429  1.059795  -0.143972
C    -3.946667  0.881103  -1.313570
H    -2.741122  1.997628  0.045591
H    -3.559846  1.502285  -2.129062
H    -4.980475  1.191421  -1.099344
H    -3.949911  -0.177382  -1.596641
Cd    3.231842  1.888253  0.800334
