35
Energy: -172332.780735 eV PBE+vdW (tier 2 basis)
C    0.122666  -0.140000  -0.371745
C    -0.015590  -0.045217  1.108868
O    1.055040  -0.155246  1.801339
H    0.566247  -1.111211  -0.634371
H    0.834427  0.629127  -0.708567
H    -0.826467  -0.009523  -0.903430
N    -1.237438  0.162501  1.633269
C    -1.587450  0.522677  3.020244
C    -1.594833  -0.726473  3.942917
O    -0.570834  -0.928987  4.708120
H    -1.992017  0.224992  0.951226
H    -0.762368  1.137750  3.415190
C    -2.862307  1.403388  2.998043
C    -3.388400  1.947740  4.347125
C    -2.676495  3.217140  4.855537
C    -3.242450  3.836387  6.138467
N    -4.517045  4.649215  5.926441
H    -3.669825  0.847266  2.505504
H    -2.631652  2.247567  2.329889
H    -3.358809  1.168013  5.125142
H    -4.456924  2.156509  4.184860
H    -2.641140  3.980754  4.061118
H    -1.623969  2.996922  5.089928
H    -2.525109  4.540082  6.576623
H    -3.487037  3.083400  6.898390
H    -4.835479  5.061411  6.817912
H    -5.299254  4.086779  5.563390
H    -4.366983  5.432706  5.272856
N    -2.580028  -1.597908  4.019818
C    -3.873581  -1.664856  3.326373
H    -2.395914  -2.356855  4.682865
H    -4.210693  -2.705817  3.362757
H    -3.775285  -1.375183  2.276370
H    -4.623565  -1.042522  3.830567
Cd    1.345522  -0.642276  3.835524
