35
Energy: -172332.403853 eV PBE+vdW (tier 2 basis)
C    -0.964421  -0.467156  -0.702579
C    -0.458510  -0.816494  0.648337
O    0.529174  -1.631316  0.727294
H    -1.401490  0.532971  -0.748462
H    -1.713107  -1.212035  -1.023444
H    -0.133209  -0.553953  -1.416058
N    -0.967130  -0.304736  1.801750
C    -2.378197  -0.245682  2.245161
C    -2.850874  -1.717787  2.476585
O    -2.014066  -2.666334  2.725058
H    -0.310320  -0.368617  2.580963
H    -2.316643  0.178711  3.261493
C    -3.317901  0.664907  1.429183
C    -2.898231  2.151362  1.396989
C    -3.912530  2.998124  0.599854
C    -3.546638  4.461767  0.337231
N    -3.834917  5.402803  1.504384
H    -3.448044  0.276853  0.409073
H    -4.312303  0.614628  1.899450
H    -1.900588  2.251730  0.942286
H    -2.802440  2.517092  2.432445
H    -4.913702  2.940923  1.058138
H    -4.036661  2.556879  -0.401155
H    -2.485377  4.597308  0.093650
H    -4.137714  4.856820  -0.497407
H    -4.833450  5.394082  1.761094
H    -3.292977  5.175306  2.349064
H    -3.600828  6.375618  1.250582
N    -4.134605  -1.997045  2.518981
C    -4.697692  -3.322477  2.831509
H    -4.795774  -1.237601  2.376801
H    -4.279157  -4.077135  2.156332
H    -5.781042  -3.271788  2.697114
H    -4.467828  -3.592949  3.869505
Cd    0.014774  -3.092115  2.221523
