35
Energy: -172331.690626 eV PBE+vdW (tier 2 basis)
C    -0.379827  -0.236302  -0.136358
C    -0.283125  0.105950  1.317882
O    0.764496  0.474240  1.869334
H    -0.905053  -1.185042  -0.309433
H    0.622332  -0.274116  -0.571484
H    -0.951794  0.554446  -0.650440
N    -1.453486  0.006103  2.053932
C    -1.599287  0.104187  3.485747
C    -1.247692  1.519880  4.069071
O    -2.190095  1.959383  4.821253
H    -2.286699  -0.285438  1.542292
H    -2.680629  0.041583  3.665207
C    -1.020814  -1.083492  4.359480
C    0.360944  -1.718530  4.126951
C    1.600439  -1.018905  4.720806
C    2.704708  -1.956656  5.217405
N    3.417838  -2.732247  4.112617
H    -1.765186  -1.877660  4.204470
H    -1.132053  -0.775780  5.410602
H    0.504109  -1.939008  3.059022
H    0.257836  -2.706143  4.610753
H    1.312215  -0.452605  5.620184
H    2.021610  -0.284323  4.019244
H    2.317035  -2.715223  5.909513
H    3.492345  -1.395190  5.733770
H    4.166715  -3.320719  4.510667
H    2.785066  -3.362910  3.600672
H    3.861341  -2.105610  3.425214
N    -0.120087  2.118433  3.780016
C    0.281856  3.452065  4.215434
H    0.465671  1.584962  3.092128
H    -0.435351  4.219257  3.876385
H    0.429059  3.492603  5.304559
H    1.239928  3.696001  3.743058
Cd    -2.613724  3.820772  5.828466
