35
Energy: -172332.461765 eV PBE+vdW (tier 2 basis)
C    -1.454094  2.279575  -1.355756
C    -0.351278  1.830100  -0.475367
O    0.855230  2.139076  -0.784456
H    -1.225727  1.917625  -2.373707
H    -1.469085  3.376361  -1.434385
H    -2.432062  1.891441  -1.057282
N    -0.564295  1.063231  0.628099
C    -1.519104  1.333708  1.706958
C    -0.852096  2.387963  2.651543
O    0.412290  2.631339  2.625136
H    0.263422  0.548523  0.938477
H    -2.415676  1.791820  1.263611
C    -1.896113  0.030628  2.458431
C    -2.639782  -1.000541  1.584846
C    -2.765910  -2.398165  2.238352
C    -3.929521  -2.633203  3.213748
N    -5.136226  -3.290183  2.547258
H    -2.496585  0.302547  3.339067
H    -0.970967  -0.416275  2.859468
H    -2.088791  -1.130327  0.642400
H    -3.628314  -0.604386  1.300150
H    -1.839956  -2.626941  2.785064
H    -2.802375  -3.159435  1.443763
H    -4.305287  -1.712371  3.676524
H    -3.643058  -3.320743  4.017667
H    -5.518652  -2.731771  1.771195
H    -5.901538  -3.436502  3.224044
H    -4.893193  -4.217639  2.166460
N    -1.615099  3.007920  3.526844
C    -1.179270  4.016273  4.504070
H    -2.600503  2.748721  3.560752
H    -1.933200  4.809920  4.544905
H    -0.212791  4.426933  4.205195
H    -1.088402  3.553486  5.495765
Cd    1.840809  2.743247  1.028148
