35
Energy: -172331.998869 eV PBE+vdW (tier 2 basis)
C    -0.749829  0.597463  0.467266
C    -0.057389  0.075696  1.675673
O    1.175056  0.377314  1.919862
H    -1.785688  0.275608  0.363708
H    -0.207416  0.268093  -0.429613
H    -0.725285  1.700623  0.508433
N    -0.604445  -0.724262  2.604188
C    -1.777672  -1.620393  2.568717
C    -1.602388  -2.667394  1.419657
O    -1.409705  -2.263573  0.274261
H    0.042740  -0.917833  3.371541
H    -1.722430  -2.144596  3.533217
C    -3.157299  -0.911742  2.487485
C    -4.308455  -1.884052  2.815962
C    -5.739061  -1.310180  2.694858
C    -6.174697  -0.430673  3.867544
N    -7.659538  -0.098310  3.778889
H    -3.310257  -0.494005  1.483596
H    -3.128507  -0.070537  3.195326
H    -4.168947  -2.304943  3.824850
H    -4.263029  -2.736788  2.123635
H    -6.421214  -2.172397  2.631153
H    -5.845465  -0.759897  1.746621
H    -5.653534  0.533490  3.905978
H    -6.040654  -0.937069  4.831875
H    -8.240582  -0.950363  3.800075
H    -7.892299  0.405791  2.910293
H    -7.961918  0.494308  4.567035
N    -1.688942  -3.973650  1.751353
C    -1.521868  -5.049927  0.783509
H    -1.736443  -4.227506  2.736187
H    -0.471932  -5.384601  0.747428
H    -1.806051  -4.690311  -0.211189
H    -2.139113  -5.902403  1.091351
Cd    2.386018  1.990256  1.196862
