35
Energy: -172331.966688 eV PBE+vdW (tier 2 basis)
C    -1.658031  -0.793251  4.262682
C    -0.439061  -0.967475  3.423742
O    0.742647  -1.056037  3.950047
H    -1.503215  0.036322  4.965788
H    -1.824259  -1.709506  4.852387
H    -2.569508  -0.597997  3.691568
N    -0.464399  -1.009279  2.098156
C    -1.590221  -0.875082  1.172934
C    -1.166071  -1.745288  -0.053100
O    0.028548  -1.888213  -0.301356
H    0.424431  -1.210808  1.615156
H    -2.489026  -1.294061  1.644197
C    -1.907770  0.578704  0.717525
C    -0.812991  1.319240  -0.067237
C    -1.306421  2.693482  -0.571024
C    -0.238066  3.406264  -1.400690
N    -0.731188  4.748929  -1.924771
H    -2.184759  1.143859  1.622096
H    -2.827620  0.519846  0.114614
H    -0.490603  0.714895  -0.929454
H    0.079779  1.455892  0.562318
H    -1.594026  3.322909  0.286347
H    -2.212488  2.551944  -1.182153
H    0.053442  2.827272  -2.285959
H    0.666170  3.623678  -0.818631
H    -0.005080  5.218841  -2.487119
H    -0.986432  5.391444  -1.160149
H    -1.561284  4.645369  -2.527406
N    -2.164546  -2.280647  -0.796842
C    -1.922931  -3.199928  -1.896061
H    -3.126697  -2.173208  -0.477905
H    -0.924741  -3.019211  -2.308333
H    -2.707681  -3.062823  -2.651374
H    -1.972508  -4.247926  -1.551847
Cd    1.421124  -1.824939  5.822198
