35
Energy: -172332.975235 eV PBE+vdW (tier 2 basis)
C    0.176006  0.542976  -0.096515
C    0.263097  0.280382  1.367799
O    1.334632  0.644499  1.962417
H    0.294506  1.623813  -0.267619
H    -0.769408  0.209870  -0.538928
H    1.018111  0.052335  -0.604940
N    -0.780670  -0.306115  1.985207
C    -0.994364  -0.444256  3.434608
C    -0.199484  -1.645297  4.016816
O    0.899418  -1.404486  4.651033
H    -1.566578  -0.537768  1.380534
H    -0.523176  0.430788  3.912860
C    -2.501164  -0.339632  3.783065
C    -2.778821  -0.383318  5.300098
C    -4.126264  0.223326  5.759303
C    -5.364098  -0.620184  5.448264
N    -6.608642  -0.020265  6.091145
H    -3.075515  -1.108243  3.247723
H    -2.823229  0.631949  3.376879
H    -2.000850  0.194686  5.821301
H    -2.688462  -1.412557  5.681227
H    -4.240662  1.231106  5.329206
H    -4.056290  0.357152  6.849976
H    -5.281499  -1.637183  5.852563
H    -5.585433  -0.687222  4.375913
H    -6.798589  0.934983  5.751829
H    -6.520008  0.034308  7.117679
H    -7.447618  -0.586223  5.889837
N    -0.575328  -2.904448  3.920853
C    -1.754174  -3.506009  3.289198
H    0.075053  -3.559872  4.364485
H    -2.595131  -3.552415  3.992683
H    -1.489982  -4.529411  3.002606
H    -2.039255  -2.963008  2.384150
Cd    2.159869  0.101739  3.835744
