35
Energy: -172331.784121 eV PBE+vdW (tier 2 basis)
C    1.336739  -0.172155  -0.027739
C    0.797867  0.170189  1.328726
O    1.503237  0.643975  2.227500
H    2.333185  -0.615940  0.085912
H    1.471364  0.770493  -0.582467
H    0.687341  -0.835287  -0.608418
N    -0.554113  -0.053338  1.548765
C    -1.227164  0.002668  2.830337
C    -1.333534  1.471489  3.383455
O    -2.532896  1.823235  3.667301
H    -1.091427  -0.411260  0.761772
H    -2.265792  -0.301695  2.644671
C    -0.625558  -0.900511  3.958473
C    -0.634381  -2.420987  3.703058
C    -2.012945  -3.114445  3.750578
C    -2.025541  -4.547455  4.288884
N    -1.362899  -5.577475  3.377638
H    -1.183786  -0.681845  4.881383
H    0.410376  -0.580012  4.131456
H    0.002335  -2.830009  4.505101
H    -0.108208  -2.642935  2.761686
H    -2.522402  -3.078603  2.774501
H    -2.673270  -2.571256  4.445106
H    -3.054469  -4.900763  4.426138
H    -1.506195  -4.625383  5.252590
H    -1.424762  -6.519658  3.794933
H    -0.363230  -5.385696  3.222876
H    -1.821317  -5.628585  2.456114
N    -0.244376  2.186258  3.535356
C    -0.171094  3.549712  4.042294
H    0.627300  1.709764  3.192846
H    0.878241  3.870303  4.025660
H    -0.496897  3.609291  5.094496
H    -0.716919  4.257100  3.393258
Cd    -3.320716  3.690040  4.425610
