35
Energy: -172332.812645 eV PBE+vdW (tier 2 basis)
C    -1.066108  -1.193008  -0.106493
C    -1.411829  -0.264478  1.011758
O    -1.501328  0.979228  0.711213
H    -0.179889  -0.805504  -0.629042
H    -1.884913  -1.186037  -0.841793
H    -0.876426  -2.221682  0.218521
N    -1.595950  -0.792981  2.231236
C    -1.749726  -0.266349  3.622774
C    -3.069197  0.482400  3.915016
O    -3.356709  1.661205  3.478007
H    -1.511780  -1.807922  2.221262
H    -1.841460  -1.200973  4.191289
C    -0.476145  0.392717  4.234234
C    0.068598  1.729435  3.704321
C    1.216201  2.327691  4.561163
C    2.547241  1.574368  4.479330
N    3.633902  2.292942  5.268681
H    0.301442  -0.382755  4.164338
H    -0.697193  0.497121  5.308851
H    -0.728468  2.490900  3.730100
H    0.402909  1.632210  2.660263
H    0.886154  2.390525  5.610344
H    1.373404  3.362802  4.221127
H    2.920672  1.504688  3.449753
H    2.497992  0.562803  4.900005
H    3.798380  3.249078  4.917941
H    3.398440  2.372365  6.269813
H    4.533696  1.790844  5.209019
N    -3.907035  -0.101189  4.749603
C    -5.187524  0.445259  5.216297
H    -3.641098  -1.004431  5.140413
H    -5.090840  0.753906  6.265895
H    -5.946904  -0.342468  5.146587
H    -5.470760  1.303799  4.604638
Cd    -2.742780  2.399695  1.616861
