35
Energy: -172331.285080 eV PBE+vdW (tier 2 basis)
C    -1.674396  -0.476124  -1.682284
C    -0.494312  -0.668836  -0.799009
O    0.653990  -1.010820  -1.272216
H    -2.607473  -0.290021  -1.149971
H    -1.805186  -1.382013  -2.295034
H    -1.483421  0.359096  -2.372316
N    -0.481493  -0.481888  0.532988
C    -1.309880  0.281932  1.491032
C    -1.884116  -0.642866  2.645872
O    -1.824863  -0.110655  3.756053
H    0.428532  -0.730894  0.932683
H    -0.570276  0.883562  2.035411
C    -2.389498  1.250530  0.960858
C    -2.699972  2.430905  1.920508
C    -3.918583  2.279630  2.854785
C    -4.099812  3.563620  3.668607
N    -5.312081  3.504854  4.587458
H    -3.311735  0.720798  0.684314
H    -1.986179  1.692441  0.038019
H    -2.864245  3.314151  1.285608
H    -1.802622  2.660797  2.515766
H    -3.783128  1.426697  3.535886
H    -4.822282  2.089833  2.253278
H    -4.253170  4.440309  3.026431
H    -3.239062  3.761107  4.320043
H    -5.409387  4.379975  5.125417
H    -6.189123  3.373979  4.061861
H    -5.242504  2.736065  5.270410
N    -2.411111  -1.852536  2.428810
C    -2.675300  -2.560046  1.178117
H    -2.711260  -2.316618  3.287013
H    -3.389564  -3.360744  1.396565
H    -1.767007  -3.022337  0.771266
H    -3.142751  -1.903877  0.435596
Cd    1.334236  -2.071404  -3.031122
