35
Energy: -172332.364887 eV PBE+vdW (tier 2 basis)
C    0.370785  1.071526  0.415488
C    0.005415  0.576204  1.762693
O    0.786027  0.828914  2.748622
H    1.381196  0.686535  0.190877
H    0.470442  2.166588  0.415155
H    -0.313485  0.737384  -0.369505
N    -1.105703  -0.176710  1.987821
C    -2.474802  0.137324  1.569304
C    -3.036634  1.181500  2.589402
O    -2.487338  1.394506  3.734054
H    -1.061277  -0.730836  2.846752
H    -2.431530  0.614542  0.579031
C    -3.344756  -1.147402  1.529589
C    -2.890478  -2.210624  0.502220
C    -3.453327  -2.055358  -0.929734
C    -4.798424  -2.733189  -1.214934
N    -4.662565  -4.224054  -1.512879
H    -4.389945  -0.855133  1.349948
H    -3.339311  -1.585255  2.540217
H    -3.157108  -3.195629  0.914651
H    -1.792280  -2.222932  0.454672
H    -2.712012  -2.408154  -1.663290
H    -3.592082  -0.991768  -1.177196
H    -5.275268  -2.306354  -2.105061
H    -5.505686  -2.656224  -0.379257
H    -4.085694  -4.390183  -2.351706
H    -5.585321  -4.649054  -1.695142
H    -4.236475  -4.751304  -0.737432
N    -4.139143  1.830811  2.281532
C    -4.808509  2.827786  3.133296
H    -4.595902  1.604753  1.399598
H    -5.471486  3.426769  2.502733
H    -4.062500  3.474346  3.605805
H    -5.397686  2.324107  3.910912
Cd    -0.451945  1.399676  4.411501
