35
Energy: -172331.598948 eV PBE+vdW (tier 2 basis)
C    0.359996  -1.052419  2.321542
C    -0.757283  -1.075384  3.303308
O    -0.629108  -1.676347  4.440190
H    0.146701  -0.509019  1.401700
H    0.623452  -2.083203  2.048373
H    1.231699  -0.581342  2.810063
N    -1.955847  -0.492057  3.142141
C    -2.698648  -0.089633  1.931033
C    -2.889568  -1.345397  1.018686
O    -1.893361  -2.020574  0.758557
H    -2.541838  -0.588101  3.974184
H    -3.670082  0.226597  2.330429
C    -2.080353  1.090984  1.133802
C    -3.069498  1.738703  0.141022
C    -2.407472  2.792429  -0.779713
C    -2.302042  4.229725  -0.258199
N    -3.513997  5.081775  -0.630319
H    -1.205957  0.740282  0.569943
H    -1.721309  1.828164  1.867100
H    -3.923550  2.172450  0.687801
H    -3.491318  0.959953  -0.509991
H    -2.923438  2.799097  -1.752556
H    -1.385127  2.469073  -1.022788
H    -1.444775  4.750478  -0.700099
H    -2.211264  4.292801  0.833305
H    -4.397051  4.701819  -0.261991
H    -3.615728  5.156553  -1.654053
H    -3.420031  6.042864  -0.267050
N    -4.109412  -1.658525  0.523155
C    -5.431000  -1.160235  0.875440
H    -4.087885  -2.504815  -0.053076
H    -5.395957  -0.124957  1.224076
H    -5.899412  -1.794001  1.645420
H    -6.066323  -1.207505  -0.019068
Cd    1.137117  -2.277545  5.490630
