35
Energy: -172331.830521 eV PBE+vdW (tier 2 basis)
C    0.686107  -1.577190  -0.158367
C    0.430760  -1.267235  1.279952
O    1.303854  -1.506810  2.211138
H    0.858254  -2.658921  -0.274470
H    1.580073  -1.035230  -0.503880
H    -0.149371  -1.303174  -0.811466
N    -0.722695  -0.733217  1.640767
C    -1.177408  -0.486222  3.021692
C    -2.679072  -0.834674  2.987417
O    -3.275882  -0.653115  1.913967
H    -1.468265  -0.630686  0.941064
H    -0.616160  -1.169193  3.672414
C    -0.947699  0.972491  3.518569
C    -1.927837  2.094224  3.109863
C    -1.911784  2.534014  1.633234
C    -2.404728  3.957945  1.364770
N    -3.900352  4.158737  1.596341
H    0.079022  1.252341  3.239828
H    -0.951606  0.921629  4.616776
H    -1.646810  2.954135  3.738218
H    -2.948859  1.819765  3.421071
H    -2.462243  1.823722  0.996343
H    -0.875036  2.536182  1.261375
H    -2.231991  4.242179  0.320008
H    -1.902873  4.693310  2.006632
H    -4.175620  5.125893  1.364289
H    -4.468591  3.534168  1.005616
H    -4.172710  3.998336  2.576000
N    -3.325709  -1.273925  4.087472
C    -2.817795  -1.577035  5.412626
H    -4.319496  -1.460501  3.923417
H    -3.380735  -1.001833  6.164384
H    -1.754688  -1.342908  5.502688
H    -2.979751  -2.643967  5.636044
Cd    3.236507  -2.400316  1.942718
