35
Energy: -172331.518034 eV PBE+vdW (tier 2 basis)
C    0.437434  -1.054927  0.107507
C    0.143157  -1.048107  1.579654
O    0.494625  -1.914836  2.360681
H    0.505606  -0.049056  -0.323963
H    -0.382691  -1.591360  -0.397246
H    1.356398  -1.619135  -0.081090
N    -0.615958  0.047675  2.066885
C    -0.896013  0.205739  3.467069
C    -2.445514  0.070835  3.725224
O    -2.808625  0.216238  4.937241
H    -0.640467  0.882047  1.478744
H    -0.481989  -0.682815  3.974165
C    -0.320572  1.489793  4.115772
C    1.132962  1.392285  4.624968
C    2.276503  1.580645  3.606455
C    3.609274  1.668784  4.357708
N    4.794314  1.951090  3.444267
H    -0.949213  1.712255  4.988060
H    -0.446940  2.340557  3.427332
H    1.267771  0.441970  5.164824
H    1.230340  2.179585  5.388913
H    2.111456  2.507507  3.033510
H    2.308993  0.745853  2.888288
H    3.848982  0.735576  4.882672
H    3.602456  2.482820  5.093450
H    5.668756  2.016278  3.988657
H    4.687967  2.842806  2.938130
H    4.931858  1.209717  2.742204
N    -3.233498  -0.232109  2.714404
C    -4.672126  -0.466826  2.772658
H    -2.757562  -0.352757  1.818493
H    -5.211871  0.441435  3.079619
H    -4.909678  -1.330938  3.417669
H    -5.026644  -0.727389  1.768661
Cd    -4.682980  -0.058432  6.006364
