35
Energy: -172333.064521 eV PBE+vdW (tier 2 basis)
C    0.240627  2.066456  1.014976
C    0.362843  1.200530  2.221675
O    0.698643  1.769241  3.318420
H    -0.095987  1.525429  0.123945
H    1.207783  2.549550  0.814260
H    -0.469098  2.878086  1.236952
N    0.099196  -0.113786  2.105410
C    -0.108273  -1.114979  3.173413
C    1.240967  -1.751521  3.592059
O    2.012778  -1.160940  4.436936
H    -0.093107  -0.430813  1.156432
H    -0.463178  -0.570360  4.064723
C    -1.218355  -2.116458  2.769992
C    -2.616055  -1.466922  2.685122
C    -3.755126  -2.365725  2.147158
C    -4.295962  -3.388049  3.149936
N    -5.542025  -4.079625  2.610899
H    -1.215320  -2.923154  3.517802
H    -0.965382  -2.577565  1.798944
H    -2.571292  -0.595303  2.016831
H    -2.896535  -1.070335  3.673636
H    -3.430659  -2.874612  1.225440
H    -4.576191  -1.692665  1.855661
H    -4.602474  -2.914991  4.091547
H    -3.585270  -4.191086  3.380302
H    -5.913218  -4.766060  3.286071
H    -5.356769  -4.587285  1.732632
H    -6.299124  -3.405665  2.418327
N    1.623704  -2.906170  3.094431
C    2.898724  -3.574273  3.409108
H    0.985880  -3.393600  2.469436
H    2.857403  -4.006498  4.417120
H    3.719443  -2.851333  3.359061
H    3.058203  -4.368991  2.675787
Cd    1.807206  0.895470  4.890554
