35
Energy: -172331.705797 eV PBE+vdW (tier 2 basis)
C    1.125656  1.604966  0.548410
C    0.297366  0.394427  0.848701
O    0.154667  -0.548384  0.071866
H    0.478616  2.408942  0.165195
H    1.635083  1.973611  1.449880
H    1.857449  1.361570  -0.228103
N    -0.365881  0.336223  2.074665
C    -1.243731  -0.757473  2.361791
C    -2.722914  -0.477135  1.864596
O    -3.300362  0.512054  2.431815
H    -0.368493  1.161705  2.673545
H    -0.900778  -1.568222  1.691750
C    -1.266804  -1.164924  3.847725
C    0.049332  -1.759128  4.405468
C    0.415030  -3.166970  3.890507
C    1.228557  -4.042451  4.846953
N    2.673952  -3.594457  5.049196
H    -2.081565  -1.891227  3.992884
H    -1.534313  -0.286188  4.452502
H    -0.098494  -1.800612  5.495888
H    0.872939  -1.048497  4.235082
H    0.911038  -3.126514  2.907494
H    -0.507485  -3.747783  3.730681
H    1.294306  -5.069757  4.469190
H    0.783928  -4.075642  5.849788
H    3.201362  -3.584759  4.163940
H    3.165837  -4.243499  5.683520
H    2.743979  -2.657098  5.468913
N    -3.255204  -1.247988  0.943639
C    -2.663882  -2.404389  0.234629
H    -4.218942  -1.031537  0.680815
H    -3.386691  -2.727820  -0.519871
H    -2.496136  -3.235889  0.929253
H    -1.734913  -2.113092  -0.266907
Cd    -5.262591  1.490160  2.305389
