35
Energy: -172331.317443 eV PBE+vdW (tier 2 basis)
C    -0.453441  -0.679211  -0.533494
C    -0.208671  0.017353  0.770866
O    0.761476  0.761395  0.963755
H    -0.087185  -0.048934  -1.350692
H    -1.511180  -0.927736  -0.684318
H    0.129112  -1.613989  -0.547959
N    -1.109255  -0.227336  1.797656
C    -0.888341  0.079638  3.198896
C    -0.983471  1.624592  3.454969
O    -1.890358  1.948272  4.301161
H    -1.875027  -0.867285  1.589842
H    -1.744209  -0.346337  3.739393
C    0.417325  -0.563884  3.783428
C    0.494847  -0.652110  5.313924
C    1.687830  -1.538884  5.745158
C    1.755717  -1.720997  7.261861
N    2.906329  -2.633482  7.666484
H    1.295430  -0.049896  3.370251
H    0.417896  -1.582305  3.366385
H    -0.437752  -1.084322  5.710238
H    0.599678  0.348460  5.761671
H    2.627510  -1.094886  5.380067
H    1.590734  -2.524881  5.262975
H    0.847609  -2.187343  7.664083
H    1.922325  -0.774106  7.790207
H    2.945350  -2.752295  8.690645
H    3.820035  -2.259155  7.369652
H    2.813585  -3.575119  7.256508
N    -0.174818  2.440700  2.819829
C    -0.165941  3.893095  2.918984
H    0.426899  1.963751  2.103058
H    0.608835  4.283457  2.247693
H    0.086906  4.228217  3.936461
H    -1.117916  4.332081  2.564795
Cd    -2.766186  3.871696  4.792012
