35
Energy: -172331.749423 eV PBE+vdW (tier 2 basis)
C    0.293284  1.264076  0.587773
C    0.071638  0.108734  1.496303
O    1.007571  -0.714989  1.827291
H    1.229603  1.773034  0.859977
H    -0.510982  2.004941  0.617115
H    0.411880  0.901109  -0.445722
N    -1.133121  -0.204296  1.996062
C    -2.452000  0.228524  1.524977
C    -3.162990  1.284341  2.457051
O    -3.800828  2.140175  1.823031
H    -1.120923  -1.010060  2.628740
H    -2.310229  0.769549  0.585428
C    -3.378740  -1.000170  1.313611
C    -4.868640  -0.754320  0.998879
C    -5.274459  -0.364351  -0.437593
C    -5.154570  1.081311  -0.914848
N    -6.048582  2.039622  -0.141242
H    -3.335006  -1.615999  2.225510
H    -2.924920  -1.604679  0.512278
H    -5.314513  -0.080681  1.747804
H    -5.355630  -1.720536  1.193201
H    -6.318849  -0.682762  -0.584893
H    -4.705204  -0.969463  -1.160185
H    -4.144500  1.499151  -0.832728
H    -5.465828  1.152102  -1.964057
H    -5.662222  2.207518  0.802216
H    -6.111329  2.953149  -0.613689
H    -7.009671  1.678581  -0.051556
N    -3.139787  1.223979  3.787818
C    -2.530051  0.238356  4.683806
H    -3.654590  1.983686  4.236514
H    -2.994550  0.355367  5.668611
H    -1.451985  0.408134  4.801586
H    -2.734416  -0.787885  4.355782
Cd    3.146830  -0.537415  1.994765
