35
Energy: -172333.027403 eV PBE+vdW (tier 2 basis)
C    0.724858  1.735019  1.190113
C    -0.097154  0.969014  2.168835
O    -0.094637  1.379677  3.382623
H    0.394544  2.785374  1.203853
H    0.651381  1.349875  0.167162
H    1.774848  1.736559  1.515727
N    -0.806011  -0.086509  1.730609
C    -1.909717  -0.821017  2.392942
C    -1.344218  -1.967223  3.272414
O    -0.969089  -1.736924  4.483094
H    -0.665059  -0.311188  0.746297
H    -2.399274  -0.122737  3.091658
C    -2.927474  -1.231363  1.301046
C    -4.292459  -1.800455  1.763020
C    -5.359587  -0.725461  2.052057
C    -6.747940  -1.242592  2.445308
N    -7.589687  -1.722896  1.265779
H    -2.445868  -1.948109  0.614985
H    -3.101426  -0.334567  0.687149
H    -4.171444  -2.450483  2.643889
H    -4.636103  -2.463282  0.954526
H    -5.451106  -0.037358  1.195594
H    -5.043628  -0.092236  2.894977
H    -7.338556  -0.444927  2.910756
H    -6.702543  -2.084949  3.147153
H    -8.520870  -2.031391  1.587762
H    -7.169174  -2.519125  0.766668
H    -7.746704  -0.971402  0.577196
N    -1.246598  -3.184870  2.786283
C    -0.679551  -4.354043  3.475302
H    -1.598016  -3.342373  1.843270
H    -1.468001  -5.101350  3.629644
H    -0.265793  -4.049884  4.438366
H    0.105252  -4.788556  2.844064
Cd    -0.351683  0.191126  5.102431
