35
Energy: -172331.722988 eV PBE+vdW (tier 2 basis)
C    -0.238874  0.373814  -0.685524
C    0.005682  0.824913  0.710849
O    1.127128  1.376909  1.041485
H    0.519714  -0.370643  -0.963147
H    -1.218981  -0.069300  -0.858324
H    -0.135273  1.251535  -1.348944
N    -0.863348  0.733502  1.729806
C    -2.033548  -0.140722  1.944929
C    -1.564482  -1.631699  1.882178
O    -0.881477  -1.974883  0.917526
H    -0.498097  1.159564  2.584108
H    -2.341669  0.107457  2.967460
C    -3.216938  0.101971  0.967566
C    -4.599230  -0.399663  1.451060
C    -5.321303  0.532323  2.441480
C    -6.701849  0.066620  2.912573
N    -7.797121  0.220754  1.860514
H    -2.999812  -0.391837  0.013132
H    -3.263860  1.182245  0.766385
H    -4.515327  -1.413047  1.874453
H    -5.203127  -0.518982  0.538151
H    -5.397187  1.550467  2.025317
H    -4.734784  0.647897  3.366381
H    -7.040719  0.659759  3.770063
H    -6.713094  -0.991557  3.203293
H    -8.709438  -0.077464  2.239702
H    -7.624164  -0.345427  1.018238
H    -7.903062  1.201592  1.561449
N    -1.927088  -2.508688  2.846361
C    -2.482151  -2.273917  4.172173
H    -1.554552  -3.447227  2.676807
H    -1.684388  -2.161191  4.923238
H    -3.079352  -3.150537  4.454819
H    -3.127479  -1.391211  4.190646
Cd    2.611926  2.289743  -0.198855
