35
Energy: -172331.800388 eV PBE+vdW (tier 2 basis)
C    0.823571  -0.569687  0.537076
C    0.209990  -1.070796  1.794083
O    0.900021  -1.255142  2.868880
H    1.704452  -1.186302  0.300374
H    1.183495  0.458436  0.692610
H    0.149949  -0.604727  -0.322795
N    -1.096360  -1.337165  1.944814
C    -2.282864  -1.017662  1.113855
C    -2.281420  -1.989373  -0.128356
O    -1.670640  -1.675320  -1.143421
H    -1.311194  -1.738575  2.860986
H    -3.131676  -1.282348  1.759945
C    -2.424712  0.454705  0.684652
C    -3.791801  0.748545  0.030973
C    -3.881154  2.155382  -0.607140
C    -4.312365  3.318483  0.291298
N    -5.828476  3.502009  0.326080
H    -1.632752  0.702661  -0.034316
H    -2.272084  1.079127  1.577901
H    -4.600923  0.591958  0.764024
H    -3.967320  0.019085  -0.772287
H    -4.544332  2.114690  -1.485328
H    -2.901295  2.426755  -1.025626
H    -3.920433  4.272744  -0.079344
H    -3.996896  3.204271  1.335881
H    -6.095916  4.287952  0.938552
H    -6.322997  2.666413  0.668027
H    -6.198330  3.713622  -0.613197
N    -2.968501  -3.146573  0.016553
C    -3.146679  -4.093787  -1.075621
H    -3.530133  -3.282980  0.854717
H    -3.260269  -5.098979  -0.651953
H    -2.282597  -4.034119  -1.747133
H    -4.053525  -3.865702  -1.659596
Cd    2.952454  -1.829234  3.221947
