35
Energy: -172331.433556 eV PBE+vdW (tier 2 basis)
C    -1.264586  1.877625  -0.304852
C    -1.042111  0.957838  0.861523
O    -0.120285  0.166526  0.955495
H    -2.330890  1.936281  -0.563873
H    -0.686342  1.520313  -1.161784
H    -0.919994  2.891870  -0.050754
N    -1.974471  1.061339  1.928235
C    -1.760207  0.365451  3.170255
C    -3.035252  -0.478101  3.519860
O    -3.034321  -1.040593  4.663668
H    -2.488613  1.944945  1.969612
H    -0.981496  -0.390884  2.971874
C    -1.333041  1.270871  4.352028
C    -0.009776  2.037103  4.154867
C    1.288515  1.206499  4.244202
C    2.504264  2.136478  4.216501
N    3.821501  1.385347  4.356504
H    -1.277182  0.640406  5.250990
H    -2.130901  2.006068  4.538951
H    0.009361  2.807885  4.939826
H    -0.028871  2.594923  3.205586
H    1.352746  0.486722  3.412555
H    1.288168  0.628228  5.182284
H    2.483610  2.859598  5.041564
H    2.576804  2.694629  3.274685
H    4.619821  2.039349  4.358623
H    3.975357  0.722870  3.582220
H    3.868605  0.849772  5.235896
N    -3.982767  -0.589277  2.609385
C    -5.208537  -1.370554  2.716088
H    -3.787376  -0.105953  1.729675
H    -4.987979  -2.436824  2.908035
H    -5.730743  -1.341661  1.752328
H    -5.892305  -0.944438  3.465616
Cd    -4.425689  -2.387706  5.653497
