35
Energy: -172332.981578 eV PBE+vdW (tier 2 basis)
C    -0.722941  0.153472  -0.279287
C    -0.446053  0.372522  1.168680
O    0.486139  1.197516  1.469485
H    -0.917132  1.128596  -0.751291
H    -1.571935  -0.513689  -0.463823
H    0.178198  -0.248565  -0.764774
N    -1.192469  -0.282811  2.075744
C    -1.299701  -0.061879  3.534919
C    -0.212892  -0.871684  4.290842
O    0.980053  -0.403828  4.427444
H    -1.852989  -0.952197  1.683033
H    -1.062769  0.998245  3.725405
C    -2.752256  -0.334463  3.996369
C    -3.809162  0.673281  3.472417
C    -4.071160  1.899345  4.378266
C    -5.108817  1.722546  5.493633
N    -6.544383  1.913075  5.011078
H    -2.759294  -0.349860  5.096456
H    -3.038691  -1.348636  3.671900
H    -4.742904  0.116881  3.302585
H    -3.518329  1.029874  2.474003
H    -4.353088  2.764836  3.758867
H    -3.141292  2.213591  4.876115
H    -4.971222  2.471839  6.281894
H    -5.076638  0.729950  5.960778
H    -7.213013  1.787505  5.787537
H    -6.813562  1.247518  4.272531
H    -6.694518  2.863242  4.638588
N    -0.495505  -2.046390  4.808164
C    0.455496  -2.919261  5.515766
H    -1.458588  -2.372266  4.753290
H    0.433649  -2.698731  6.591226
H    1.465339  -2.754365  5.131556
H    0.154372  -3.958654  5.352647
Cd    1.759751  1.088814  3.151042
