35
Energy: -172332.785769 eV PBE+vdW (tier 2 basis)
C    -1.094088  -0.073647  -0.372522
C    -0.884322  -0.328467  1.082699
O    0.152672  -1.009566  1.402553
H    -0.236123  0.488176  -0.769448
H    -2.022271  0.464673  -0.593343
H    -1.102569  -1.039586  -0.899740
N    -1.792035  0.154330  1.948592
C    -2.053689  -0.099298  3.393365
C    -1.044380  0.620036  4.316157
O    0.116967  0.131180  4.594904
H    -2.524626  0.695318  1.493734
H    -3.018511  0.395777  3.557340
C    -2.259120  -1.594912  3.740018
C    -2.946820  -1.814319  5.103843
C    -3.114208  -3.304982  5.487092
C    -4.333804  -4.053091  4.925277
N    -5.508007  -4.092612  5.900382
H    -1.303475  -2.143136  3.726411
H    -2.859238  -2.024006  2.923960
H    -3.921376  -1.298486  5.110746
H    -2.349750  -1.337455  5.895330
H    -3.107815  -3.394283  6.584294
H    -2.223209  -3.864433  5.168030
H    -4.098396  -5.104781  4.726058
H    -4.725618  -3.615337  3.998670
H    -5.255845  -4.585607  6.770947
H    -6.311054  -4.597944  5.493708
H    -5.842376  -3.155454  6.165634
N    -1.378856  1.747884  4.910698
C    -2.639410  2.506182  4.863111
H    -0.647302  2.131415  5.516539
H    -2.435895  3.508301  5.253205
H    -3.402951  2.038214  5.497497
H    -3.001187  2.611013  3.834840
Cd    1.262211  -0.932280  3.181626
