35
Energy: -172332.796762 eV PBE+vdW (tier 2 basis)
C    0.583442  2.431300  1.730183
C    0.075082  1.319729  2.587835
O    0.752303  1.053226  3.639789
H    1.643505  2.247865  1.502818
H    0.548987  3.369498  2.303880
H    0.025601  2.555525  0.795611
N    -1.040133  0.677362  2.195262
C    -1.724238  -0.549260  2.685351
C    -2.457472  -0.332416  4.028670
O    -1.856292  -0.396659  5.168980
H    -1.454980  1.077877  1.357304
H    -2.511208  -0.717761  1.941008
C    -0.827962  -1.813103  2.721829
C    -0.429611  -2.428813  1.358519
C    -1.557917  -3.202322  0.635132
C    -1.133308  -4.436261  -0.167525
N    -0.398551  -4.138876  -1.472346
H    -1.354285  -2.574220  3.318160
H    0.102744  -1.594980  3.266544
H    0.392812  -3.124603  1.584198
H    0.004809  -1.653955  0.707934
H    -2.169849  -2.540430  0.002081
H    -2.253382  -3.613451  1.383976
H    -2.012686  -5.022386  -0.460305
H    -0.466405  -5.090143  0.408789
H    -0.973366  -3.580129  -2.120191
H    -0.168840  -5.018701  -1.961742
H    0.489664  -3.639179  -1.327095
N    -3.762936  -0.151762  4.056650
C    -4.750319  -0.114806  2.969243
H    -4.146275  -0.065968  5.003308
H    -5.121326  -1.124666  2.750168
H    -4.336847  0.348650  2.068597
H    -5.593099  0.497558  3.307294
Cd    0.130440  0.219133  5.472304
