35
Energy: -172331.688061 eV PBE+vdW (tier 2 basis)
C    0.123303  -0.490202  0.182042
C    0.046168  -0.804239  1.634515
O    1.007010  -1.351311  2.291147
H    1.133402  -0.140167  -0.071257
H    -0.592909  0.272610  -0.139541
H    -0.051598  -1.409489  -0.400375
N    -1.067906  -0.593712  2.354532
C    -2.412771  -0.318563  1.850720
C    -2.774452  1.227504  1.882599
O    -3.304044  1.612535  0.837604
H    -0.975335  -0.817909  3.349241
H    -2.422414  -0.549837  0.782220
C    -3.482854  -1.165492  2.584549
C    -4.958356  -0.863019  2.241068
C    -5.396002  -1.221368  0.809526
C    -6.839894  -0.864643  0.451000
N    -7.885958  -1.770196  1.097405
H    -3.357455  -1.042548  3.670325
H    -3.255538  -2.220517  2.363731
H    -5.179561  0.197078  2.440173
H    -5.545841  -1.432148  2.978365
H    -5.209081  -2.287116  0.597994
H    -4.793653  -0.660815  0.078720
H    -7.004878  -0.958567  -0.628686
H    -7.102246  0.158825  0.747717
H    -8.834503  -1.504418  0.790087
H    -7.879508  -1.717160  2.125417
H    -7.750956  -2.757742  0.834674
N    -2.568983  2.001803  2.951839
C    -2.014839  1.672362  4.265691
H    -2.860613  2.970225  2.809882
H    -2.328709  2.454117  4.965215
H    -0.917006  1.657117  4.251326
H    -2.409705  0.724509  4.649421
Cd    3.160763  -1.329636  2.044814
