35
Energy: -172331.053391 eV PBE+vdW (tier 2 basis)
C    0.051225  1.515604  0.167049
C    -0.206732  0.772135  1.442354
O    0.496178  -0.157688  1.847171
H    1.051555  1.969112  0.200041
H    -0.699367  2.287516  -0.035876
H    0.062561  0.786423  -0.656340
N    -1.293628  1.174954  2.217136
C    -1.551268  0.533687  3.491437
C    -3.100819  0.539477  3.738393
O    -3.515429  1.215403  4.749593
H    -1.636554  2.121799  2.053089
H    -1.292402  -0.526454  3.331307
C    -0.695291  1.056491  4.667685
C    -0.407801  0.007573  5.757604
C    0.401412  -1.251439  5.371106
C    1.928952  -1.197730  5.380938
N    2.559995  -0.467328  4.193447
H    -1.165651  1.941795  5.114965
H    0.239239  1.419408  4.215998
H    -1.364037  -0.335844  6.181596
H    0.091846  0.521741  6.592965
H    0.064065  -1.690727  4.417762
H    0.167930  -2.024354  6.118539
H    2.329005  -2.217438  5.335106
H    2.329709  -0.718881  6.283134
H    3.544064  -0.752898  4.077369
H    2.564696  0.551923  4.323289
H    2.064430  -0.666557  3.307711
N    -3.879557  -0.155722  2.935785
C    -3.518486  -0.968866  1.760228
H    -4.880598  -0.128369  3.138093
H    -4.274981  -1.752622  1.650488
H    -2.542871  -1.444512  1.899464
H    -3.511110  -0.347087  0.856932
Cd    -5.402398  1.765031  5.658028
