35
Energy: -172331.982412 eV PBE+vdW (tier 2 basis)
C    -0.279992  0.270443  2.071655
C    -0.426052  -0.590450  3.278699
O    0.320180  -0.401729  4.314912
H    -0.887312  -0.027071  1.216846
H    0.768799  0.271436  1.749038
H    -0.571891  1.297468  2.357181
N    -1.346590  -1.557036  3.446679
C    -1.988653  -2.425326  2.444970
C    -0.878668  -3.060730  1.534032
O    0.156507  -2.440930  1.311992
H    -1.301211  -1.962123  4.383527
H    -2.441775  -3.228046  3.044244
C    -3.088703  -1.760717  1.577888
C    -4.378099  -1.340244  2.326322
C    -5.523111  -2.374809  2.268722
C    -6.808863  -1.795335  2.863748
N    -7.997580  -2.734814  2.708098
H    -3.336748  -2.465223  0.770474
H    -2.669074  -0.887251  1.066118
H    -4.732140  -0.408769  1.861799
H    -4.150529  -1.082798  3.372095
H    -5.246567  -3.298117  2.803308
H    -5.700251  -2.648976  1.216120
H    -7.100451  -0.862545  2.364623
H    -6.719841  -1.596107  3.938888
H    -8.852352  -2.319030  3.109690
H    -7.847536  -3.636229  3.184545
H    -8.198797  -2.939422  1.717764
N    -1.142110  -4.281205  1.008748
C    -0.207282  -4.992240  0.150584
H    -1.960432  -4.791188  1.335505
H    -0.773919  -5.606445  -0.560353
H    0.434897  -5.666391  0.743545
H    0.433298  -4.270071  -0.366189
Cd    1.577593  1.261640  4.814902
