35
Energy: -172331.709540 eV PBE+vdW (tier 2 basis)
C    0.937361  -0.288837  0.337643
C    0.392775  0.491110  1.489375
O    0.815219  1.659030  1.792878
H    0.768977  0.270647  -0.594387
H    0.493369  -1.284362  0.229677
H    2.024749  -0.418854  0.465953
N    -0.607755  -0.047503  2.213139
C    -1.345520  0.583213  3.308963
C    -1.461050  -0.404393  4.520552
O    -2.492688  -0.456042  5.174603
H    -0.987435  -0.919003  1.841163
H    -0.741353  1.438950  3.645564
C    -2.748092  1.108808  2.917041
C    -3.746216  0.048176  2.407253
C    -5.225056  0.300913  2.777536
C    -5.871162  1.486616  2.062340
N    -7.355140  1.577661  2.397607
H    -3.132671  1.582455  3.831502
H    -2.603538  1.912193  2.181016
H    -3.510642  -0.931492  2.850202
H    -3.653336  -0.078088  1.317658
H    -5.300927  0.429847  3.868962
H    -5.785273  -0.613623  2.527696
H    -5.439320  2.452796  2.351373
H    -5.816037  1.392311  0.970331
H    -7.513659  1.700118  3.409027
H    -7.803692  2.373535  1.919216
H    -7.861826  0.725944  2.111980
N    -0.367227  -1.161669  4.831490
C    -0.325354  -2.019929  6.000738
H    0.517086  -0.944229  4.375896
H    -1.328557  -2.418089  6.194566
H    -0.009705  -1.457699  6.898781
H    0.407664  -2.817999  5.829822
Cd    2.704595  2.625232  1.224245
