35
Energy: -172332.951689 eV PBE+vdW (tier 2 basis)
C    0.334620  2.682615  1.128486
C    0.179140  1.641499  2.184027
O    1.137810  1.509502  3.020012
H    -0.544743  2.778352  0.482099
H    1.218007  2.447760  0.516923
H    0.540056  3.649443  1.611264
N    -0.952115  0.913110  2.212881
C    -1.396053  -0.026668  3.256692
C    -0.697681  -1.409282  3.119160
O    0.306671  -1.670994  3.892272
H    -1.615202  1.109388  1.465487
H    -1.020217  0.358795  4.218675
C    -2.939152  -0.074886  3.361949
C    -3.581534  1.138321  4.069950
C    -5.121986  1.054207  4.002785
C    -5.911812  2.259555  4.522508
N    -6.145046  2.255577  6.031201
H    -3.205993  -0.995689  3.902061
H    -3.373131  -0.179887  2.356582
H    -3.252487  2.074617  3.592096
H    -3.229256  1.175781  5.113615
H    -5.483406  0.131806  4.486682
H    -5.422603  0.954857  2.948652
H    -6.915812  2.274973  4.082412
H    -5.427864  3.216871  4.291731
H    -6.669974  1.420095  6.330649
H    -6.704296  3.076128  6.313296
H    -5.271754  2.286555  6.574374
N    -1.069963  -2.358824  2.286516
C    -2.171657  -2.426075  1.318687
H    -0.493467  -3.203280  2.354102
H    -1.886606  -3.148894  0.547256
H    -2.334454  -1.458016  0.836830
H    -3.093460  -2.777445  1.799356
Cd    1.711422  -0.126867  4.239728
