35
Energy: -172331.874480 eV PBE+vdW (tier 2 basis)
C    -0.745299  0.055365  -0.900041
C    -1.019449  -0.118100  0.563164
O    -1.067563  -1.224804  1.117040
H    -0.776661  -0.919987  -1.393025
H    0.266485  0.476753  -1.022741
H    -1.452836  0.745157  -1.378422
N    -1.213286  1.041292  1.297692
C    -1.666026  1.161523  2.667500
C    -0.687891  0.526337  3.714843
O    -0.398101  1.352351  4.654243
H    -1.147452  1.917089  0.779135
H    -1.601088  2.234901  2.891783
C    -3.173688  0.810482  2.960711
C    -3.738330  -0.565047  2.587442
C    -5.265665  -0.608599  2.845740
C    -5.877291  -1.933523  2.387919
N    -7.386794  -1.958785  2.590546
H    -3.732079  1.591993  2.422858
H    -3.323871  1.015797  4.032140
H    -3.246653  -1.366182  3.159110
H    -3.557382  -0.778911  1.525376
H    -5.745745  0.223456  2.306003
H    -5.466546  -0.453740  3.917602
H    -5.483463  -2.791431  2.946842
H    -5.715808  -2.115877  1.318121
H    -7.788760  -2.856322  2.278377
H    -7.859778  -1.213789  2.057150
H    -7.646906  -1.838477  3.580836
N    -0.262225  -0.705928  3.589203
C    0.675162  -1.385390  4.475115
H    -0.575574  -1.167318  2.696619
H    0.254718  -1.516521  5.483786
H    1.651462  -0.869855  4.503231
H    0.869540  -2.386145  4.071914
Cd    0.989541  1.303713  6.307210
