35
Energy: -172332.995107 eV PBE+vdW (tier 2 basis)
C    -0.369153  1.030012  0.608260
C    -0.536545  -0.336367  1.186136
O    0.185905  -1.265869  0.680523
H    -0.453226  0.965951  -0.486042
H    0.651057  1.384661  0.819031
H    -1.093781  1.758451  0.988174
N    -1.428084  -0.499075  2.177941
C    -1.998259  -1.702618  2.842534
C    -1.020264  -2.388997  3.818323
O    -0.103426  -3.212638  3.427502
H    -1.870503  0.372562  2.461354
H    -2.794820  -1.284208  3.468977
C    -2.683278  -2.715157  1.888342
C    -4.002309  -2.180138  1.293567
C    -4.772016  -3.243079  0.479115
C    -6.110547  -2.692574  -0.021003
N    -6.909944  -3.734272  -0.791684
H    -2.885335  -3.622947  2.477601
H    -2.004800  -3.018683  1.076319
H    -4.644016  -1.828094  2.117196
H    -3.800892  -1.304893  0.657097
H    -4.949862  -4.128560  1.110146
H    -4.162499  -3.573273  -0.377027
H    -5.981231  -1.845125  -0.705699
H    -6.757487  -2.371475  0.805038
H    -6.404621  -4.077089  -1.622425
H    -7.805009  -3.341567  -1.123515
H    -7.138450  -4.554745  -0.210303
N    -1.146503  -2.224127  5.119882
C    -2.117259  -1.458605  5.913550
H    -0.471048  -2.768084  5.666659
H    -2.505376  -0.600336  5.358634
H    -1.598425  -1.083995  6.803033
H    -2.940562  -2.109191  6.236416
Cd    0.926567  -2.999858  1.613347
