35
Energy: -172332.214626 eV PBE+vdW (tier 2 basis)
C    0.056910  0.437476  -0.672894
C    0.420436  0.233007  0.751253
O    1.603037  -0.187981  1.014409
H    0.975739  0.645316  -1.238386
H    -0.668157  1.242181  -0.817184
H    -0.346830  -0.500778  -1.091818
N    -0.416969  0.492214  1.794060
C    -1.809111  0.037027  2.005328
C    -1.758448  -1.511250  2.214583
O    -0.694558  -2.101568  2.638912
H    0.086741  0.639687  2.669829
H    -2.066691  0.434664  3.001497
C    -2.853870  0.568875  0.999422
C    -2.929942  2.113742  0.911950
C    -3.760215  2.816503  2.014210
C    -5.246470  3.048640  1.718384
N    -5.501530  4.299310  0.881188
H    -3.840645  0.186308  1.304484
H    -2.665936  0.144762  0.004495
H    -3.326672  2.361921  -0.084216
H    -1.912182  2.527628  0.923232
H    -3.292469  3.777372  2.278080
H    -3.727630  2.238475  2.950289
H    -5.812069  3.205503  2.644334
H    -5.712996  2.219355  1.171462
H    -5.039629  4.269323  -0.038876
H    -5.172190  5.149543  1.363702
H    -6.511160  4.426109  0.707553
N    -2.844701  -2.232917  2.045954
C    -2.943267  -3.679972  2.304247
H    -3.697522  -1.756511  1.763514
H    -2.898315  -3.872982  3.383562
H    -2.121976  -4.206077  1.806237
H    -3.898959  -4.032734  1.908406
Cd    1.408185  -1.771754  2.457504
