35
Energy: -172331.899702 eV PBE+vdW (tier 2 basis)
C    1.319529  0.157695  1.041421
C    0.545533  -0.280377  2.231598
O    1.104372  -0.840363  3.250241
H    0.694560  0.503020  0.214024
H    1.923904  -0.688677  0.679411
H    2.021214  0.952569  1.335167
N    -0.777104  -0.106909  2.373990
C    -1.744841  0.755718  1.651010
C    -2.043688  0.098145  0.252114
O    -1.427476  0.468256  -0.740864
H    -1.140476  -0.536317  3.228861
H    -2.656017  0.691963  2.262648
C    -1.335789  2.234250  1.531247
C    -2.489268  3.159863  1.090888
C    -2.063964  4.640747  1.159928
C    -3.163037  5.683004  0.951395
N    -3.537927  5.907728  -0.511801
H    -0.978162  2.551637  2.522476
H    -0.498376  2.332219  0.827557
H    -3.357053  3.006369  1.752430
H    -2.807515  2.887759  0.071782
H    -1.223030  4.839693  0.475405
H    -1.669477  4.849595  2.166143
H    -4.095965  5.422401  1.467027
H    -2.836643  6.664157  1.315828
H    -4.263173  6.637030  -0.593654
H    -2.728060  6.225453  -1.064510
H    -3.909773  5.060660  -0.961965
N    -2.985452  -0.875077  0.241665
C    -3.438911  -1.517233  -0.984090
H    -3.529719  -1.039097  1.086646
H    -4.292253  -0.977639  -1.426478
H    -3.770781  -2.534872  -0.744858
H    -2.619750  -1.522440  -1.711892
Cd    2.839645  -2.103718  3.487063
