35
Energy: -172331.752032 eV PBE+vdW (tier 2 basis)
C    0.415512  0.398696  -0.359576
C    0.379823  0.856864  1.053814
O    1.201552  1.740941  1.511665
H    1.446328  0.108932  -0.615246
H    0.141901  1.235743  -1.019567
H    -0.235278  -0.455829  -0.562230
N    -0.512290  0.432965  1.960038
C    -1.790183  -0.307188  1.813973
C    -1.455115  -1.810716  1.493048
O    -1.482059  -2.184907  0.323591
H    -0.337228  0.813849  2.893488
H    -2.241098  -0.255469  2.813359
C    -2.776310  0.290405  0.794074
C    -4.196410  -0.307762  0.884269
C    -5.099852  0.250721  -0.233627
C    -6.465337  -0.412570  -0.413256
N    -7.513933  0.030407  0.604985
H    -2.392697  0.134051  -0.222740
H    -2.817483  1.375233  0.973275
H    -4.618603  -0.095645  1.880618
H    -4.144260  -1.402471  0.781227
H    -4.592985  0.105263  -1.199890
H    -5.221287  1.341950  -0.134417
H    -6.415602  -1.506387  -0.341131
H    -6.891141  -0.155874  -1.390408
H    -8.420740  -0.423277  0.414102
H    -7.672921  1.048030  0.565429
H    -7.255850  -0.207779  1.572027
N    -1.135726  -2.648656  2.510718
C    -1.262265  -2.470695  3.950620
H    -0.986660  -3.610045  2.191537
H    -0.506652  -3.101177  4.437715
H    -2.248846  -2.801434  4.311516
H    -1.090695  -1.433135  4.250864
Cd    3.220647  2.287653  0.983774
