35
Energy: -172332.624081 eV PBE+vdW (tier 2 basis)
C    1.333323  -1.076844  0.939286
C    0.778401  -0.630059  2.247862
O    1.533604  -0.011377  3.084053
H    2.203942  -1.728294  1.098689
H    1.711599  -0.188098  0.409708
H    0.608234  -1.593320  0.301483
N    -0.519702  -0.848506  2.505154
C    -1.381530  -0.368292  3.599385
C    -0.825581  -0.652868  5.009961
O    0.094311  -1.531495  5.209689
H    -1.009275  -1.379186  1.788015
H    -1.444753  0.729962  3.507902
C    -2.809206  -0.989277  3.447124
C    -3.857681  -0.190305  2.639090
C    -3.712449  -0.197694  1.106449
C    -4.780632  0.588974  0.337124
N    -6.147882  -0.087659  0.292262
H    -2.696560  -2.011824  3.052415
H    -3.222301  -1.134238  4.452735
H    -3.883718  0.850388  2.999869
H    -4.828731  -0.625510  2.924144
H    -3.668620  -1.231502  0.723800
H    -2.763371  0.275865  0.808811
H    -4.951615  1.585016  0.765087
H    -4.487508  0.716190  -0.711606
H    -6.810064  0.476617  -0.263708
H    -6.103756  -1.017688  -0.150749
H    -6.569115  -0.205830  1.224386
N    -1.342718  -0.018358  6.048528
C    -2.416524  0.976336  6.115859
H    -0.956432  -0.314654  6.948958
H    -2.497241  1.532398  5.176802
H    -2.182341  1.679227  6.922883
H    -3.375270  0.491227  6.345903
Cd    2.129916  -1.019777  4.849283
