35
Energy: -172330.933507 eV PBE+vdW (tier 2 basis)
C    0.655106  -1.149672  1.381947
C    0.262766  -1.067087  2.818768
O    1.010730  -0.753817  3.728139
H    -0.191013  -1.149667  0.687145
H    1.207850  -2.096164  1.253384
H    1.357661  -0.347673  1.127619
N    -1.055397  -1.445111  3.234775
C    -2.285409  -0.895033  2.711712
C    -2.939142  -1.887637  1.659156
O    -3.984774  -1.457916  1.080511
H    -1.065221  -1.653002  4.237714
H    -3.020975  -0.930677  3.533501
C    -2.214085  0.571487  2.209172
C    -2.372435  1.631315  3.322062
C    -1.236263  1.899974  4.336069
C    -0.070536  2.714102  3.772649
N    0.884719  3.149569  4.876616
H    -3.054530  0.707805  1.514787
H    -1.305862  0.728335  1.611164
H    -3.274954  1.387763  3.902073
H    -2.615567  2.577904  2.813982
H    -0.861426  0.968639  4.786823
H    -1.693164  2.470955  5.159599
H    0.542097  2.159194  3.052025
H    -0.416249  3.639052  3.293884
H    0.405604  3.721444  5.589200
H    1.657846  3.720613  4.501903
H    1.307541  2.344923  5.363125
N    -2.408705  -3.085839  1.529359
C    -2.918330  -4.176221  0.702668
H    -1.586700  -3.256846  2.113111
H    -2.253743  -5.040585  0.815752
H    -2.913830  -3.902818  -0.363296
H    -3.916063  -4.499948  1.042338
Cd    -5.497749  -2.331406  -0.246105
