35
Energy: -172332.402494 eV PBE+vdW (tier 2 basis)
C    -0.878957  1.980528  0.228821
C    -0.643070  0.932301  1.249551
O    0.564503  0.610350  1.537470
H    -1.933172  2.095780  -0.037779
H    -0.308222  1.697399  -0.672003
H    -0.450205  2.940567  0.552780
N    -1.660901  0.273275  1.866025
C    -2.813916  0.888167  2.533331
C    -2.307926  1.449579  3.903062
O    -1.219917  1.034439  4.453962
H    -1.379274  -0.614553  2.289528
H    -3.166729  1.730150  1.920218
C    -3.938413  -0.152856  2.763235
C    -4.646728  -0.739487  1.521750
C    -5.653803  0.203469  0.823091
C    -6.923917  -0.452469  0.273865
N    -6.708927  -1.345288  -0.945165
H    -4.692663  0.299683  3.423804
H    -3.508626  -0.982482  3.347941
H    -5.181635  -1.626003  1.896539
H    -3.900625  -1.120179  0.807315
H    -5.173042  0.804242  0.035259
H    -6.039987  0.934497  1.551038
H    -7.643517  0.309671  -0.048412
H    -7.412548  -1.086296  1.024902
H    -6.311675  -0.823716  -1.740252
H    -7.608466  -1.738017  -1.265425
H    -6.088663  -2.143521  -0.749735
N    -3.057669  2.328618  4.533101
C    -2.769959  2.934523  5.841903
H    -3.948353  2.583143  4.107255
H    -3.153682  3.959835  5.840196
H    -1.692212  2.935183  6.020803
H    -3.270465  2.361275  6.634034
Cd    0.701732  0.486214  3.681917
