35
Energy: -172331.706922 eV PBE+vdW (tier 2 basis)
C    0.663795  2.526652  2.961030
C    0.699566  1.147551  2.399982
O    1.761385  0.433195  2.347497
H    1.424523  2.639531  3.743435
H    -0.309846  2.797964  3.383377
H    0.910179  3.251145  2.166664
N    -0.395158  0.580749  1.847412
C    -1.602279  1.276739  1.404134
C    -2.854028  1.027625  2.341606
O    -3.885421  1.587163  1.980519
H    -0.239058  -0.364218  1.486330
H    -1.425150  2.353416  1.522727
C    -1.968944  1.041669  -0.079121
C    -2.581087  -0.316317  -0.470081
C    -3.135053  -0.264874  -1.911553
C    -3.816833  -1.570936  -2.317954
N    -4.405698  -1.482647  -3.719982
H    -1.071588  1.253290  -0.679780
H    -2.691525  1.836464  -0.313879
H    -3.403684  -0.565719  0.217481
H    -1.838790  -1.127192  -0.392496
H    -2.318060  -0.036119  -2.614430
H    -3.858736  0.563300  -1.980037
H    -4.655226  -1.823446  -1.656604
H    -3.121858  -2.419722  -2.335598
H    -5.116124  -0.738719  -3.791593
H    -4.864130  -2.366826  -3.988525
H    -3.684534  -1.286388  -4.430021
N    -2.727571  0.295527  3.455217
C    -3.847107  0.037910  4.367161
H    -1.855711  -0.203447  3.606315
H    -3.446291  -0.120050  5.373966
H    -4.406166  -0.857938  4.062313
H    -4.523394  0.899343  4.356750
Cd    3.614650  0.436704  3.508659
