35
Energy: -172332.430960 eV PBE+vdW (tier 2 basis)
C    0.378477  1.113251  0.232568
C    -0.240685  -0.155320  0.689570
O    -0.263467  -1.138465  -0.135267
H    1.143339  0.869693  -0.518332
H    0.819004  1.692453  1.047087
H    -0.371858  1.726060  -0.296050
N    -0.747410  -0.354549  1.938545
C    -1.722723  0.451869  2.703865
C    -3.122195  0.238400  2.033560
O    -3.367426  -0.766541  1.265361
H    -0.784689  -1.344898  2.185058
H    -1.797349  -0.067440  3.674085
C    -1.321037  1.915768  2.976116
C    0.003639  2.104818  3.764443
C    -0.177996  2.403308  5.269780
C    1.170747  2.704515  5.930452
N    1.026403  3.110297  7.390744
H    -2.132470  2.385481  3.551267
H    -1.281109  2.471120  2.030775
H    0.542198  2.947967  3.309065
H    0.653063  1.225629  3.635042
H    -0.663258  1.554840  5.778860
H    -0.842896  3.274715  5.383878
H    1.685516  3.539941  5.438963
H    1.841748  1.836442  5.923199
H    1.948184  3.309109  7.810590
H    0.589020  2.371085  7.960778
H    0.456235  3.962500  7.500878
N    -4.113376  1.051837  2.325776
C    -5.495115  0.910596  1.835829
H    -3.933677  1.810100  2.979309
H    -5.491141  0.709243  0.759859
H    -6.024412  1.846369  2.033638
H    -5.997257  0.086886  2.359392
Cd    -2.225463  -2.010103  -0.040110
