35
Energy: -172331.928502 eV PBE+vdW (tier 2 basis)
C    0.809616  -0.661485  0.813081
C    -0.095896  -1.186244  1.871147
O    -0.282956  -2.436574  2.088659
H    1.677292  -1.323255  0.693684
H    1.173488  0.351279  1.014569
H    0.274833  -0.654785  -0.151222
N    -0.837716  -0.365756  2.638237
C    -1.136790  1.050715  2.393667
C    -0.187131  2.009996  3.209351
O    -0.116873  3.162701  2.790224
H    -1.426242  -0.851922  3.322101
H    -0.910961  1.277446  1.344795
C    -2.628903  1.356145  2.681494
C    -3.135480  2.703321  2.125676
C    -4.642367  2.887194  2.395578
C    -5.322429  4.050696  1.674888
N    -4.997611  5.422629  2.261437
H    -2.812002  1.294569  3.766483
H    -3.212337  0.546493  2.214709
H    -2.953040  2.732730  1.039807
H    -2.550293  3.525639  2.562890
H    -4.843735  2.946551  3.477763
H    -5.186328  1.993951  2.051223
H    -6.413013  3.959820  1.742439
H    -5.049722  4.104592  0.613340
H    -5.505059  6.164022  1.754311
H    -3.995674  5.650764  2.205126
H    -5.279450  5.487715  3.250624
N    0.466819  1.548123  4.286450
C    1.282169  2.409908  5.145484
H    0.253924  0.611096  4.617573
H    1.749338  3.188374  4.532240
H    2.045347  1.793746  5.632832
H    0.668698  2.890526  5.921386
Cd    0.920793  -4.214544  1.733477
