35
Energy: -172331.347681 eV PBE+vdW (tier 2 basis)
C    -0.077644  -0.972710  0.173417
C    -0.300689  -1.217509  1.626815
O    -0.076449  -2.281993  2.199776
H    0.064126  0.087645  -0.068550
H    -0.949479  -1.339876  -0.391777
H    0.786083  -1.559598  -0.159985
N    -0.833675  -0.160183  2.392764
C    -1.024862  -0.263770  3.801791
C    -2.344909  -1.142489  4.156683
O    -3.335879  -0.510606  4.642272
H    -1.209069  0.654102  1.905493
H    -0.239041  -0.950259  4.172802
C    -0.988457  1.079239  4.540785
C    0.428341  1.582783  4.908255
C    1.192704  2.409917  3.854770
C    2.488090  2.947266  4.473371
N    3.246588  3.890230  3.549516
H    -1.539348  0.946936  5.480842
H    -1.549735  1.841514  3.978776
H    1.046861  0.733226  5.238915
H    0.298860  2.210035  5.803615
H    0.562482  3.250900  3.522525
H    1.425686  1.801418  2.965690
H    3.190046  2.142819  4.725939
H    2.288305  3.524279  5.385140
H    3.526111  3.435280  2.668408
H    2.690012  4.723050  3.305882
H    4.111079  4.227779  4.001352
N    -2.225755  -2.425862  3.927329
C    -3.241065  -3.459771  4.142586
H    -1.334542  -2.702157  3.475866
H    -4.134049  -3.285951  3.523140
H    -3.495318  -3.550558  5.208601
H    -2.813451  -4.418813  3.830209
Cd    -5.338387  -1.089473  5.274136
