35
Energy: -172332.098481 eV PBE+vdW (tier 2 basis)
C    -0.335568  -1.117299  0.537851
C    -0.135260  -0.080619  1.588275
O    0.966851  -0.001325  2.267963
H    -0.105888  -2.108259  0.952894
H    -1.346669  -1.140615  0.122964
H    0.362885  -0.930084  -0.293629
N    -1.062299  0.802922  1.932039
C    -2.439667  0.967654  1.458287
C    -2.695350  2.496647  1.619034
O    -2.118648  3.093810  2.528734
H    -0.794118  1.520617  2.622597
H    -2.491892  0.670317  0.404690
C    -3.504881  0.162119  2.263877
C    -3.548707  0.436765  3.775679
C    -4.571950  -0.407518  4.572812
C    -6.018420  0.075004  4.453180
N    -6.930884  -0.681675  5.410904
H    -3.302472  -0.904952  2.077693
H    -4.475665  0.371271  1.788646
H    -3.726522  1.505401  3.973470
H    -2.562242  0.220182  4.209741
H    -4.272241  -0.358664  5.631098
H    -4.501755  -1.466160  4.275896
H    -6.445720  -0.075008  3.454234
H    -6.119310  1.134585  4.720428
H    -6.639679  -0.555299  6.392262
H    -6.934062  -1.695231  5.222461
H    -7.906788  -0.355373  5.339782
N    -3.560072  3.127129  0.785546
C    -4.164618  2.661807  -0.451155
H    -3.613595  4.133433  0.969200
H    -3.539220  2.924564  -1.321126
H    -5.127684  3.173466  -0.580075
H    -4.332762  1.580864  -0.439055
Cd    2.990762  -0.485976  1.812359
