35
Energy: -172331.520388 eV PBE+vdW (tier 2 basis)
C    -0.356869  -0.253393  -0.322298
C    -0.120821  -0.478736  1.153431
O    0.819711  -1.137984  1.578941
H    0.540480  -0.541926  -0.875919
H    -0.592309  0.803942  -0.512814
H    -1.202878  -0.865951  -0.666633
N    -1.071244  0.091547  2.001597
C    -1.287374  -0.144607  3.414189
C    -0.844095  1.120585  4.272059
O    -1.828356  1.576029  4.957186
H    -1.862581  0.505087  1.510102
H    -2.375274  -0.156134  3.562911
C    -0.716578  -1.443449  4.044832
C    -1.411954  -2.713164  3.515383
C    -0.790438  -3.993061  4.116548
C    -1.485035  -5.247036  3.581759
N    -0.877742  -6.521028  4.153566
H    -0.872026  -1.370058  5.131869
H    0.365654  -1.497171  3.876538
H    -1.331380  -2.757756  2.419579
H    -2.485880  -2.674874  3.754700
H    -0.870177  -3.963906  5.214970
H    0.282360  -4.028374  3.868723
H    -1.396488  -5.335698  2.491780
H    -2.549672  -5.276230  3.845275
H    -1.355221  -7.357813  3.784241
H    -0.953883  -6.558007  5.180949
H    0.121270  -6.612794  3.915993
N    0.366531  1.627133  4.278851
C    1.587141  1.230629  3.561807
H    0.488183  2.450228  4.873641
H    1.476282  0.244701  3.105546
H    1.810197  1.974875  2.786963
H    2.413651  1.203531  4.281225
Cd    -2.199398  3.248873  6.321705
