35
Energy: -172331.777257 eV PBE+vdW (tier 2 basis)
C    0.380583  0.214152  0.078498
C    0.231346  0.183900  1.568728
O    1.195988  0.166789  2.346515
H    1.373252  -0.154446  -0.197404
H    0.315597  1.265650  -0.249444
H    -0.399357  -0.349323  -0.447526
N    -1.062950  0.192318  2.061690
C    -1.490368  0.049566  3.435750
C    -0.999946  1.205254  4.379083
O    -1.972659  1.710233  5.047294
H    -1.809478  0.221248  1.367455
H    -2.577552  0.202633  3.409661
C    -1.330157  -1.358660  4.130750
C    0.012049  -2.116937  4.136508
C    0.176289  -3.109282  2.969361
C    1.458963  -3.946076  2.968751
N    1.415939  -5.139409  3.920061
H    -2.104152  -1.982645  3.658933
H    -1.673950  -1.199239  5.162646
H    0.047961  -2.656444  5.097225
H    0.870327  -1.428762  4.159447
H    0.187339  -2.569837  2.011448
H    -0.700378  -3.775079  2.907833
H    2.344421  -3.362931  3.251559
H    1.639223  -4.379011  1.977938
H    2.292629  -5.681168  3.864092
H    0.648913  -5.786540  3.682935
H    1.296478  -4.864162  4.904656
N    0.261953  1.550031  4.437394
C    0.826629  2.618291  5.255963
H    0.869466  1.036198  3.755903
H    0.720619  2.401028  6.329876
H    0.395721  3.598878  4.992502
H    1.900167  2.683713  5.044955
Cd    -2.159962  3.335921  6.454854
