35
Energy: -172331.656873 eV PBE+vdW (tier 2 basis)
C    0.720031  -2.357135  0.322056
C    0.568034  -1.367356  1.420603
O    1.590085  -0.825058  1.997860
H    -0.218954  -2.628054  -0.165298
H    1.156261  -3.279453  0.740208
H    1.422674  -1.967879  -0.426477
N    -0.603897  -0.948476  1.907953
C    -2.015174  -1.055761  1.446648
C    -2.427916  -2.540862  1.208137
O    -2.510697  -2.988263  0.064239
H    -0.484021  -0.322082  2.709415
H    -2.579544  -0.711852  2.323855
C    -2.438480  -0.101142  0.305931
C    -1.854697  -0.253027  -1.105718
C    -2.357012  0.849127  -2.069639
C    -3.786958  0.736381  -2.605998
N    -3.893498  -0.151464  -3.843641
H    -3.536964  -0.180195  0.277171
H    -2.234102  0.917092  0.674524
H    -2.067451  -1.258007  -1.501120
H    -0.758910  -0.163530  -1.069794
H    -1.659265  0.937773  -2.917083
H    -2.298324  1.824145  -1.563117
H    -4.498658  0.325886  -1.879289
H    -4.161531  1.716020  -2.924942
H    -4.866250  -0.195265  -4.184596
H    -3.320577  0.216628  -4.617878
H    -3.589469  -1.118758  -3.666569
N    -2.728552  -3.311393  2.287320
C    -2.979701  -2.925175  3.669540
H    -3.065612  -4.239929  2.016928
H    -2.299362  -2.135491  4.001485
H    -2.823787  -3.809668  4.300701
H    -4.023791  -2.601362  3.812709
Cd    3.625080  -1.436905  2.346537
