35
Energy: -172331.575307 eV PBE+vdW (tier 2 basis)
C    -0.789365  -0.788933  -0.746830
C    -1.129987  -0.697543  0.701224
O    -1.404224  -1.656547  1.424121
H    0.238716  -0.428789  -0.912265
H    -1.458824  -0.163468  -1.355751
H    -0.861350  -1.829426  -1.076525
N    -1.131748  0.580057  1.287188
C    -1.282041  0.769986  2.696052
C    -2.832562  0.619669  3.122771
O    -3.461856  1.692836  3.391972
H    -1.060612  1.397396  0.679487
H    -0.845447  -0.125777  3.178007
C    -0.627910  2.067732  3.192505
C    -0.355283  2.104248  4.716501
C    1.034927  1.608607  5.186283
C    2.121162  2.680093  5.058375
N    3.431012  2.237854  5.699206
H    -1.250636  2.923788  2.901491
H    0.312667  2.176090  2.632814
H    -1.114551  1.512872  5.248800
H    -0.505155  3.133623  5.070835
H    1.331991  0.698159  4.640822
H    0.945946  1.321005  6.245081
H    1.836583  3.605248  5.575369
H    2.364953  2.930062  4.018348
H    4.152756  2.970731  5.616795
H    3.812551  1.385550  5.262874
H    3.315397  2.040151  6.704940
N    -3.281243  -0.611984  3.149996
C    -4.649467  -1.044666  3.438327
H    -2.612380  -1.318796  2.794710
H    -4.675527  -2.138749  3.382693
H    -5.362816  -0.671083  2.685461
H    -4.947251  -0.761049  4.457343
Cd    -5.573468  2.159197  3.684265
