35
Energy: -172332.758856 eV PBE+vdW (tier 2 basis)
C    -0.739242  0.507614  -0.046544
C    -0.525017  0.113151  1.376589
O    0.642391  -0.314355  1.683490
H    -1.766943  0.817599  -0.265416
H    -0.474011  -0.344792  -0.690050
H    -0.044186  1.319421  -0.305621
N    -1.561574  0.218332  2.226676
C    -1.790949  -0.281661  3.611056
C    -1.032897  0.554908  4.668418
O    0.202011  0.342741  4.971150
H    -2.393965  0.610049  1.791165
H    -2.856485  -0.076527  3.771926
C    -1.585400  -1.808344  3.766908
C    -2.231674  -2.407606  5.040271
C    -3.745409  -2.717200  4.940917
C    -4.134415  -4.096115  4.393065
N    -4.119541  -5.189955  5.457587
H    -0.513454  -2.057360  3.764492
H    -1.993177  -2.281256  2.861368
H    -2.060890  -1.737153  5.895724
H    -1.671784  -3.319622  5.296185
H    -4.247289  -1.984817  4.290477
H    -4.219252  -2.574497  5.924351
H    -3.471309  -4.444720  3.591101
H    -5.159872  -4.090469  4.005506
H    -4.387315  -6.100721  5.051815
H    -4.792955  -4.990827  6.213334
H    -3.195444  -5.315477  5.894688
N    -1.667212  1.491945  5.344816
C    -3.076973  1.910133  5.275510
H    -1.082315  1.985656  6.025250
H    -3.189782  2.795453  5.908252
H    -3.741970  1.127895  5.662448
H    -3.357203  2.187073  4.252727
Cd    1.630148  -0.246946  3.534875
