35
Energy: -172332.105791 eV PBE+vdW (tier 2 basis)
C    -0.263553  -1.787909  1.125223
C    -0.242596  -0.520352  1.908207
O    0.749067  -0.218250  2.686871
H    -1.203925  -1.975298  0.600388
H    -0.066078  -2.635065  1.796445
H    0.539477  -1.760220  0.370751
N    -1.233759  0.362047  1.896860
C    -2.520710  0.318333  1.199350
C    -2.853746  1.819768  0.934589
O    -2.462082  2.668025  1.733096
H    -1.091451  1.237402  2.421845
H    -2.388495  -0.215772  0.249452
C    -3.676421  -0.365091  1.984623
C    -4.140691  0.289906  3.297677
C    -5.242245  -0.561277  3.964491
C    -5.722311  -0.113799  5.345894
N    -6.730804  1.032419  5.312226
H    -3.355847  -1.402245  2.175801
H    -4.523583  -0.446199  1.285743
H    -4.499710  1.312248  3.096239
H    -3.293354  0.392848  3.993342
H    -4.861256  -1.582886  4.114929
H    -6.105878  -0.680151  3.289248
H    -4.901962  0.224028  5.991576
H    -6.241267  -0.933825  5.856120
H    -7.046127  1.268204  6.265989
H    -7.571797  0.778767  4.772655
H    -6.343020  1.892714  4.902017
N    -3.588933  2.095503  -0.169455
C    -3.878622  3.450676  -0.609073
H    -3.808633  1.337230  -0.814248
H    -4.868591  3.465651  -1.083734
H    -3.144311  3.784919  -1.362382
H    -3.828709  4.129592  0.248186
Cd    2.822878  -0.716337  2.613830
