35
Energy: -172332.233500 eV PBE+vdW (tier 2 basis)
C    -0.142507  -0.241224  -0.226989
C    -0.027752  -0.141812  1.250045
O    1.134179  0.062219  1.752689
H    0.713266  0.272752  -0.683390
H    -1.082501  0.167303  -0.605810
H    -0.064392  -1.299373  -0.533365
N    -1.090069  -0.245036  2.093767
C    -2.124281  -1.308492  2.120920
C    -1.382890  -2.653721  2.416155
O    -0.283070  -2.671126  3.090957
H    -0.889166  0.134359  3.020177
H    -2.675081  -1.112133  3.056455
C    -3.170324  -1.307301  0.986866
C    -4.216518  -0.161384  1.024872
C    -3.822634  1.167338  0.355391
C    -4.863455  2.288374  0.458201
N    -6.088980  2.093261  -0.430772
H    -3.756091  -2.230491  1.100201
H    -2.692993  -1.384283  0.000872
H    -4.512059  0.023185  2.070208
H    -5.113967  -0.567533  0.533344
H    -3.559578  1.006221  -0.703333
H    -2.921026  1.584059  0.828698
H    -4.431404  3.246681  0.146696
H    -5.249372  2.405067  1.479013
H    -6.730423  2.897130  -0.340483
H    -6.631785  1.252562  -0.188206
H    -5.835090  2.024912  -1.427718
N    -1.922505  -3.803543  2.079188
C    -1.364826  -5.126380  2.409596
H    -2.824179  -3.791247  1.608305
H    -1.927394  -5.881275  1.854393
H    -1.460397  -5.314905  3.486500
H    -0.308372  -5.170177  2.124574
Cd    1.431901  -1.419752  3.288209
