35
Energy: -172331.999054 eV PBE+vdW (tier 2 basis)
C    -0.026448  -0.902699  0.335350
C    -0.071398  -0.021303  1.533772
O    0.926946  0.066657  2.357563
H    0.779883  -0.565235  -0.334825
H    -0.955093  -0.916102  -0.240959
H    0.204566  -1.930763  0.648601
N    -1.130644  0.702472  1.875974
C    -2.495636  0.714569  1.330696
C    -2.983340  2.165897  1.625777
O    -2.753827  2.625306  2.744998
H    -1.034211  1.282498  2.721340
H    -2.458760  0.513772  0.254661
C    -3.385377  -0.332679  2.061757
C    -4.904846  -0.327597  1.755927
C    -5.750984  0.478573  2.761213
C    -7.264613  0.455680  2.537597
N    -7.934540  -0.840242  2.988926
H    -3.222955  -0.210719  3.142923
H    -2.969766  -1.313746  1.791118
H    -5.221154  -1.381765  1.758191
H    -5.099297  0.027238  0.731744
H    -5.473536  1.542274  2.732266
H    -5.524974  0.158643  3.791748
H    -7.540030  0.584431  1.483117
H    -7.753774  1.247353  3.117101
H    -8.955288  -0.791887  2.845836
H    -7.780151  -1.016805  3.992825
H    -7.598399  -1.664644  2.472291
N    -3.647547  2.869794  0.677661
C    -3.799290  2.594941  -0.745400
H    -3.858888  3.824767  0.979649
H    -4.659913  3.165368  -1.114429
H    -3.974709  1.531098  -0.934776
H    -2.916377  2.926681  -1.315543
Cd    3.024419  -0.215339  2.154804
