35
Energy: -172331.617628 eV PBE+vdW (tier 2 basis)
C    0.634576  -0.854944  0.257099
C    0.143897  -1.197520  1.633416
O    0.518781  -2.156047  2.285831
H    1.651747  -1.236452  0.122563
H    0.592486  0.218717  0.038076
H    -0.008102  -1.380548  -0.468308
N    -0.839270  -0.334681  2.185333
C    -1.336158  -0.514677  3.521497
C    -2.878761  -0.832560  3.478820
O    -3.438089  -0.967502  4.615177
H    -0.898406  0.600773  1.779342
H    -0.897075  -1.455718  3.896077
C    -1.014988  0.638425  4.507807
C    0.308475  0.509440  5.289407
C    1.624253  0.868362  4.567250
C    2.765529  0.894775  5.589526
N    4.100509  1.309624  4.986211
H    -1.820893  0.658044  5.253115
H    -1.071357  1.601471  3.976263
H    0.382573  -0.504444  5.712878
H    0.203067  1.182420  6.154979
H    1.528374  1.858272  4.092441
H    1.851948  0.136901  3.775792
H    2.933831  -0.089809  6.043599
H    2.568073  1.613830  6.394544
H    4.414033  0.661120  4.249567
H    4.839059  1.326086  5.706973
H    4.061609  2.253598  4.574029
N    -3.461503  -0.993818  2.308436
C    -4.853655  -1.359942  2.072924
H    -2.843168  -0.888567  1.501823
H    -5.011624  -1.468408  0.993503
H    -5.537625  -0.572488  2.422701
H    -5.088129  -2.343613  2.517414
Cd    -5.414580  -1.598773  5.266613
