35
Energy: -172332.637140 eV PBE+vdW (tier 2 basis)
C    -1.366260  -0.000738  -1.619989
C    -0.828189  0.463962  -0.321172
O    0.435348  0.655867  -0.204449
H    -0.836634  -0.936286  -1.873636
H    -1.111951  0.704322  -2.424399
H    -2.440605  -0.204554  -1.596156
N    -1.618047  0.652579  0.770700
C    -2.855790  1.434292  0.827623
C    -2.441365  2.929288  1.029454
O    -1.246233  3.281511  1.354679
H    -1.110800  0.623124  1.658460
H    -3.349947  1.355777  -0.152507
C    -3.806326  0.912958  1.937453
C    -4.296689  -0.522369  1.666281
C    -5.096689  -1.198928  2.804179
C    -6.547010  -0.729408  2.937536
N    -7.314878  -1.595296  3.928728
H    -4.653635  1.609738  2.015548
H    -3.281855  0.967079  2.905905
H    -3.423383  -1.163667  1.480107
H    -4.888151  -0.544013  0.736963
H    -4.568771  -1.071459  3.762690
H    -5.095728  -2.279257  2.591159
H    -7.092456  -0.808754  1.988486
H    -6.638729  0.299236  3.307113
H    -8.294886  -1.285738  4.019115
H    -6.898942  -1.567777  4.871841
H    -7.335899  -2.583841  3.634366
N    -3.362379  3.858528  0.887910
C    -3.145034  5.306902  1.034832
H    -4.315308  3.559058  0.687592
H    -3.940025  5.828858  0.494778
H    -2.171084  5.580533  0.618320
H    -3.177762  5.587141  2.095823
Cd    0.691617  2.480606  0.901505
