35
Energy: -172331.128732 eV PBE+vdW (tier 2 basis)
C    -0.084429  0.439104  -0.685444
C    -0.344518  0.040854  0.730532
O    0.519555  -0.618604  1.439707
H    0.817081  1.070040  -0.734891
H    -0.911309  1.001051  -1.133097
H    0.076089  -0.463260  -1.296224
N    -1.498967  0.354759  1.291658
C    -1.985866  -0.053060  2.621738
C    -3.483242  -0.353184  2.382828
O    -4.051229  0.294125  1.491817
H    -2.233586  0.775003  0.707427
H    -1.433706  -0.952745  2.921024
C    -1.783152  1.050248  3.705031
C    -2.522384  2.394519  3.501679
C    -3.929352  2.504491  4.140928
C    -3.994204  3.109913  5.545592
N    -3.939894  4.635693  5.536206
H    -2.045452  0.604426  4.676484
H    -0.699900  1.229438  3.746734
H    -2.602932  2.623453  2.430372
H    -1.865193  3.183701  3.899306
H    -4.392692  1.511482  4.225998
H    -4.605747  3.061341  3.474464
H    -4.940125  2.861710  6.041071
H    -3.172096  2.781598  6.194347
H    -4.734739  5.035768  5.014875
H    -3.987168  5.013979  6.494949
H    -3.076986  5.000886  5.109284
N    -4.150320  -1.251500  3.140290
C    -3.639532  -2.205240  4.110695
H    -5.130551  -1.358847  2.863315
H    -3.569231  -3.210706  3.663479
H    -4.347215  -2.272777  4.948721
H    -2.659656  -1.907268  4.492849
Cd    2.469947  -1.229500  0.779635
