35
Energy: -172331.691725 eV PBE+vdW (tier 2 basis)
C    0.360027  0.969618  1.158146
C    -0.524105  1.309593  2.303516
O    -0.179816  2.159717  3.215873
H    1.409212  0.992826  1.476320
H    0.217664  1.720817  0.362755
H    0.148078  -0.011615  0.722322
N    -1.720699  0.742837  2.503899
C    -2.384736  -0.385769  1.818965
C    -1.582240  -1.724512  1.979460
O    -1.118964  -2.278211  0.971383
H    -2.217317  1.123312  3.312850
H    -3.318733  -0.512348  2.386552
C    -2.739689  -0.100265  0.340865
C    -4.088619  -0.709834  -0.104227
C    -4.289264  -2.239277  -0.108228
C    -3.882063  -3.037124  -1.344806
N    -2.375801  -3.090044  -1.605245
H    -1.901928  -0.418056  -0.294078
H    -2.830439  0.988205  0.221564
H    -4.303676  -0.307335  -1.107633
H    -4.875008  -0.276700  0.532600
H    -5.372478  -2.419120  -0.033786
H    -3.875469  -2.720475  0.791867
H    -4.338843  -2.643570  -2.261180
H    -4.200870  -4.079757  -1.230934
H    -2.127977  -3.929420  -2.148311
H    -1.837337  -3.096271  -0.719775
H    -2.055963  -2.280868  -2.151215
N    -1.431599  -2.256401  3.206823
C    -1.982920  -1.824542  4.486102
H    -0.893008  -3.125957  3.211451
H    -2.143467  -2.708817  5.112902
H    -2.947503  -1.317931  4.361569
H    -1.282261  -1.159377  5.014378
Cd    0.985166  3.951313  3.200101
