35
Energy: -172332.001081 eV PBE+vdW (tier 2 basis)
C    -0.868515  -1.455310  1.004076
C    -0.026187  -0.628915  1.909794
O    1.230480  -0.863160  2.078724
H    -1.941735  -1.265077  1.084538
H    -0.691952  -2.521005  1.226427
H    -0.572761  -1.266076  -0.038125
N    -0.490209  0.428423  2.594591
C    -1.723945  1.180693  2.354914
C    -1.505191  2.056797  1.058335
O    -1.394895  1.435634  0.002760
H    0.215274  0.882733  3.181574
H    -2.497838  0.464994  2.048846
C    -2.181791  1.894862  3.647067
C    -3.664806  2.327912  3.636143
C    -4.093605  2.867405  5.017611
C    -5.595359  2.974912  5.287148
N    -6.271915  4.181998  4.641333
H    -1.522048  2.745439  3.887291
H    -2.040597  1.175972  4.468565
H    -4.283582  1.452212  3.383354
H    -3.841748  3.072389  2.843612
H    -3.599484  3.827512  5.238778
H    -3.729095  2.177283  5.794418
H    -5.780759  3.086533  6.362079
H    -6.149459  2.094984  4.936668
H    -7.271377  4.215591  4.896599
H    -6.226013  4.163865  3.613576
H    -5.852128  5.067792  4.960139
N    -1.424971  3.393621  1.160744
C    -1.129349  4.251765  0.013535
H    -1.401965  3.811993  2.086515
H    -0.043762  4.377697  -0.115628
H    -1.577425  5.236412  0.184531
H    -1.537080  3.789586  -0.892240
Cd    2.333428  -2.687794  1.813270
