35
Energy: -172331.759518 eV PBE+vdW (tier 2 basis)
C    -1.342192  -1.469033  -0.187121
C    -1.194152  -1.127782  1.255734
O    -0.572386  -1.808640  2.072550
H    -1.943029  -2.386280  -0.282538
H    -0.349379  -1.709180  -0.592097
H    -1.803903  -0.672873  -0.781949
N    -1.814834  0.045030  1.721520
C    -1.626226  0.532664  3.050300
C    -2.518145  -0.304023  4.111470
O    -3.510097  0.302291  4.629545
H    -2.480038  0.519393  1.110351
H    -0.610839  0.215621  3.357728
C    -1.793589  2.050443  3.177161
C    -0.618322  2.839886  2.554220
C    -0.739324  4.348556  2.853788
C    0.499614  5.207728  2.594769
N    0.734563  5.555008  1.126366
H    -1.856096  2.292014  4.247867
H    -2.752758  2.364620  2.737296
H    -0.574880  2.651963  1.469479
H    0.327900  2.463799  2.975503
H    -0.940675  4.480780  3.928226
H    -1.615420  4.782637  2.344780
H    1.423468  4.729077  2.943618
H    0.405540  6.174333  3.103731
H    0.905278  4.725784  0.541582
H    1.559659  6.167125  1.027218
H    -0.066181  6.064288  0.723515
N    -2.096585  -1.522813  4.338140
C    -2.705764  -2.517694  5.222645
H    -1.300350  -1.818966  3.741001
H    -3.729599  -2.771745  4.905513
H    -2.671469  -2.190690  6.271984
H    -2.113561  -3.436994  5.151669
Cd    -5.086859  -0.316584  5.996608
