35
Energy: -172331.340803 eV PBE+vdW (tier 2 basis)
C    -0.177405  -0.630236  0.444047
C    -0.256722  -0.397296  1.910276
O    0.774960  -0.535583  2.670543
H    0.514598  0.097332  -0.005488
H    -1.135514  -0.574118  -0.072883
H    0.245127  -1.632888  0.271435
N    -1.353316  0.001272  2.578038
C    -2.616973  0.685123  2.215989
C    -3.871433  -0.171325  2.669548
O    -4.730646  0.495626  3.249165
H    -1.178751  0.040092  3.586964
H    -2.653916  1.528446  2.917955
C    -2.788055  1.260085  0.793268
C    -3.692964  2.515934  0.705725
C    -5.214617  2.305839  0.552418
C    -5.895793  3.660155  0.337668
N    -7.405361  3.533628  0.187599
H    -3.119763  0.492291  0.080035
H    -1.790430  1.587888  0.466196
H    -3.337158  3.078976  -0.170267
H    -3.491695  3.163639  1.573202
H    -5.632536  1.819141  1.445123
H    -5.412353  1.650502  -0.311169
H    -5.544482  4.159794  -0.574026
H    -5.735455  4.339334  1.184570
H    -7.840358  4.458060  0.043414
H    -7.842988  3.120271  1.024164
H    -7.665645  2.947961  -0.619560
N    -3.995309  -1.479630  2.417283
C    -3.150361  -2.373639  1.629990
H    -4.857291  -1.878533  2.791651
H    -3.746946  -3.255206  1.374218
H    -2.275799  -2.712220  2.199984
H    -2.839580  -1.908930  0.687776
Cd    2.612843  -1.666666  2.563276
