35
Energy: -172331.652133 eV PBE+vdW (tier 2 basis)
C    -1.528788  -1.166456  0.172098
C    -1.144576  -1.209966  1.621929
O    -0.401220  -2.038680  2.118344
H    -2.376142  -1.857449  0.030669
H    -1.833681  -0.169285  -0.166570
H    -0.702875  -1.544959  -0.439542
N    -1.709162  -0.209137  2.455606
C    -1.345840  -0.090862  3.842044
C    -2.619449  -0.308303  4.743906
O    -2.435544  -0.165871  5.996277
H    -2.050470  0.629184  1.982150
H    -0.713989  -0.964997  4.077477
C    -0.597769  1.211920  4.217076
C    0.918349  1.242585  3.922310
C    1.346781  1.352753  2.445379
C    2.722839  1.977989  2.200782
N    3.898230  1.112456  2.648013
H    -0.721142  1.351430  5.299374
H    -1.097167  2.070133  3.739204
H    1.391312  0.371832  4.404254
H    1.291961  2.128379  4.461311
H    0.654844  2.021938  1.909812
H    1.287761  0.379949  1.932539
H    2.837753  2.933512  2.728342
H    2.884759  2.158062  1.131389
H    3.894932  0.932976  3.661725
H    4.792759  1.578827  2.429796
H    3.910677  0.200522  2.168029
N    -3.747016  -0.670791  4.166813
C    -5.004722  -0.985622  4.834700
H    -3.695076  -0.777692  3.151727
H    -5.730765  -1.315141  4.082082
H    -5.429280  -0.097341  5.325858
H    -4.884152  -1.832580  5.533930
Cd    -3.680577  -0.500059  7.749196
