35
Energy: -172332.818948 eV PBE+vdW (tier 2 basis)
C    -0.345924  1.179969  0.463295
C    -0.519643  -0.201518  1.001460
O    0.204344  -1.118023  0.476035
H    -0.440310  1.148235  -0.631896
H    0.678624  1.521098  0.674450
H    -1.062356  1.902280  0.869558
N    -1.420429  -0.390422  1.981121
C    -2.004719  -1.611864  2.599788
C    -1.030314  -2.339392  3.550706
O    -0.132460  -3.168333  3.131837
H    -1.864144  0.473980  2.283610
H    -2.799465  -1.209435  3.239423
C    -2.686231  -2.581875  1.600506
C    -3.916802  -1.972317  0.895794
C    -4.552025  -2.902339  -0.167253
C    -5.616653  -3.902941  0.303998
N    -7.037257  -3.353864  0.194573
H    -2.967650  -3.482077  2.169008
H    -1.972020  -2.918399  0.833024
H    -4.662016  -1.673011  1.651423
H    -3.617146  -1.044404  0.388939
H    -3.762491  -3.490550  -0.656763
H    -4.969399  -2.288500  -0.980193
H    -5.491541  -4.213653  1.348766
H    -5.615098  -4.805470  -0.317885
H    -7.181804  -2.498489  0.749332
H    -7.729174  -4.047521  0.519331
H    -7.277220  -3.128922  -0.783297
N    -1.143996  -2.198206  4.856335
C    -2.097837  -1.418974  5.659073
H    -0.475501  -2.762611  5.390175
H    -1.614675  -1.188174  6.614462
H    -3.003136  -2.006265  5.860854
H    -2.352322  -0.473283  5.171321
Cd    0.931788  -2.891726  1.342091
