35
Energy: -172331.624453 eV PBE+vdW (tier 2 basis)
C    -0.203232  -0.151391  -0.433272
C    -0.257179  -0.369449  1.048672
O    0.563523  -1.007731  1.694423
H    -1.073056  -0.641138  -0.899261
H    0.711815  -0.592679  -0.837244
H    -0.244453  0.916724  -0.689256
N    -1.329181  0.228810  1.736606
C    -1.479679  0.058809  3.150698
C    -2.946187  -0.399113  3.460162
O    -3.026013  -1.636165  3.750720
H    -1.880834  0.924103  1.234508
H    -0.838145  -0.799611  3.408977
C    -1.074771  1.258160  4.069654
C    0.441471  1.440496  4.305780
C    1.249440  2.124637  3.186308
C    2.528049  2.834723  3.639903
N    3.649092  1.894805  4.076853
H    -1.539459  1.081046  5.050116
H    -1.513005  2.190182  3.675324
H    0.880724  0.466545  4.574511
H    0.505092  2.061281  5.215006
H    0.646393  2.926840  2.732877
H    1.487204  1.425380  2.371166
H    2.349282  3.503697  4.491419
H    2.950562  3.430457  2.822069
H    3.923035  1.246129  3.324228
H    3.396044  1.330219  4.899667
H    4.491980  2.433256  4.331744
N    -3.943988  0.461514  3.414435
C    -5.357743  0.172390  3.678451
H    -3.709911  1.433736  3.222516
H    -5.923269  1.105799  3.588118
H    -5.498401  -0.196219  4.705719
H    -5.760136  -0.529531  2.934703
Cd    -4.589001  -3.091878  4.253564
