35
Energy: -172333.003233 eV PBE+vdW (tier 2 basis)
C    1.646947  -1.561089  3.097828
C    0.736816  -0.380960  3.129715
O    1.262009  0.768545  2.924006
H    2.185854  -1.563308  2.138319
H    1.125067  -2.515850  3.223637
H    2.411926  -1.450516  3.880027
N    -0.574656  -0.580652  3.350695
C    -1.698524  0.365067  3.181674
C    -1.932698  1.178646  4.480832
O    -1.209227  2.209136  4.753834
H    -0.834253  -1.543307  3.559751
H    -1.389362  1.106108  2.425060
C    -2.949412  -0.362086  2.638858
C    -2.818126  -0.872353  1.188307
C    -4.136095  -1.493042  0.673207
C    -4.008067  -1.968755  -0.776094
N    -5.310561  -2.559320  -1.298895
H    -3.785389  0.351693  2.689560
H    -3.208926  -1.203895  3.304567
H    -2.009974  -1.616056  1.114603
H    -2.532253  -0.032523  0.535685
H    -4.942872  -0.746084  0.745949
H    -4.423034  -2.340233  1.316716
H    -3.253605  -2.757342  -0.889476
H    -3.755006  -1.148837  -1.460023
H    -5.206713  -2.878600  -2.274868
H    -6.079580  -1.872296  -1.287104
H    -5.617809  -3.373889  -0.746204
N    -2.878295  0.838941  5.327386
C    -3.164963  1.543168  6.589759
H    -3.480750  0.055789  5.084669
H    -2.241026  1.670358  7.164094
H    -3.877123  0.942729  7.161306
H    -3.599594  2.528386  6.378725
Cd    0.615807  2.597455  3.762560
