35
Energy: -172332.735828 eV PBE+vdW (tier 2 basis)
C    -3.251596  -0.962114  -0.049934
C    -2.469606  -1.150889  1.205177
O    -1.911744  -2.288779  1.380899
H    -2.613192  -1.214494  -0.909194
H    -3.639464  0.055416  -0.170122
H    -4.086666  -1.678047  -0.064709
N    -2.378844  -0.125288  2.071015
C    -1.538192  -0.022285  3.277041
C    -2.150690  -0.807271  4.472852
O    -1.667846  -1.975893  4.753670
H    -2.898819  0.710993  1.810667
H    -0.598493  -0.558491  3.067827
C    -1.189733  1.454243  3.586918
C    -0.119191  2.135391  2.700771
C    1.350722  1.764223  3.019174
C    2.350946  2.923969  3.037763
N    2.663886  3.521436  1.668447
H    -0.868988  1.509442  4.638005
H    -2.109604  2.052087  3.527742
H    -0.263820  3.213883  2.868318
H    -0.344439  1.970095  1.635994
H    1.721679  0.965147  2.358852
H    1.416015  1.352872  4.038784
H    3.317301  2.593616  3.437294
H    1.996036  3.759895  3.654050
H    3.354883  4.283438  1.758530
H    1.834922  3.925159  1.210057
H    3.070663  2.824878  1.026932
N    -3.111981  -0.360158  5.254046
C    -3.847622  0.911077  5.272230
H    -3.364948  -1.021265  5.995183
H    -4.806399  0.726366  5.767646
H    -4.048633  1.266501  4.257754
H    -3.302170  1.670882  5.846255
Cd    -1.301706  -3.296345  3.143185
