35
Energy: -172332.897161 eV PBE+vdW (tier 2 basis)
C    -0.108369  -0.347041  -0.013489
C    -0.101010  -0.179779  1.467298
O    1.025109  0.074017  2.018806
H    0.302992  0.564647  -0.472717
H    -1.107508  -0.536510  -0.421392
H    0.568332  -1.168244  -0.290074
N    -1.263366  -0.289221  2.137126
C    -1.534581  0.061186  3.543390
C    -1.077207  -1.069922  4.503391
O    0.041520  -0.924504  5.134957
H    -2.075838  -0.494274  1.557762
H    -0.875267  0.906824  3.800959
C    -2.987857  0.577551  3.674122
C    -3.411371  1.079932  5.069630
C    -4.887638  1.535705  5.048113
C    -5.520139  1.929385  6.387497
N    -5.296360  3.386349  6.784193
H    -3.691616  -0.195438  3.334568
H    -3.072287  1.403895  2.951344
H    -2.746190  1.901002  5.382515
H    -3.294685  0.280457  5.818792
H    -5.505511  0.704988  4.674943
H    -5.032871  2.343785  4.312379
H    -5.152812  1.325682  7.226832
H    -6.609501  1.815095  6.342060
H    -5.769242  3.595049  7.677844
H    -5.686798  4.033458  6.082640
H    -4.302745  3.623181  6.908104
N    -1.756338  -2.175227  4.733495
C    -3.044454  -2.643255  4.207160
H    -1.291419  -2.807653  5.391537
H    -3.156374  -2.389819  3.149230
H    -3.879840  -2.237049  4.791231
H    -3.060183  -3.734046  4.299283
Cd    1.664232  -0.116975  4.024433
