35
Energy: -172331.946048 eV PBE+vdW (tier 2 basis)
C    0.447847  0.541892  0.732908
C    -0.130304  -0.038451  1.975106
O    0.636056  -0.436799  2.937268
H    1.132799  -0.188371  0.280483
H    1.022811  1.442898  1.013198
H    -0.281822  0.823436  -0.025519
N    -1.437473  -0.202581  2.231095
C    -2.616011  -0.254820  1.341063
C    -2.434649  -1.422560  0.314116
O    -1.417703  -1.447192  -0.375880
H    -1.600113  -0.581940  3.166144
H    -3.440330  -0.503328  2.024065
C    -2.933032  1.078496  0.613686
C    -4.360680  1.191676  0.023080
C    -5.409310  1.854026  0.942839
C    -6.711478  2.094621  0.174384
N    -7.739484  2.866678  0.990777
H    -2.222210  1.210438  -0.209776
H    -2.749414  1.896864  1.324547
H    -4.720567  0.207969  -0.316375
H    -4.275565  1.795886  -0.891091
H    -5.012081  2.817813  1.300037
H    -5.606564  1.236316  1.833859
H    -7.202163  1.159104  -0.121690
H    -6.541494  2.691902  -0.730434
H    -8.603210  3.019128  0.447080
H    -7.390191  3.796032  1.268350
H    -8.008138  2.368728  1.852001
N    -3.423590  -2.337042  0.224690
C    -3.362239  -3.478640  -0.681774
H    -4.159963  -2.330582  0.926628
H    -2.887208  -4.343967  -0.192065
H    -2.768734  -3.208780  -1.561987
H    -4.382681  -3.761317  -0.964578
Cd    2.672647  0.081360  3.348126
