35
Energy: -172331.931115 eV PBE+vdW (tier 2 basis)
C    0.029136  2.143507  0.844434
C    -0.139959  0.973400  1.748063
O    0.853342  0.472170  2.414857
H    0.363488  3.012295  1.433151
H    -0.883071  2.430622  0.315135
H    0.808622  1.920628  0.101984
N    -1.290314  0.329984  1.913065
C    -2.561417  0.440326  1.182985
C    -3.616168  -0.004044  2.243708
O    -3.367986  -1.014772  2.901174
H    -1.279988  -0.457865  2.576130
H    -2.715782  1.479552  0.873094
C    -2.561508  -0.515477  -0.045038
C    -3.867276  -0.704112  -0.851090
C    -4.881444  -1.719618  -0.264743
C    -5.488853  -2.712197  -1.256511
N    -6.473812  -2.094086  -2.246814
H    -2.203077  -1.497858  0.297468
H    -1.793233  -0.118802  -0.725490
H    -3.533666  -1.059980  -1.838535
H    -4.345026  0.269182  -1.040684
H    -5.683387  -1.214395  0.295302
H    -4.379998  -2.361476  0.475847
H    -6.055816  -3.489784  -0.730715
H    -4.721184  -3.203749  -1.867767
H    -6.850424  -2.815689  -2.881299
H    -6.040091  -1.371893  -2.838785
H    -7.279903  -1.665935  -1.768621
N    -4.755610  0.708400  2.406350
C    -5.101494  2.023545  1.880540
H    -5.327981  0.359836  3.179634
H    -4.838066  2.113943  0.821054
H    -4.611914  2.830348  2.448951
H    -6.183693  2.159248  1.986353
Cd    2.677098  1.271363  3.161419
