35
Energy: -172332.027448 eV PBE+vdW (tier 2 basis)
C    -0.253988  -1.386587  1.059339
C    -0.237653  -0.334510  2.113987
O    0.715371  -0.262106  2.990260
H    -1.199515  -1.454813  0.514571
H    -0.041202  -2.363979  1.512021
H    0.539639  -1.173513  0.324566
N    -1.194220  0.573174  2.257806
C    -2.437977  0.771861  1.510206
C    -2.626906  2.320309  1.525455
O    -2.202448  2.949690  2.495958
H    -1.039405  1.304534  2.968026
H    -2.302957  0.402501  0.487509
C    -3.697983  0.093859  2.133259
C    -4.012483  0.476592  3.590393
C    -5.474620  0.257779  4.041324
C    -5.885378  -1.203713  4.221884
N    -7.281669  -1.305105  4.824849
H    -3.562954  -0.993411  2.021691
H    -4.542185  0.361917  1.478427
H    -3.810545  1.547973  3.742757
H    -3.330455  -0.048300  4.276861
H    -6.156262  0.752645  3.330886
H    -5.594270  0.780668  5.003047
H    -5.221363  -1.735677  4.914995
H    -5.925564  -1.762599  3.278797
H    -7.992951  -0.857752  4.227332
H    -7.330640  -0.847916  5.748176
H    -7.567940  -2.287221  4.956046
N    -3.277811  2.933248  0.506634
C    -3.681381  2.416340  -0.789242
H    -3.309001  3.950851  0.621518
H    -4.596846  2.938027  -1.100524
H    -3.876902  1.340770  -0.755046
H    -2.914220  2.625230  -1.553818
Cd    2.791625  -0.749412  2.924669
