35
Energy: -172331.476041 eV PBE+vdW (tier 2 basis)
C    0.521778  0.816433  0.565882
C    0.208376  0.450261  1.974064
O    1.092098  0.531473  2.912921
H    -0.084234  0.271604  -0.165812
H    1.575299  0.596062  0.352444
H    0.344786  1.897260  0.434105
N    -0.987223  0.010557  2.398604
C    -2.191827  -0.465912  1.677693
C    -1.855042  -1.751877  0.858270
O    -1.218273  -1.618814  -0.190744
H    -1.007034  -0.144205  3.408318
H    -2.873902  -0.734902  2.492687
C    -2.847349  0.611328  0.783621
C    -4.209111  0.225406  0.159665
C    -5.418763  0.303333  1.108599
C    -6.770102  -0.065772  0.491040
N    -7.327939  0.996453  -0.452682
H    -2.164411  0.852450  -0.038650
H    -2.954827  1.522029  1.391264
H    -4.149498  -0.776455  -0.294439
H    -4.347572  0.917092  -0.685829
H    -5.483575  1.300972  1.573467
H    -5.298894  -0.397646  1.949157
H    -6.724279  -0.992526  -0.094902
H    -7.533078  -0.189908  1.268416
H    -6.721916  1.162320  -1.268241
H    -8.249674  0.709818  -0.817456
H    -7.462007  1.899390  0.026356
N    -2.263527  -2.969521  1.282443
C    -2.823314  -3.404466  2.554138
H    -1.972474  -3.718068  0.646853
H    -3.587368  -4.168961  2.358176
H    -3.286414  -2.579874  3.103014
H    -2.046265  -3.867150  3.182390
Cd    2.908175  1.661738  3.013076
