35
Energy: -172331.989442 eV PBE+vdW (tier 2 basis)
C    -0.660770  -2.444434  1.307530
C    -0.138830  -1.130513  1.776586
O    0.958111  -1.039477  2.463828
H    -1.636412  -2.389328  0.817678
H    0.050145  -2.880365  0.587057
H    -0.739164  -3.131965  2.161312
N    -0.760600  0.022353  1.566783
C    -2.052324  0.289247  0.926128
C    -1.894148  1.733228  0.373221
O    -1.180436  2.522358  0.995529
H    -0.285073  0.880035  1.883684
H    -2.192784  -0.428416  0.109331
C    -3.280173  0.187369  1.882524
C    -3.421439  1.221410  3.025128
C    -4.297927  2.439480  2.672677
C    -4.476785  3.484396  3.776100
N    -5.480616  3.077828  4.852605
H    -3.240808  -0.826246  2.307785
H    -4.180045  0.198912  1.249558
H    -2.433784  1.565886  3.368926
H    -3.857060  0.680333  3.879725
H    -5.285785  2.109118  2.310929
H    -3.853139  2.993729  1.833646
H    -3.539963  3.706649  4.302455
H    -4.865106  4.422717  3.363152
H    -5.583038  3.825522  5.556267
H    -5.201334  2.226006  5.358171
H    -6.416765  2.910524  4.454528
N    -2.561554  2.096020  -0.750115
C    -3.289891  1.270842  -1.700964
H    -2.331919  3.046710  -1.053364
H    -3.787420  0.429686  -1.208683
H    -2.621368  0.890108  -2.491440
H    -4.047684  1.895680  -2.190923
Cd    2.712755  -2.245544  2.518925
