35
Energy: -172331.844496 eV PBE+vdW (tier 2 basis)
C    0.637005  0.491684  0.974097
C    -0.027026  0.004660  2.211240
O    0.606291  -0.122871  3.328833
H    1.546187  -0.104099  0.798874
H    0.956210  1.534568  1.120126
H    0.010655  0.422087  0.080998
N    -1.327460  -0.308295  2.292066
C    -2.468717  -0.012397  1.390557
C    -2.363743  -0.941885  0.127599
O    -1.899947  -0.479294  -0.911771
H    -1.586719  -0.683014  3.208438
H    -3.348956  -0.316899  1.971763
C    -2.625555  1.471272  1.010804
C    -3.985983  1.802337  0.361821
C    -4.146127  3.322662  0.160116
C    -5.519685  3.813018  -0.298162
N    -5.781056  3.623093  -1.790762
H    -1.814718  1.773100  0.334838
H    -2.520241  2.051798  1.939919
H    -4.800750  1.440130  1.009342
H    -4.072084  1.266981  -0.596987
H    -3.364897  3.713132  -0.512609
H    -3.975288  3.829294  1.122324
H    -5.620847  4.890992  -0.125746
H    -6.343701  3.307205  0.220748
H    -6.708131  3.995325  -2.048469
H    -5.763164  2.634585  -2.075414
H    -5.085871  4.125057  -2.362616
N    -2.782309  -2.228843  0.220235
C    -3.560645  -2.890302  1.259094
H    -2.716148  -2.726021  -0.672186
H    -3.321279  -3.961434  1.231296
H    -4.642273  -2.789646  1.077117
H    -3.319896  -2.509266  2.255534
Cd    2.663662  -0.534304  3.825384
