35
Energy: -172331.841913 eV PBE+vdW (tier 2 basis)
C    0.400267  1.178240  1.397077
C    0.258946  -0.265957  1.726517
O    1.278966  -1.017904  1.959677
H    0.887969  1.274600  0.414340
H    1.054199  1.662121  2.138278
H    -0.541550  1.732298  1.363457
N    -0.921178  -0.905964  1.747861
C    -2.224984  -0.444027  1.234825
C    -3.344840  -0.961627  2.211470
O    -4.090216  -1.881942  1.859522
H    -0.843276  -1.903174  1.964483
H    -2.232502  0.651986  1.276244
C    -2.522528  -0.874885  -0.213770
C    -2.437355  -2.379959  -0.519006
C    -3.289124  -2.840815  -1.716831
C    -4.806543  -2.719269  -1.591991
N    -5.379499  -3.560343  -0.457966
H    -3.522939  -0.475253  -0.435498
H    -1.838061  -0.317529  -0.871424
H    -2.710654  -2.969366  0.372260
H    -1.393629  -2.656329  -0.732440
H    -3.027152  -3.882313  -1.958047
H    -3.017578  -2.262618  -2.613824
H    -5.149402  -1.694809  -1.402003
H    -5.292740  -3.067996  -2.510724
H    -6.409517  -3.527800  -0.460844
H    -5.109468  -4.550759  -0.546169
H    -5.057035  -3.213480  0.461072
N    -3.492076  -0.368637  3.416646
C    -2.933345  0.878976  3.920383
H    -4.286619  -0.741437  3.944390
H    -1.927853  1.055961  3.531013
H    -2.877799  0.809540  5.014677
H    -3.585740  1.731604  3.674400
Cd    3.286489  -0.623296  2.641191
