35
Energy: -172332.152317 eV PBE+vdW (tier 2 basis)
C    -0.616078  1.679266  -1.012081
C    -0.093869  0.399146  -0.471551
O    0.684805  -0.285151  -1.229899
H    -0.838543  2.412642  -0.235443
H    -1.517562  1.492170  -1.619293
H    0.133849  2.081703  -1.708113
N    -0.328843  -0.059848  0.788059
C    -1.606732  -0.269672  1.500787
C    -2.222143  -1.579748  0.916501
O    -1.895114  -2.002205  -0.256652
H    0.369031  -0.756213  1.061163
H    -1.312304  -0.497521  2.536984
C    -2.625574  0.900483  1.546124
C    -2.476298  1.887383  2.728880
C    -1.341008  2.922513  2.638333
C    -1.141431  3.797864  3.880607
N    -2.224708  4.853179  4.087711
H    -3.622268  0.448703  1.633775
H    -2.653973  1.427136  0.584857
H    -2.371231  1.311020  3.662800
H    -3.446933  2.402012  2.805836
H    -1.472571  3.567792  1.754070
H    -0.372257  2.418136  2.498856
H    -1.117095  3.207555  4.805491
H    -0.201933  4.358732  3.811417
H    -2.287885  5.502672  3.289529
H    -2.015216  5.424825  4.921491
H    -3.159187  4.446362  4.233782
N    -3.112190  -2.272205  1.599429
C    -3.720043  -2.005888  2.906112
H    -3.450451  -3.109625  1.116087
H    -3.812431  -2.959202  3.439171
H    -4.724902  -1.580668  2.778242
H    -3.100843  -1.328362  3.500570
Cd    -0.085193  -2.285858  -1.375684
