35
Energy: -172333.193638 eV PBE+vdW (tier 2 basis)
C    0.241439  2.844508  2.048158
C    0.235090  1.692086  2.993008
O    0.616748  1.919322  4.193294
H    -0.415904  3.630104  2.452373
H    -0.096181  2.579111  1.040262
H    1.251034  3.276414  2.003895
N    -0.185107  0.493111  2.548674
C    -0.551702  -0.702899  3.336904
C    0.696884  -1.580805  3.604956
O    1.436897  -1.363178  4.634714
H    -0.418373  0.462366  1.557478
H    -0.878941  -0.350927  4.329552
C    -1.774674  -1.396424  2.687442
C    -2.392867  -2.512731  3.556547
C    -3.861407  -2.883103  3.238097
C    -4.068109  -3.705160  1.964392
N    -5.515212  -4.165998  1.840545
H    -1.517442  -1.759010  1.677092
H    -2.518819  -0.599205  2.536227
H    -2.390677  -2.180260  4.605349
H    -1.770311  -3.420156  3.533226
H    -4.471723  -1.966932  3.197827
H    -4.231778  -3.464799  4.096414
H    -3.463384  -4.621007  1.963159
H    -3.854565  -3.144359  1.046038
H    -5.660867  -4.725701  0.986027
H    -6.173048  -3.372791  1.799428
H    -5.798608  -4.754347  2.639324
N    1.012247  -2.552467  2.776693
C    2.195561  -3.420803  2.877120
H    0.377544  -2.731530  2.001345
H    1.901681  -4.402845  3.269896
H    2.928497  -2.966196  3.547143
H    2.622960  -3.544767  1.876032
Cd    1.467118  0.548376  5.554372
