35
Energy: -172331.845776 eV PBE+vdW (tier 2 basis)
C    0.127279  0.550425  -0.205800
C    0.110931  -0.685642  0.624932
O    1.018824  -1.598500  0.517571
H    0.926978  1.212437  0.160906
H    -0.812526  1.109550  -0.180766
H    0.334853  0.289158  -1.252992
N    -0.840040  -0.937709  1.523051
C    -1.826676  0.002725  2.083304
C    -1.050808  1.144928  2.811007
O    0.157330  1.033468  3.007240
H    -0.676015  -1.785264  2.069570
H    -2.420521  0.420518  1.256605
C    -2.746470  -0.750533  3.077284
C    -3.721811  -1.758081  2.432671
C    -4.397487  -2.701106  3.456298
C    -5.615116  -2.173603  4.225902
N    -6.937677  -2.509098  3.539698
H    -3.297902  0.001661  3.658855
H    -2.100688  -1.262240  3.810327
H    -3.177218  -2.392867  1.718660
H    -4.470146  -1.218644  1.828920
H    -3.656514  -3.003052  4.210632
H    -4.669671  -3.642528  2.953693
H    -5.611446  -1.084838  4.359433
H    -5.687085  -2.633405  5.218217
H    -7.739302  -2.142124  4.075745
H    -7.069526  -3.529347  3.465108
H    -7.003447  -2.121984  2.587999
N    -1.715209  2.256765  3.239457
C    -3.005664  2.783148  2.839944
H    -1.106036  2.893709  3.761961
H    -2.878170  3.682144  2.214906
H    -3.559569  3.097221  3.738844
H    -3.593531  2.044180  2.289906
Cd    2.770690  -1.733055  -0.691466
