35
Energy: -172333.023400 eV PBE+vdW (tier 2 basis)
C    0.239687  1.877716  0.315383
C    0.100513  1.264894  1.666948
O    1.082642  1.400946  2.473874
H    -0.654216  1.760231  -0.307052
H    1.107119  1.435056  -0.195346
H    0.462609  2.948633  0.434047
N    -1.041619  0.619629  1.971633
C    -1.469920  0.125548  3.290754
C    -0.822280  -1.245876  3.626899
O    0.208528  -1.263959  4.407347
H    -1.726324  0.569944  1.219572
H    -1.035166  0.805466  4.042428
C    -3.007611  0.218506  3.464792
C    -3.480775  1.671383  3.680760
C    -5.011224  1.897593  3.694008
C    -5.712225  1.475302  4.987480
N    -7.168323  1.924207  4.994216
H    -3.279388  -0.414899  4.322238
H    -3.510381  -0.215701  2.588058
H    -3.084311  2.302590  2.872023
H    -3.043874  2.067752  4.611107
H    -5.474306  1.393352  2.830884
H    -5.171527  2.976573  3.544227
H    -5.254371  1.937633  5.871261
H    -5.734236  0.388852  5.136500
H    -7.251901  2.949776  4.918541
H    -7.643983  1.646042  5.866620
H    -7.704754  1.517562  4.213002
N    -1.260802  -2.408480  3.190651
C    -2.405266  -2.750488  2.338220
H    -0.707690  -3.202551  3.527205
H    -2.553292  -2.001029  1.555651
H    -3.317157  -2.868436  2.936855
H    -2.182003  -3.707867  1.856071
Cd    1.640828  0.283103  4.186141
