35
Energy: -172331.397058 eV PBE+vdW (tier 2 basis)
C    -0.280459  1.143975  -0.132323
C    -0.421076  0.460535  1.196175
O    0.136322  -0.588188  1.493985
H    0.577440  1.833000  -0.094707
H    -1.181602  1.715390  -0.390285
H    -0.071928  0.391932  -0.900222
N    -1.214326  1.095736  2.166526
C    -1.244191  0.566244  3.505038
C    -2.726747  0.562030  3.980525
O    -3.290665  -0.576306  3.855866
H    -1.479401  2.064777  1.988558
H    -0.961853  -0.493618  3.380582
C    -0.233327  1.226616  4.509103
C    0.388380  0.281825  5.557958
C    1.520988  -0.602155  4.997547
C    2.209427  -1.535271  5.996506
N    3.224932  -0.834219  6.896311
H    -0.695809  2.084046  5.018106
H    0.564533  1.649430  3.881690
H    -0.386527  -0.346608  6.026342
H    0.766886  0.928663  6.365491
H    2.277487  0.023220  4.494968
H    1.134632  -1.262337  4.206391
H    2.780024  -2.310313  5.471560
H    1.500824  -2.032055  6.671228
H    3.675288  -1.510262  7.532854
H    2.802130  -0.103746  7.485733
H    3.977979  -0.393595  6.346790
N    -3.290933  1.662005  4.438569
C    -4.680964  1.816913  4.878750
H    -2.699245  2.487957  4.509760
H    -4.800555  2.820426  5.300666
H    -4.921219  1.095761  5.673387
H    -5.375620  1.733090  4.030256
Cd    -5.333670  -1.373866  3.907021
