35
Energy: -172332.548149 eV PBE+vdW (tier 2 basis)
C    -1.506700  0.873935  -0.366180
C    -0.992108  0.374526  0.930434
O    0.082672  -0.326407  0.942651
H    -1.587849  0.005973  -1.043003
H    -0.776138  1.544665  -0.842348
H    -2.486216  1.353851  -0.287412
N    -1.638178  0.597423  2.105974
C    -2.092092  1.899866  2.608850
C    -0.829789  2.632891  3.153504
O    0.230869  1.975225  3.492120
H    -1.359553  -0.042565  2.853414
H    -2.499988  2.474023  1.764988
C    -3.158215  1.728828  3.718541
C    -4.503575  1.135024  3.251398
C    -5.440160  0.891852  4.454767
C    -6.731793  0.113084  4.190627
N    -7.876335  0.958038  3.635953
H    -3.328258  2.709541  4.184723
H    -2.726924  1.098547  4.514364
H    -4.329381  0.180763  2.730430
H    -4.964511  1.815732  2.517046
H    -5.671462  1.839080  4.969093
H    -4.901408  0.290582  5.203069
H    -7.119639  -0.307675  5.125832
H    -6.592188  -0.712123  3.481059
H    -8.723648  0.382063  3.509961
H    -7.660723  1.377958  2.721690
H    -8.129008  1.722608  4.279865
N    -0.824925  3.936543  3.339254
C    -1.893772  4.921280  3.145993
H    0.052128  4.303264  3.721633
H    -2.684407  4.527638  2.501921
H    -1.459788  5.809242  2.671389
H    -2.312914  5.214734  4.117707
Cd    1.319831  0.383226  2.555038
