35
Energy: -172332.877638 eV PBE+vdW (tier 2 basis)
C    -0.812514  0.421385  -0.717101
C    -0.371670  0.540625  0.703292
O    0.719622  -0.052900  1.017110
H    -1.778623  0.897747  -0.916620
H    -0.876266  -0.646523  -0.975297
H    -0.042915  0.853621  -1.373006
N    -1.144263  1.240503  1.551587
C    -1.164431  1.361443  3.037253
C    -0.040732  2.282699  3.563184
O    1.157621  1.861493  3.788486
H    -1.956849  1.655031  1.099758
H    -2.105706  1.892383  3.225198
C    -1.263641  0.001565  3.770756
C    -1.855900  0.095216  5.193778
C    -1.928269  -1.293880  5.862608
C    -2.392909  -1.341737  7.322156
N    -3.909005  -1.349653  7.501121
H    -0.283276  -0.500048  3.820228
H    -1.897589  -0.646120  3.147926
H    -2.856794  0.553168  5.128324
H    -1.242943  0.763340  5.819776
H    -0.919346  -1.733459  5.874734
H    -2.531567  -1.987287  5.253815
H    -2.020808  -0.496373  7.914510
H    -2.048423  -2.265978  7.800674
H    -4.154322  -1.417162  8.501771
H    -4.342498  -2.160094  7.033439
H    -4.363956  -0.500732  7.138700
N    -0.303849  3.540622  3.856317
C    -1.574284  4.279445  3.768005
H    0.503091  4.067627  4.202396
H    -1.361447  5.329096  3.991022
H    -2.298567  3.913258  4.506069
H    -1.991837  4.225812  2.755983
Cd    2.077135  0.428533  2.541824
