35
Energy: -172332.861682 eV PBE+vdW (tier 2 basis)
C    -0.911830  0.140391  -0.049969
C    -0.731374  -0.115860  1.409465
O    0.299179  -0.795297  1.751128
H    -1.859519  0.631802  -0.295121
H    -0.843944  -0.815688  -0.589161
H    -0.075182  0.757175  -0.411002
N    -1.657490  0.362363  2.258241
C    -1.886402  0.149326  3.714383
C    -0.897323  0.955610  4.591546
O    0.311828  0.578102  4.822112
H    -2.367806  0.930197  1.801502
H    -2.871177  0.605557  3.881916
C    -1.973610  -1.347815  4.141688
C    -3.390598  -1.929643  4.364919
C    -4.248742  -2.148949  3.102054
C    -5.313171  -3.247052  3.200619
N    -6.487282  -2.928479  4.122501
H    -1.433415  -1.461834  5.093059
H    -1.449239  -1.974487  3.405405
H    -3.920218  -1.304705  5.102255
H    -3.229435  -2.900785  4.858314
H    -3.604370  -2.486955  2.275132
H    -4.710597  -1.211539  2.751907
H    -4.890550  -4.189317  3.572309
H    -5.760349  -3.439952  2.218114
H    -6.200835  -2.790792  5.101917
H    -7.166024  -3.706722  4.118362
H    -6.999641  -2.086267  3.821754
N    -1.341339  2.050755  5.173384
C    -0.564466  2.934549  6.054663
H    -2.318197  2.302760  5.032415
H    -0.812308  3.973241  5.809297
H    0.503076  2.755562  5.910791
H    -0.833797  2.738257  7.101189
Cd    1.403147  -0.684508  3.540915
