35
Energy: -172331.349642 eV PBE+vdW (tier 2 basis)
C    -0.204516  1.135976  0.199471
C    -0.076950  0.887772  1.667751
O    0.950024  1.016191  2.310458
H    -0.100008  0.192045  -0.357795
H    0.612463  1.793427  -0.118034
H    -1.169019  1.592276  -0.058748
N    -1.205558  0.457144  2.422348
C    -2.226852  -0.438448  1.951517
C    -3.637538  0.299173  1.980241
O    -4.623949  -0.404289  1.603134
H    -0.971267  0.389662  3.417823
H    -2.069115  -0.639389  0.880560
C    -2.313622  -1.770024  2.734250
C    -1.098502  -2.726507  2.633256
C    0.082019  -2.442233  3.589873
C    0.887915  -3.662025  4.046003
N    1.794312  -4.266486  2.976595
H    -3.194674  -2.296850  2.343971
H    -2.531928  -1.555484  3.793361
H    -0.760711  -2.785720  1.586256
H    -1.505366  -3.721787  2.870566
H    -0.308464  -2.028757  4.533474
H    0.765464  -1.674942  3.193731
H    0.239198  -4.479651  4.385451
H    1.556987  -3.392959  4.872138
H    2.319693  -5.067290  3.361744
H    2.491854  -3.588209  2.636496
H    1.271361  -4.617190  2.162202
N    -3.668938  1.557173  2.365844
C    -4.850571  2.411935  2.446268
H    -2.759533  1.954415  2.613039
H    -4.541876  3.400487  2.805102
H    -5.576563  2.016788  3.172876
H    -5.301681  2.561799  1.452066
Cd    -6.765585  -0.029687  1.273845
