35
Energy: -172331.861821 eV PBE+vdW (tier 2 basis)
C    -0.546283  -0.310800  -0.441180
C    -0.310541  0.536378  0.766480
O    0.772920  1.231217  0.929893
H    0.233789  -1.085897  -0.502307
H    -0.501941  0.312676  -1.347873
H    -1.517538  -0.817008  -0.428123
N    -1.227269  0.581869  1.717528
C    -1.111463  1.245029  3.028143
C    -1.733969  0.228464  4.013057
O    -2.613891  -0.522480  3.567925
H    -2.031141  -0.056700  1.659897
H    -0.044380  1.404021  3.228388
C    -1.849561  2.611984  3.099112
C    -3.382153  2.601756  2.931390
C    -3.946880  4.036321  2.985059
C    -5.426670  4.210852  2.642012
N    -6.379443  3.818043  3.768899
H    -1.397166  3.256765  2.330511
H    -1.583247  3.066173  4.065708
H    -3.838099  1.971541  3.711888
H    -3.653841  2.144717  1.966991
H    -3.414843  4.658230  2.248779
H    -3.730653  4.505239  3.959229
H    -5.731196  3.619043  1.769559
H    -5.650481  5.263840  2.433687
H    -6.306311  2.823826  4.023860
H    -6.207904  4.374034  4.619773
H    -7.359146  3.987049  3.492651
N    -1.366520  0.192230  5.312376
C    -0.290546  0.886579  5.996261
H    -1.863399  -0.524938  5.849110
H    0.110747  1.705646  5.394675
H    0.519875  0.181312  6.244052
H    -0.669441  1.288882  6.947514
Cd    2.419420  1.338486  -0.447219
