35
Energy: -172332.566378 eV PBE+vdW (tier 2 basis)
C    -0.383233  0.065624  -0.159011
C    -0.354398  0.134811  1.323454
O    0.724160  0.539885  1.887417
H    0.323134  0.807873  -0.555188
H    -1.381177  0.230455  -0.572172
H    -0.005635  -0.916935  -0.491344
N    -1.412286  -0.192656  2.112763
C    -2.242724  -1.417445  2.078273
C    -1.317085  -2.614045  2.465021
O    -0.261058  -2.445158  3.185505
H    -1.355871  0.226495  3.042129
H    -2.909464  -1.305067  2.949946
C    -3.151798  -1.599969  0.844939
C    -4.157078  -0.445369  0.651148
C    -5.196211  -0.742896  -0.452023
C    -6.207034  0.398774  -0.588325
N    -7.264304  0.105105  -1.643837
H    -3.734477  -2.520540  1.006820
H    -2.557326  -1.768992  -0.063852
H    -3.621662  0.486701  0.414536
H    -4.682212  -0.263209  1.602153
H    -5.728221  -1.676813  -0.209106
H    -4.685180  -0.905428  -1.414494
H    -5.732707  1.340440  -0.891711
H    -6.756610  0.575854  0.344756
H    -7.935806  0.884996  -1.721176
H    -7.809907  -0.740877  -1.420584
H    -6.852811  -0.032702  -2.579058
N    -1.660763  -3.840211  2.138076
C    -0.933627  -5.058943  2.530341
H    -2.531519  -3.970593  1.628497
H    -1.244078  -5.870543  1.866774
H    -1.175717  -5.321643  3.568470
H    0.144313  -4.896019  2.438567
Cd    1.150178  -0.867668  3.460507
