35
Energy: -172332.574720 eV PBE+vdW (tier 2 basis)
C    -0.145836  -0.524282  0.183296
C    0.006872  -0.153166  1.607509
O    1.166672  -0.228232  2.152977
H    0.154821  -1.584611  0.095076
H    0.557911  0.033905  -0.449488
H    -1.173904  -0.433287  -0.180775
N    -1.051235  0.224033  2.378057
C    -2.033620  1.255242  2.034091
C    -1.538868  2.588411  2.683546
O    -0.434833  2.686284  3.340584
H    -0.898853  0.096468  3.380116
H    -1.956028  1.416615  0.947489
C    -3.500050  0.845512  2.319120
C    -3.898028  0.526544  3.771506
C    -5.377300  0.081121  3.847872
C    -5.810288  -0.268199  5.272948
N    -7.262562  -0.724181  5.325024
H    -3.689403  -0.030786  1.681471
H    -4.157104  1.632828  1.916861
H    -3.743018  1.405583  4.417317
H    -3.265088  -0.281825  4.171546
H    -5.522867  -0.793489  3.193764
H    -6.019918  0.884514  3.453408
H    -5.740239  0.590327  5.952520
H    -5.222353  -1.092463  5.695804
H    -7.910002  0.003596  4.986633
H    -7.545282  -0.954914  6.290288
H    -7.424225  -1.567176  4.753425
N    -2.276405  3.667356  2.534441
C    -1.910468  5.014310  3.004658
H    -3.166511  3.572712  2.049282
H    -2.594679  5.732731  2.545867
H    -0.881664  5.246215  2.708786
H    -1.995628  5.071316  4.096893
Cd    1.369977  1.526971  3.372062
