35
Energy: -172331.995857 eV PBE+vdW (tier 2 basis)
C    0.061242  -1.787460  0.843435
C    0.046212  -0.544779  1.660126
O    1.143712  -0.024982  2.102745
H    0.521828  -2.597443  1.425181
H    0.679852  -1.599838  -0.052291
H    -0.921412  -2.126962  0.517469
N    -1.048955  0.149204  2.005455
C    -2.470989  -0.232685  2.088343
C    -2.621999  -1.417395  3.097325
O    -1.897357  -2.400175  2.939859
H    -0.816922  1.001790  2.519574
H    -2.943450  0.665275  2.505018
C    -3.150572  -0.562562  0.731706
C    -4.686105  -0.435801  0.785952
C    -5.340164  -0.728138  -0.581670
C    -6.860526  -0.572984  -0.516547
N    -7.519934  -0.853607  -1.860339
H    -2.880407  -1.576945  0.409720
H    -2.746532  0.138604  -0.013005
H    -4.959689  0.582037  1.106628
H    -5.095638  -1.129221  1.537070
H    -5.084467  -1.751376  -0.900180
H    -4.929875  -0.040861  -1.338875
H    -7.161488  0.445829  -0.241986
H    -7.318753  -1.272282  0.193999
H    -7.189059  -0.209658  -2.594249
H    -8.544243  -0.744827  -1.801242
H    -7.335733  -1.813663  -2.187636
N    -3.537937  -1.355125  4.091073
C    -4.304721  -0.223476  4.595184
H    -3.524250  -2.188901  4.684915
H    -3.745546  0.322449  5.372003
H    -5.218990  -0.611987  5.061579
H    -4.589142  0.464972  3.794731
Cd    3.159010  -0.267227  1.424410
