35
Energy: -172332.274287 eV PBE+vdW (tier 2 basis)
C    -0.952721  -0.743272  -0.733494
C    -0.708673  -0.625108  0.723964
O    0.391551  -1.073821  1.205972
H    -0.787826  -1.797861  -1.012313
H    -0.199933  -0.174613  -1.299776
H    -1.963528  -0.449030  -1.029548
N    -1.627926  -0.091404  1.573059
C    -2.284447  1.213296  1.407709
C    -1.223098  2.295894  1.770450
O    -0.212162  2.011566  2.525843
H    -1.455139  -0.322033  2.554236
H    -2.563091  1.331603  0.351267
C    -3.528477  1.360963  2.317623
C    -4.831062  0.631280  1.913411
C    -4.900546  -0.885126  2.196190
C    -6.288339  -1.432013  2.544864
N    -7.291496  -1.420373  1.394362
H    -3.762858  2.432773  2.368704
H    -3.244581  1.085361  3.347015
H    -5.056729  0.846432  0.856770
H    -5.620382  1.132717  2.495308
H    -4.302507  -1.120699  3.090606
H    -4.455180  -1.475214  1.380477
H    -6.758472  -0.858425  3.353979
H    -6.223846  -2.479239  2.863562
H    -8.193310  -1.818771  1.701014
H    -6.971774  -1.987024  0.595371
H    -7.489107  -0.470858  1.048596
N    -1.358962  3.543618  1.372535
C    -2.444223  4.181353  0.620036
H    -0.613498  4.170447  1.691262
H    -1.997758  4.861995  -0.114370
H    -3.076552  4.768140  1.300127
H    -3.052071  3.440851  0.093776
Cd    1.207263  0.408320  2.542181
