35
Energy: -172331.755477 eV PBE+vdW (tier 2 basis)
C    0.963884  0.200008  0.870355
C    0.453352  -0.451254  2.106882
O    1.155111  -1.257341  2.821274
H    0.414315  1.105182  0.593368
H    0.914777  -0.515352  0.033165
H    2.021688  0.467615  0.999139
N    -0.810863  -0.290637  2.534251
C    -1.942262  0.235189  1.771478
C    -2.328065  1.714018  2.190348
O    -2.553112  2.436792  1.215800
H    -1.017100  -0.767491  3.416233
H    -1.620720  0.346155  0.731848
C    -3.167898  -0.713630  1.815402
C    -4.323018  -0.402227  0.833064
C    -5.388690  0.598178  1.326009
C    -6.756282  0.494192  0.648939
N    -6.784236  1.002983  -0.790558
H    -3.557822  -0.792156  2.841483
H    -2.772489  -1.708234  1.558043
H    -4.815008  -1.370098  0.649846
H    -3.900189  -0.090176  -0.135465
H    -5.027419  1.636477  1.275854
H    -5.601661  0.405879  2.389204
H    -7.499014  1.098188  1.183491
H    -7.122765  -0.539591  0.608714
H    -7.738717  0.940438  -1.177583
H    -6.172390  0.459513  -1.414647
H    -6.497969  1.991022  -0.852534
N    -2.448425  2.102520  3.461970
C    -2.263849  1.347301  4.702419
H    -2.689843  3.089299  3.562574
H    -2.783077  1.886744  5.501502
H    -1.204669  1.275025  4.982365
H    -2.719357  0.351601  4.644423
Cd    3.287638  -1.445718  3.163594
