35
Energy: -172331.521895 eV PBE+vdW (tier 2 basis)
C    -1.064764  0.955196  -0.366565
C    -0.797710  0.699304  1.082982
O    0.283969  0.316332  1.533314
H    -0.613966  1.918085  -0.654158
H    -2.134316  0.982455  -0.605073
H    -0.566772  0.179731  -0.961721
N    -1.847643  0.951855  1.973925
C    -1.699667  0.826468  3.400877
C    -3.018475  0.120647  3.949855
O    -3.883800  0.895761  4.485976
H    -2.614087  1.521252  1.611526
H    -0.886291  0.105850  3.560805
C    -1.402214  2.139999  4.154396
C    -0.058296  2.812141  3.793927
C    1.198696  2.429390  4.602115
C    1.991057  1.164856  4.271423
N    2.688488  1.222084  2.919604
H    -1.439194  1.931354  5.234330
H    -2.219464  2.844679  3.944952
H    -0.216232  3.884875  3.989226
H    0.125153  2.773761  2.709225
H    0.935972  2.347046  5.667977
H    1.895485  3.282797  4.564895
H    2.783768  1.025084  5.016118
H    1.384917  0.251255  4.249680
H    3.182469  2.115944  2.782704
H    2.009467  1.085603  2.149635
H    3.392914  0.474411  2.837453
N    -3.141909  -1.183690  3.837683
C    -2.235664  -2.178929  3.239155
H    -3.984810  -1.588679  4.253492
H    -1.728523  -2.739154  4.034906
H    -1.503978  -1.703388  2.583955
H    -2.839440  -2.873666  2.643455
Cd    -5.819786  0.731202  5.471680
