35
Energy: -172332.173243 eV PBE+vdW (tier 2 basis)
C    0.847826  0.242955  1.108296
C    0.085437  -0.571534  2.086092
O    0.179798  -1.849256  1.984264
H    0.347272  0.226924  0.126742
H    1.814361  -0.260430  0.948117
H    1.017038  1.270799  1.431525
N    -0.637519  -0.065770  3.123726
C    -1.718952  0.941233  3.142050
C    -3.026611  0.185221  2.755179
O    -2.991070  -0.897245  2.055636
H    -0.760498  -0.762739  3.862216
H    -1.815284  1.243449  4.195977
C    -1.504304  2.199307  2.270589
C    -0.461441  3.229436  2.772249
C    -0.973401  4.180069  3.878340
C    -0.325669  5.567088  3.942304
N    1.092436  5.594711  4.506312
H    -2.475753  2.705088  2.179260
H    -1.261541  1.890297  1.245936
H    -0.186157  3.828164  1.890534
H    0.457301  2.715395  3.095650
H    -0.942578  3.707598  4.873310
H    -2.035475  4.404428  3.691751
H    -0.906445  6.229432  4.595367
H    -0.263827  6.036405  2.952114
H    1.444172  6.564928  4.542846
H    1.760973  5.058165  3.936648
H    1.131809  5.227862  5.468761
N    -4.210076  0.652528  3.101193
C    -4.571872  1.875141  3.822983
H    -4.995162  0.080099  2.776559
H    -4.902080  2.649469  3.117192
H    -3.732940  2.243101  4.420114
H    -5.405534  1.640443  4.494855
Cd    -1.799436  -2.678409  1.998966
