35
Energy: -172333.163885 eV PBE+vdW (tier 2 basis)
C    2.197328  0.038734  0.244889
C    1.717467  -0.618987  1.493117
O    2.594959  -0.897107  2.381858
H    2.947603  -0.600361  -0.241521
H    2.716004  0.970038  0.520808
H    1.391945  0.271617  -0.459952
N    0.401176  -0.865574  1.632192
C    -0.347153  -1.194636  2.861346
C    -0.453280  -2.725784  3.064342
O    0.584024  -3.410567  3.396886
H    -0.162450  -0.639824  0.815916
H    0.281031  -0.862983  3.706320
C    -1.639759  -0.341626  2.989194
C    -2.647598  -0.258794  1.820613
C    -3.809700  0.698709  2.179289
C    -4.811019  0.859966  1.032540
N    -5.935990  1.819276  1.396408
H    -1.293466  0.678696  3.210511
H    -2.149628  -0.676569  3.905706
H    -3.062606  -1.243567  1.550408
H    -2.156732  0.118935  0.908912
H    -3.390956  1.682544  2.444700
H    -4.328182  0.321832  3.075181
H    -5.297885  -0.086574  0.766132
H    -4.345230  1.273260  0.129070
H    -5.584802  2.763498  1.617567
H    -6.475879  1.494353  2.212841
H    -6.602821  1.921131  0.615098
N    -1.599204  -3.356342  2.932562
C    -1.793049  -4.801044  3.141013
H    -2.409084  -2.811630  2.650811
H    -1.500746  -5.353630  2.238697
H    -2.850761  -4.979583  3.352406
H    -1.182888  -5.136659  3.985000
Cd    2.503334  -2.559751  3.681140
