35
Energy: -172332.027898 eV PBE+vdW (tier 2 basis)
C    -0.398693  -0.829384  1.879359
C    -0.121592  0.531224  1.342544
O    1.061540  1.060998  1.397912
H    -1.454417  -1.110788  1.848192
H    -0.050957  -0.888771  2.920021
H    0.164182  -1.572602  1.292608
N    -1.049127  1.314407  0.808788
C    -2.507083  1.160293  0.720268
C    -2.856020  1.933009  -0.592806
O    -2.271064  2.996722  -0.796495
H    -0.729513  2.223284  0.442252
H    -2.759165  0.096356  0.649940
C    -3.211600  1.834403  1.932449
C    -4.750482  1.836706  1.888102
C    -5.351962  2.577607  3.102404
C    -6.879781  2.606718  3.044075
N    -7.478153  3.360922  4.224318
H    -2.839084  2.868370  1.993608
H    -2.863943  1.312012  2.837031
H    -5.129787  0.802965  1.866375
H    -5.100130  2.324926  0.965241
H    -4.963215  3.608281  3.126352
H    -5.025105  2.087351  4.033363
H    -7.317109  1.600976  3.077170
H    -7.250153  3.115640  2.145318
H    -8.508455  3.374954  4.173028
H    -7.162730  4.342008  4.253880
H    -7.225431  2.929740  5.125900
N    -3.777341  1.445088  -1.458641
C    -4.418102  0.141303  -1.495255
H    -3.876362  2.029603  -2.293604
H    -5.371113  0.240000  -2.029503
H    -4.612253  -0.239952  -0.488043
H    -3.806638  -0.589809  -2.050303
Cd    3.032370  0.262856  1.415510
