35
Energy: -172331.545143 eV PBE+vdW (tier 2 basis)
C    -0.847106  1.862630  0.125674
C    -0.476982  1.309044  1.467465
O    0.692019  1.277418  1.880469
H    -1.040297  2.941917  0.247210
H    -1.741053  1.398304  -0.305551
H    0.004097  1.758430  -0.555235
N    -1.512014  0.841442  2.258157
C    -1.434921  0.121403  3.516112
C    -0.769208  0.940892  4.670912
O    -1.493728  0.956882  5.730867
H    -2.444448  0.903177  1.850151
H    -2.479118  0.026971  3.844051
C    -0.926494  -1.370655  3.443800
C    0.536615  -1.653878  3.078366
C    0.795566  -3.062138  2.485398
C    0.653322  -4.220976  3.473085
N    1.063328  -5.538914  2.826477
H    -1.598808  -1.831240  2.703109
H    -1.191098  -1.812107  4.416752
H    1.191771  -1.491169  3.947554
H    0.880369  -0.949227  2.309655
H    1.822264  -3.055922  2.087821
H    0.127175  -3.222060  1.624108
H    -0.375963  -4.368013  3.822650
H    1.305644  -4.100890  4.347309
H    0.974709  -6.327427  3.485648
H    2.044089  -5.518612  2.507450
H    0.481709  -5.762933  2.004916
N    0.398142  1.514623  4.508869
C    1.099037  2.329424  5.492815
H    0.775648  1.434801  3.529775
H    2.018735  2.712433  5.034726
H    1.393161  1.737341  6.372441
H    0.508014  3.219363  5.777744
Cd    -1.369251  2.066965  7.583297
