35
Energy: -172331.961920 eV PBE+vdW (tier 2 basis)
C    -0.427679  0.412913  -1.451130
C    -0.031467  0.300124  -0.023806
O    1.088965  0.758620  0.421224
H    0.378545  0.000482  -2.077637
H    -0.531637  1.475122  -1.717851
H    -1.349062  -0.123151  -1.692636
N    -0.802796  -0.245804  0.928075
C    -2.248129  -0.578754  0.962540
C    -2.479530  -1.890893  0.124078
O    -2.826596  -1.812347  -1.049278
H    -0.331167  -0.296018  1.834928
H    -2.432922  -0.811491  2.020907
C    -3.202340  0.555965  0.546550
C    -4.653589  0.299299  1.003634
C    -5.582020  1.522642  0.808136
C    -6.329293  1.636557  -0.523054
N    -7.665438  0.896792  -0.508811
H    -3.158225  0.701100  -0.541496
H    -2.837554  1.477654  1.024261
H    -4.647472  0.053823  2.075690
H    -5.058850  -0.588562  0.491201
H    -4.997465  2.447213  0.919744
H    -6.309312  1.565371  1.633807
H    -5.767638  1.231221  -1.373954
H    -6.584599  2.678709  -0.747368
H    -7.559534  -0.110202  -0.322793
H    -8.293540  1.278189  0.214970
H    -8.154369  0.991186  -1.412235
N    -2.264459  -3.057754  0.776452
C    -2.525655  -4.357779  0.174939
H    -2.092756  -3.031884  1.780030
H    -1.852434  -5.095195  0.628958
H    -2.376074  -4.290437  -0.908445
H    -3.561518  -4.684773  0.363285
Cd    3.057646  0.993643  -0.434193
