35
Energy: -172331.856373 eV PBE+vdW (tier 2 basis)
C    -1.455885  -0.484278  0.102979
C    -0.873815  0.286517  1.241878
O    0.387574  0.581659  1.311630
H    -2.538011  -0.628922  0.190189
H    -0.987645  -1.480016  0.058081
H    -1.259205  0.043280  -0.843424
N    -1.655257  0.682371  2.233181
C    -1.216459  1.327643  3.482605
C    -2.079683  0.669282  4.582343
O    -3.223897  0.309390  4.279604
H    -2.629209  0.358934  2.255472
H    -0.152718  1.087683  3.615643
C    -1.372972  2.877614  3.496021
C    -2.750513  3.520603  3.764547
C    -3.823077  3.365372  2.669065
C    -4.890968  4.461066  2.635159
N    -5.830128  4.459171  3.838718
H    -0.962774  3.252252  2.546045
H    -0.687038  3.239624  4.275511
H    -2.535095  4.592327  3.901114
H    -3.135680  3.168606  4.735171
H    -4.305463  2.376328  2.717329
H    -3.349288  3.425238  1.676577
H    -5.540542  4.349884  1.758883
H    -4.446731  5.464294  2.606756
H    -6.333799  3.565116  3.932365
H    -6.543521  5.198535  3.741892
H    -5.335495  4.635897  4.724070
N    -1.558703  0.557612  5.823205
C    -2.254001  -0.052611  6.943762
H    -0.587981  0.833929  5.967538
H    -2.100130  0.559440  7.844013
H    -1.834220  -1.052008  7.153252
H    -3.316290  -0.156069  6.706920
Cd    1.901166  0.114787  -0.138902
