35
Energy: -172333.204201 eV PBE+vdW (tier 2 basis)
C    -1.578416  -3.471714  0.886914
C    -0.735755  -2.366954  1.427048
O    0.288979  -2.023087  0.740674
H    -0.971717  -4.385764  0.810650
H    -1.879344  -3.215681  -0.140030
H    -2.471849  -3.671116  1.488442
N    -1.099452  -1.782259  2.582187
C    -0.590175  -0.538304  3.198914
C    0.651292  -0.832086  4.084362
O    1.825619  -0.916437  3.560528
H    -1.902379  -2.206659  3.043873
H    -0.222475  0.106301  2.383196
C    -1.731179  0.210360  3.924669
C    -2.809088  0.836975  3.011710
C    -3.944570  1.455972  3.855865
C    -5.162450  1.998433  3.101188
N    -4.998752  3.425614  2.584359
H    -1.270579  1.007791  4.526797
H    -2.222384  -0.476838  4.636410
H    -3.235219  0.073739  2.342196
H    -2.333951  1.592581  2.365422
H    -3.548769  2.230090  4.533776
H    -4.350219  0.679371  4.522104
H    -6.033983  2.037703  3.765110
H    -5.429996  1.387947  2.229639
H    -4.815726  4.088254  3.352946
H    -5.863149  3.742735  2.117366
H    -4.236024  3.522729  1.900519
N    0.520933  -0.990059  5.382529
C    1.610513  -1.290143  6.325201
H    -0.403177  -0.852336  5.787537
H    1.949587  -0.361585  6.803421
H    2.444303  -1.752144  5.791859
H    1.226352  -1.971325  7.091625
Cd    2.115199  -1.280104  1.500992
