35
Energy: -172332.866302 eV PBE+vdW (tier 2 basis)
C    -0.366291  0.416097  1.018056
C    -0.251587  -0.630104  2.076734
O    0.148751  -1.785903  1.700116
H    -0.988608  0.025239  0.199794
H    0.628873  0.601091  0.587303
H    -0.789972  1.359958  1.378030
N    -0.583724  -0.294092  3.336357
C    -0.778049  -1.089887  4.578827
C    0.550729  -1.569947  5.202763
O    1.177302  -2.619840  4.789202
H    -0.828757  0.688636  3.432578
H    -1.190028  -0.358485  5.283878
C    -1.801830  -2.246433  4.447297
C    -3.278059  -1.820328  4.256254
C    -3.996076  -1.396966  5.552903
C    -5.458723  -0.962799  5.404369
N    -6.440896  -2.120214  5.245739
H    -1.709237  -2.873151  5.347689
H    -1.527872  -2.894434  3.602370
H    -3.789135  -2.685100  3.806304
H    -3.347167  -1.015812  3.507067
H    -3.494706  -0.525115  6.001292
H    -3.920775  -2.192848  6.312118
H    -5.618838  -0.309936  4.537009
H    -5.793158  -0.425420  6.299530
H    -7.408820  -1.766273  5.183033
H    -6.410213  -2.761399  6.052814
H    -6.272947  -2.678445  4.397212
N    1.055452  -0.954357  6.253605
C    0.559114  0.197515  7.019463
H    1.913435  -1.386414  6.610691
H    0.094229  0.942042  6.366020
H    1.420251  0.667632  7.506044
H    -0.142871  -0.128713  7.798014
Cd    1.209399  -3.246956  2.783776
