35
Energy: -172331.934484 eV PBE+vdW (tier 2 basis)
C    0.017593  -0.335163  0.608124
C    -0.184057  -0.018186  2.050591
O    0.789538  -0.095766  2.905169
H    -0.905998  -0.386336  0.025675
H    0.536884  -1.298736  0.514092
H    0.654512  0.441772  0.153631
N    -1.357863  0.328568  2.563046
C    -2.655969  0.463365  1.894144
C    -3.405978  1.543843  2.724420
O    -3.195990  1.621367  3.934509
H    -1.382348  0.588210  3.558875
H    -2.475249  0.823937  0.873278
C    -3.509237  -0.838730  1.796665
C    -4.329758  -1.330223  3.006067
C    -3.546454  -1.862288  4.221071
C    -4.296778  -2.876276  5.087560
N    -5.499585  -2.298578  5.829286
H    -2.837653  -1.638706  1.445940
H    -4.214933  -0.670477  0.970168
H    -4.957279  -2.141455  2.603172
H    -5.030739  -0.538255  3.315600
H    -3.171041  -1.037928  4.847597
H    -2.656774  -2.413158  3.877264
H    -3.644150  -3.288144  5.866349
H    -4.688492  -3.711168  4.492410
H    -6.226148  -1.949884  5.188616
H    -5.231652  -1.523353  6.452961
H    -5.942443  -3.021010  6.418258
N    -4.284665  2.326676  2.052723
C    -4.990197  3.440531  2.661567
H    -4.352874  2.228256  1.040158
H    -4.478745  4.394247  2.441576
H    -5.021568  3.304710  3.746819
H    -5.997995  3.503409  2.228447
Cd    2.898445  0.107942  2.643001
