35
Energy: -172331.664528 eV PBE+vdW (tier 2 basis)
C    0.023747  -1.090373  4.464988
C    0.213314  -0.950645  2.995567
O    1.367830  -0.808055  2.447664
H    -0.960766  -1.471916  4.751526
H    0.181013  -0.111599  4.946213
H    0.783713  -1.773446  4.870925
N    -0.818604  -0.904142  2.138003
C    -2.236449  -0.713796  2.459524
C    -2.982825  -2.101825  2.609054
O    -3.575499  -2.239227  3.677474
H    -0.543302  -0.838851  1.154395
H    -2.297302  -0.296674  3.469347
C    -2.940856  0.249999  1.480240
C    -4.427623  0.496632  1.814788
C    -5.051463  1.534915  0.860903
C    -6.570991  1.693817  0.920136
N    -7.071701  2.482145  2.128244
H    -2.852739  -0.121149  0.448147
H    -2.389317  1.202510  1.521355
H    -4.510959  0.820570  2.864785
H    -4.988674  -0.447805  1.737453
H    -4.845265  1.238461  -0.179204
H    -4.565801  2.517279  0.978567
H    -7.094986  0.730176  0.951036
H    -6.931742  2.249200  0.046305
H    -8.097382  2.589432  2.091509
H    -6.671708  3.431781  2.153696
H    -6.850040  2.024361  3.022938
N    -2.969492  -3.048093  1.649930
C    -2.587933  -2.967026  0.242680
H    -3.529245  -3.864862  1.906516
H    -2.349322  -3.981581  -0.098341
H    -1.697838  -2.350682  0.091590
H    -3.410212  -2.586885  -0.379907
Cd    3.355293  -1.450707  3.030241
