35
Energy: -172332.920550 eV PBE+vdW (tier 2 basis)
C    2.118304  0.016994  0.041131
C    1.675941  -0.713632  1.262608
O    2.585313  -1.083909  2.082399
H    2.831081  -0.603611  -0.519819
H    2.670737  0.916344  0.355681
H    1.289213  0.314664  -0.609932
N    0.359417  -0.926082  1.450149
C    -0.337831  -1.327547  2.687464
C    -0.470080  -2.867199  2.785048
O    0.545874  -3.588818  3.106291
H    -0.234187  -0.622475  0.681797
H    0.335649  -1.069357  3.522498
C    -1.605788  -0.464894  2.941715
C    -2.661605  -0.266809  1.831232
C    -3.789732  0.672609  2.322146
C    -4.839019  0.940076  1.239937
N    -5.932972  1.877242  1.732534
H    -1.228782  0.527240  3.230521
H    -2.082620  -0.867670  3.848524
H    -3.108024  -1.217830  1.497751
H    -2.203999  0.180669  0.933892
H    -3.343619  1.625523  2.648821
H    -4.273355  0.228398  3.206507
H    -5.350603  0.023953  0.919001
H    -4.408518  1.422100  0.353175
H    -5.560606  2.800416  2.002591
H    -6.432212  1.497107  2.551111
H    -6.639222  2.040497  0.997501
N    -1.615110  -3.474612  2.567141
C    -1.816725  -4.931173  2.661403
H    -2.421854  -2.900367  2.341523
H    -2.818667  -5.163168  2.292292
H    -1.725190  -5.255698  3.705466
H    -1.069330  -5.451853  2.053059
Cd    2.499118  -2.796127  3.316841
