35
Energy: -172331.548455 eV PBE+vdW (tier 2 basis)
C    0.552748  0.878352  0.923948
C    0.070398  0.513395  2.283634
O    0.840278  0.587739  3.319532
H    1.589420  0.537453  0.802301
H    0.526912  1.976922  0.824772
H    -0.041659  0.445425  0.112906
N    -1.164742  0.067697  2.556291
C    -2.288982  -0.335835  1.675402
C    -1.873110  -1.538781  0.771236
O    -1.356442  -1.303854  -0.324244
H    -1.312083  -0.101410  3.552993
H    -3.047931  -0.688464  2.384835
C    -2.854784  0.843627  0.855755
C    -4.120722  0.573206  0.011581
C    -5.419021  0.304151  0.801107
C    -6.711696  0.759192  0.121005
N    -7.072414  -0.025516  -1.138083
H    -2.081124  1.208037  0.169769
H    -3.060071  1.656948  1.567937
H    -3.918411  -0.231959  -0.711751
H    -4.250940  1.486315  -0.590517
H    -5.405414  0.873338  1.744253
H    -5.507187  -0.753699  1.096470
H    -6.658881  1.810434  -0.189712
H    -7.570249  0.644037  0.793271
H    -7.208802  -1.027563  -0.941290
H    -7.955892  0.324041  -1.540904
H    -6.355617  0.055997  -1.872741
N    -2.086589  -2.808730  1.191213
C    -2.472528  -3.320393  2.498045
H    -1.755853  -3.504643  0.517038
H    -3.085889  -4.219682  2.354363
H    -3.054945  -2.589773  3.067329
H    -1.586735  -3.615747  3.082443
Cd    2.614721  1.733581  3.659661
