35
Energy: -172332.533019 eV PBE+vdW (tier 2 basis)
C    -0.299253  -0.505749  -0.034915
C    -0.214060  -0.306611  1.439366
O    0.872094  0.174407  1.904909
H    0.545291  -1.124752  -0.368425
H    -0.186391  0.470618  -0.530492
H    -1.241760  -0.964964  -0.353179
N    -1.275918  -0.632442  2.207761
C    -1.390861  -0.314436  3.633538
C    -0.532018  -1.256636  4.525032
O    0.478685  -0.733411  5.137635
H    -2.091432  -0.978927  1.710904
H    -0.863146  0.646698  3.753475
C    -2.804506  0.078025  4.158350
C    -4.028566  -0.859105  4.277315
C    -4.836127  -1.113891  2.990152
C    -6.175312  -1.839478  3.182140
N    -7.288527  -0.956783  3.738203
H    -3.088132  0.963637  3.567690
H    -2.602305  0.467476  5.167500
H    -4.672934  -0.348039  5.010557
H    -3.766290  -1.810149  4.758563
H    -4.276108  -1.758424  2.293066
H    -5.003242  -0.170076  2.444882
H    -6.094822  -2.690807  3.869948
H    -6.555590  -2.212204  2.223833
H    -8.166229  -1.494453  3.821875
H    -7.488932  -0.154996  3.121357
H    -7.079237  -0.584437  4.675342
N    -0.746232  -2.543011  4.709560
C    -1.746051  -3.447461  4.145967
H    -0.062438  -2.982374  5.334821
H    -1.221881  -4.303074  3.700588
H    -2.331888  -2.950212  3.371423
H    -2.403656  -3.822991  4.939948
Cd    1.681539  0.479976  3.859779
