35
Energy: -172331.401075 eV PBE+vdW (tier 2 basis)
C    0.721112  -0.034292  0.135074
C    0.302538  -0.195746  1.559899
O    1.152425  -0.334164  2.520362
H    1.335978  0.873535  0.034413
H    -0.119601  0.049376  -0.562563
H    1.323561  -0.904637  -0.171518
N    -0.997253  -0.188878  1.859683
C    -1.592206  -0.235573  3.211583
C    -2.930332  -1.019559  3.181933
O    -3.972945  -0.510752  3.604476
H    -1.622705  -0.002070  1.076762
H    -0.897666  -0.817102  3.837436
C    -1.729246  1.165347  3.864146
C    -2.281290  2.343468  3.033757
C    -3.756865  2.399529  2.587594
C    -4.808142  2.905368  3.574330
N    -5.102195  1.953169  4.733073
H    -2.282343  1.011785  4.800816
H    -0.714801  1.448115  4.179947
H    -1.664261  2.445121  2.127339
H    -2.053676  3.255817  3.606464
H    -4.099696  1.450317  2.148144
H    -3.812305  3.124777  1.761107
H    -4.530738  3.867316  4.022911
H    -5.762717  3.040656  3.052989
H    -4.981309  0.968779  4.434529
H    -4.477334  2.113345  5.532687
H    -6.063565  2.080109  5.079925
N    -2.971556  -2.304941  2.723839
C    -1.905978  -3.263602  2.518559
H    -3.922192  -2.689716  2.737649
H    -1.993986  -3.699325  1.508882
H    -2.014685  -4.097285  3.231726
H    -0.921633  -2.806998  2.639876
Cd    3.299029  -0.522269  2.371659
