35
Energy: -172331.868769 eV PBE+vdW (tier 2 basis)
C    0.830985  -1.050235  2.021078
C    0.404963  0.347152  1.729049
O    1.248313  1.320121  1.620509
H    1.640119  -1.053415  2.763782
H    0.024942  -1.682514  2.405738
H    1.207155  -1.503480  1.090114
N    -0.869659  0.674216  1.532381
C    -2.027975  -0.227884  1.425858
C    -1.900615  -1.089811  0.139888
O    -1.141081  -0.738838  -0.761592
H    -1.020274  1.650542  1.276766
H    -2.021178  -0.880758  2.309988
C    -3.354954  0.575242  1.449501
C    -3.679064  1.440153  0.216338
C    -5.060498  2.117260  0.355443
C    -5.404275  2.964991  -0.869722
N    -6.774830  3.616571  -0.740041
H    -3.345632  1.189504  2.363536
H    -4.160644  -0.158302  1.596939
H    -3.665867  0.820971  -0.693712
H    -2.912361  2.217602  0.065866
H    -5.073763  2.747146  1.259399
H    -5.830732  1.341684  0.495568
H    -5.440549  2.369103  -1.790353
H    -4.693655  3.787374  -1.019758
H    -6.830754  4.238778  0.080123
H    -7.526744  2.917514  -0.645534
H    -6.995241  4.187941  -1.570283
N    -2.653333  -2.220702  0.012477
C    -3.350692  -2.998425  1.021079
H    -2.511001  -2.678832  -0.892588
H    -4.328109  -3.307741  0.618964
H    -3.508358  -2.431444  1.941525
H    -2.795966  -3.923134  1.250635
Cd    3.346000  1.431470  2.007806
