35
Energy: -172332.089146 eV PBE+vdW (tier 2 basis)
C    -0.107937  -0.640070  0.666712
C    -0.160028  0.234349  1.870141
O    0.806680  0.267933  2.734585
H    -1.017246  -0.615062  0.060772
H    0.075935  -1.677891  0.978436
H    0.731334  -0.327065  0.025725
N    -1.195264  1.006695  2.174364
C    -2.531350  1.104886  1.569875
C    -2.934754  2.587070  1.848758
O    -2.691529  3.039620  2.967377
H    -1.103522  1.584149  3.022594
H    -2.463002  0.895848  0.496774
C    -3.525187  0.138994  2.273982
C    -5.007310  0.258599  1.868239
C    -5.835449  -0.859097  2.536917
C    -7.314587  -0.949753  2.156542
N    -8.214511  0.006896  2.935527
H    -3.425908  0.297258  3.358574
H    -3.171897  -0.883051  2.065687
H    -5.112008  0.173116  0.775127
H    -5.388177  1.254034  2.149123
H    -5.732779  -0.815474  3.633872
H    -5.407864  -1.832003  2.251218
H    -7.707542  -1.949473  2.375628
H    -7.494514  -0.740675  1.094511
H    -8.165278  -0.171620  3.949673
H    -9.200949  -0.112229  2.657165
H    -7.974957  0.995634  2.782349
N    -3.539307  3.327089  0.888143
C    -3.715632  3.041417  -0.527681
H    -3.700792  4.293605  1.184343
H    -4.542542  3.656616  -0.902055
H    -3.953461  1.986625  -0.698443
H    -2.817715  3.311685  -1.107587
Cd    2.898126  -0.096834  2.618136
