35
Energy: -172331.967983 eV PBE+vdW (tier 2 basis)
C    -1.257725  -1.840601  0.230360
C    -0.787643  -1.281506  1.528481
O    0.097865  -1.892905  2.253395
H    -0.413893  -1.873633  -0.477344
H    -2.061427  -1.266697  -0.238173
H    -1.609002  -2.870772  0.382586
N    -1.255520  -0.157817  2.054810
C    -2.308481  0.743904  1.576056
C    -1.886300  2.131139  2.142049
O    -1.293415  2.167285  3.221321
H    -0.818213  0.170516  2.928842
H    -2.298280  0.749438  0.480043
C    -3.742937  0.378178  2.060600
C    -3.970829  0.317282  3.581270
C    -5.380057  -0.202098  3.958804
C    -6.521297  0.818455  4.015124
N    -6.657524  1.473958  5.388004
H    -3.983380  -0.600002  1.613706
H    -4.429744  1.096311  1.585847
H    -3.775153  1.299326  4.042076
H    -3.236706  -0.364666  4.033023
H    -5.326110  -0.733583  4.921725
H    -5.689250  -0.975228  3.240422
H    -7.490493  0.340488  3.831326
H    -6.408779  1.640113  3.296851
H    -7.428236  2.159779  5.398657
H    -5.803309  1.969174  5.679817
H    -6.869158  0.773686  6.114967
N    -2.202736  3.259748  1.459255
C    -2.707512  3.414829  0.104993
H    -1.832924  4.103175  1.907362
H    -3.356875  2.583013  -0.184063
H    -1.880077  3.501700  -0.619526
H    -3.280233  4.350157  0.053872
Cd    1.696368  -3.213041  1.766106
