35
Energy: -172332.446548 eV PBE+vdW (tier 2 basis)
C    -0.984702  -1.195646  0.737895
C    -0.030254  -0.111015  1.059702
O    1.145524  -0.142378  0.546933
H    -1.117699  -1.295147  -0.348392
H    -1.944609  -1.094549  1.252465
H    -0.515785  -2.141565  1.065159
N    -0.331617  0.898449  1.922549
C    -1.513591  1.765900  1.898126
C    -1.286875  2.798791  0.751640
O    -0.108326  3.108823  0.336000
H    0.488231  1.333769  2.352708
H    -2.392518  1.152070  1.652794
C    -1.681088  2.417538  3.299988
C    -3.039929  3.063565  3.634523
C    -3.016076  3.632622  5.071560
C    -4.250410  4.409341  5.540114
N    -5.363065  3.533101  6.110772
H    -0.878683  3.160261  3.440976
H    -1.488329  1.608605  4.020868
H    -3.839935  2.313968  3.517298
H    -3.263024  3.888927  2.940044
H    -2.182530  4.346745  5.149539
H    -2.775602  2.838472  5.797390
H    -4.710337  5.003897  4.740842
H    -3.983691  5.091829  6.355567
H    -6.151262  4.114173  6.437531
H    -5.036504  2.989874  6.924136
H    -5.745188  2.867494  5.425344
N    -2.340449  3.395527  0.231956
C    -2.332732  4.402800  -0.838363
H    -3.252845  3.147055  0.611397
H    -2.525911  5.396763  -0.413810
H    -3.124498  4.157817  -1.555198
H    -1.360409  4.405483  -1.334651
Cd    1.618570  1.876682  -0.020866
