35
Energy: -172332.452638 eV PBE+vdW (tier 2 basis)
C    -0.015374  0.077960  -0.046476
C    -0.112634  -0.054991  1.424597
O    0.924875  -0.420388  2.088002
H    0.312534  -0.902397  -0.437052
H    0.779049  0.783892  -0.327614
H    -0.966638  0.334730  -0.522238
N    -1.276482  0.147657  2.099650
C    -2.131176  1.334597  1.998244
C    -1.550355  2.383763  2.991169
O    -0.726136  2.041804  3.929740
H    -1.295334  -0.292202  3.021271
H    -2.006212  1.744009  0.985298
C    -3.637722  1.008329  2.175416
C    -4.095201  0.366397  3.498520
C    -5.615941  0.084463  3.464076
C    -6.116608  -0.587088  4.744125
N    -7.611638  -0.871642  4.683277
H    -3.893920  0.346626  1.334790
H    -4.201610  1.936168  2.006941
H    -3.861053  1.023205  4.351464
H    -3.566917  -0.585607  3.670334
H    -5.841997  -0.558427  2.598292
H    -6.156716  1.031556  3.307983
H    -5.965912  0.040561  5.631332
H    -5.634639  -1.556888  4.920405
H    -7.939022  -1.326500  5.549785
H    -7.854566  -1.499795  3.902286
H    -8.166065  -0.010068  4.566766
N    -1.901839  3.651142  2.921031
C    -2.827215  4.329188  2.005319
H    -1.457285  4.248188  3.624590
H    -3.798589  4.487295  2.491704
H    -2.959070  3.761952  1.079804
H    -2.399741  5.307958  1.759022
Cd    1.013789  0.780261  3.867850
