35
Energy: -172333.035887 eV PBE+vdW (tier 2 basis)
C    0.447336  0.310217  0.241827
C    0.131166  0.066693  1.679075
O    1.000603  -0.589651  2.355982
H    1.383557  0.882067  0.167409
H    -0.350101  0.830794  -0.299523
H    0.638081  -0.659815  -0.242469
N    -1.033355  0.529439  2.163276
C    -1.794602  0.252196  3.417023
C    -1.247460  1.042946  4.630067
O    -0.200213  0.686575  5.288053
H    -1.565539  1.062938  1.478473
H    -2.782419  0.679421  3.195933
C    -2.013939  -1.256839  3.691873
C    -3.272309  -1.561424  4.533532
C    -3.433518  -3.076200  4.780132
C    -4.584896  -3.511102  5.693373
N    -5.932893  -3.639246  4.988478
H    -1.134573  -1.703839  4.185046
H    -2.092776  -1.754014  2.714440
H    -4.151466  -1.152652  4.008187
H    -3.216534  -1.043570  5.504357
H    -2.524803  -3.454199  5.272630
H    -3.485953  -3.622672  3.824087
H    -4.744469  -2.822330  6.532438
H    -4.387736  -4.506726  6.107611
H    -5.898698  -4.334272  4.227573
H    -6.264938  -2.752429  4.585739
H    -6.658324  -3.957998  5.650359
N    -1.924496  2.102643  5.023963
C    -1.575566  2.992608  6.139618
H    -2.773323  2.338869  4.511611
H    -2.387733  2.979598  6.877200
H    -1.462247  4.014266  5.755304
H    -0.646609  2.657564  6.604427
Cd    1.376610  -0.403192  4.408931
