35
Energy: -172331.823164 eV PBE+vdW (tier 2 basis)
C    -1.451229  -1.387573  -1.383247
C    -0.571380  -0.563625  -0.514914
O    0.412765  0.129847  -0.975104
H    -0.831779  -2.030399  -2.026880
H    -2.030031  -0.724906  -2.044833
H    -2.142888  -2.027071  -0.828915
N    -0.759542  -0.431395  0.807073
C    -1.965211  -0.694119  1.631511
C    -2.180342  -2.233334  1.852098
O    -3.271349  -2.752335  1.608689
H    -0.047937  0.154567  1.253163
H    -1.695693  -0.272056  2.612181
C    -3.256520  0.006700  1.139949
C    -4.133258  0.600004  2.263718
C    -4.757652  -0.320530  3.333321
C    -6.127330  -0.937955  3.064472
N    -6.147535  -1.962627  1.929294
H    -3.808911  -0.697103  0.500833
H    -2.956246  0.848586  0.500974
H    -4.927335  1.190386  1.779392
H    -3.524362  1.350464  2.790568
H    -4.926343  0.295536  4.229347
H    -4.061385  -1.104485  3.669386
H    -6.474660  -1.473643  3.955553
H    -6.880730  -0.182424  2.809803
H    -6.935017  -2.617236  2.039671
H    -5.265579  -2.504383  1.897061
H    -6.264822  -1.511831  1.013672
N    -1.131555  -2.926295  2.349792
C    -1.203704  -4.330886  2.728988
H    -0.307475  -2.407543  2.649629
H    -0.204254  -4.773136  2.639210
H    -1.926596  -4.846669  2.088048
H    -1.526131  -4.438890  3.778608
Cd    1.737530  -0.041898  -2.664005
