35
Energy: -172331.343379 eV PBE+vdW (tier 2 basis)
C    -0.289448  -0.354940  0.058930
C    -0.090961  -0.310840  1.549103
O    0.776017  -0.983092  2.113572
H    0.675134  -0.514631  -0.433744
H    -0.760380  0.558872  -0.325190
H    -0.932667  -1.215864  -0.183096
N    -0.968979  0.502786  2.253181
C    -1.232377  0.494847  3.676576
C    -1.707780  1.926585  4.167116
O    -0.964179  2.923219  3.911951
H    -1.738969  0.838486  1.674765
H    -2.134329  -0.125619  3.850233
C    -0.134599  -0.070352  4.592027
C    1.245941  0.595304  4.608309
C    2.316086  -0.203394  5.386138
C    2.656933  -1.623390  4.933325
N    3.284665  -1.694784  3.549026
H    -0.041031  -1.125144  4.273105
H    -0.554433  -0.113422  5.609361
H    1.175123  1.576324  5.103000
H    1.585978  0.795487  3.583131
H    2.003905  -0.305228  6.437172
H    3.239144  0.395355  5.424124
H    1.788752  -2.292797  4.899862
H    3.386659  -2.063730  5.623400
H    3.600057  -2.653993  3.341665
H    4.110739  -1.084383  3.473129
H    2.602177  -1.426300  2.818256
N    -2.833622  1.951634  4.858188
C    -3.433979  3.123162  5.496718
H    -3.336500  1.070425  4.959340
H    -4.310189  2.792930  6.067213
H    -3.802367  3.843153  4.747564
H    -2.738235  3.585876  6.212134
Cd    -1.183747  5.099346  4.120834
