35
Energy: -172331.897550 eV PBE+vdW (tier 2 basis)
C    0.062023  -0.661151  0.475943
C    -0.000298  0.241800  1.656780
O    0.981400  0.340788  2.497623
H    -0.846611  -0.658888  -0.131351
H    0.256619  -1.689218  0.813339
H    0.899382  -0.356327  -0.170965
N    -1.062067  0.977713  1.968124
C    -2.434212  0.971146  1.438049
C    -2.896076  2.450274  1.639762
O    -2.716859  2.945030  2.752117
H    -0.966172  1.570128  2.804741
H    -2.416809  0.687904  0.380801
C    -3.320898  0.018176  2.291969
C    -4.857864  0.099552  2.181733
C    -5.494741  -0.409132  0.870947
C    -6.848218  -1.106816  1.025932
N    -7.977710  -0.195977  1.500905
H    -3.065167  0.217292  3.342724
H    -2.988918  -1.008770  2.073039
H    -5.190527  1.123966  2.411242
H    -5.218990  -0.520117  3.018082
H    -4.853800  -1.180689  0.415943
H    -5.572520  0.391917  0.119030
H    -6.800140  -1.923696  1.757305
H    -7.189188  -1.522976  0.070423
H    -7.787496  0.220217  2.423520
H    -8.857723  -0.728083  1.588226
H    -8.157869  0.573287  0.839725
N    -3.477711  3.134787  0.627224
C    -3.526904  2.818525  -0.794376
H    -3.685897  4.103867  0.883106
H    -2.600182  3.121169  -1.307341
H    -4.350085  3.386443  -1.243769
H    -3.701961  1.751093  -0.964006
Cd    3.088520  0.072127  2.368123
