35
Energy: -172331.086171 eV PBE+vdW (tier 2 basis)
C    -1.379226  0.625223  -0.292822
C    -0.992219  0.956512  1.129758
O    0.046586  1.542023  1.410479
H    -1.073608  -0.407760  -0.518445
H    -0.852136  1.299801  -0.973324
H    -2.465047  0.708227  -0.438864
N    -1.884721  0.518557  2.107737
C    -1.672659  0.356918  3.533726
C    -2.590054  1.345063  4.375067
O    -3.108156  0.747298  5.383332
H    -2.638746  -0.057138  1.733020
H    -2.114793  -0.615346  3.784085
C    -0.213361  0.292877  4.086450
C    0.561284  1.583359  4.384600
C    2.018713  1.349198  4.853944
C    2.987408  1.009419  3.718829
N    4.423276  0.940862  4.223493
H    0.321696  -0.337507  3.359458
H    -0.284989  -0.301190  5.009249
H    0.055780  2.139793  5.187417
H    0.579822  2.235022  3.500983
H    2.044959  0.560723  5.623285
H    2.356782  2.275907  5.342352
H    2.980032  1.773472  2.931399
H    2.789013  0.035668  3.255164
H    4.726289  1.836234  4.636103
H    5.080668  0.721593  3.459362
H    4.545162  0.215969  4.946532
N    -2.803982  2.603655  4.064574
C    -2.279254  3.422043  2.959474
H    -3.464608  3.093858  4.671192
H    -2.959070  3.375225  2.099680
H    -1.276341  3.099878  2.674089
H    -2.226055  4.457823  3.311541
Cd    -4.623813  1.115188  6.917225
