35
Energy: -172331.857899 eV PBE+vdW (tier 2 basis)
C    -0.698276  0.905096  -0.367052
C    -0.493173  1.128299  1.100691
O    0.550377  1.591076  1.576903
H    -1.392489  0.088165  -0.593455
H    0.270925  0.730912  -0.845791
H    -1.110498  1.835155  -0.793562
N    -1.552627  0.807339  1.938480
C    -1.507178  0.773244  3.383060
C    -1.392246  2.214777  4.009758
O    -2.330564  2.468713  4.843906
H    -2.395442  0.441976  1.497596
H    -2.490641  0.410643  3.709936
C    -0.424224  -0.157109  4.024216
C    -0.690549  -1.649677  3.750742
C    0.170917  -2.590936  4.629713
C    1.570492  -2.961222  4.120232
N    1.587232  -4.285734  3.360152
H    -0.458200  0.021316  5.109573
H    0.569474  0.157449  3.675752
H    -0.553100  -1.869474  2.679745
H    -1.745293  -1.871524  3.970061
H    -0.399477  -3.512097  4.826568
H    0.300802  -2.141258  5.624219
H    2.272687  -3.103772  4.949435
H    1.998792  -2.215331  3.439350
H    2.536922  -4.512207  3.026275
H    0.967110  -4.282363  2.538273
H    1.288367  -5.066211  3.964891
N    -0.395537  2.996028  3.671788
C    -0.156411  4.349595  4.159632
H    0.224274  2.593007  2.930333
H    0.748015  4.736026  3.674794
H    0.036182  4.358848  5.244381
H    -0.976250  5.032538  3.879631
Cd    -2.842495  4.222766  5.999636
