35
Energy: -172331.968428 eV PBE+vdW (tier 2 basis)
C    -1.298401  -0.935637  -0.185415
C    -0.617063  -0.407320  1.029295
O    0.614260  -0.709055  1.305722
H    -1.192102  -2.028815  -0.218032
H    -0.810614  -0.521718  -1.082724
H    -2.361975  -0.689888  -0.243210
N    -1.212844  0.367828  1.925362
C    -2.600167  0.839160  1.994139
C    -2.486768  2.201528  2.738622
O    -1.602775  2.333166  3.586495
H    -0.631616  0.728648  2.696540
H    -2.976717  0.980848  0.974626
C    -3.569542  -0.112089  2.757188
C    -3.220283  -0.438766  4.219893
C    -4.158708  -1.504573  4.838223
C    -5.469448  -1.018701  5.464387
N    -5.312702  -0.633516  6.934098
H    -3.614322  -1.045675  2.173479
H    -4.574171  0.332495  2.680529
H    -3.208708  0.479360  4.829788
H    -2.195226  -0.831941  4.271276
H    -3.601439  -2.092944  5.583676
H    -4.436364  -2.238287  4.067588
H    -6.229026  -1.808999  5.457461
H    -5.893074  -0.139021  4.964016
H    -6.206960  -0.306276  7.331115
H    -4.621733  0.116014  7.078310
H    -5.011138  -1.441151  7.500161
N    -3.371323  3.192542  2.464262
C    -4.336425  3.301324  1.382329
H    -3.166696  4.052477  2.981424
H    -3.886452  3.777921  0.494971
H    -5.157618  3.949422  1.715192
H    -4.743892  2.325076  1.102662
Cd    2.277748  -1.232066  0.082499
