35
Energy: -172332.106836 eV PBE+vdW (tier 2 basis)
C    -0.590022  -1.226074  1.606770
C    0.012667  0.129844  1.739123
O    1.212526  0.300332  2.196436
H    -1.653934  -1.219111  1.355400
H    -0.456661  -1.779410  2.545980
H    -0.063259  -1.779224  0.812212
N    -0.632801  1.250535  1.437717
C    -2.000819  1.461503  0.966210
C    -1.880518  2.701763  0.020058
O    -1.025267  3.550804  0.260246
H    -0.090446  2.125530  1.489174
H    -2.326813  0.578666  0.401993
C    -3.050683  1.759339  2.081053
C    -2.740900  2.959271  2.992169
C    -3.954483  3.569912  3.729636
C    -4.525823  2.710887  4.857894
N    -5.612161  3.463587  5.617273
H    -3.168763  0.830050  2.660757
H    -4.009868  1.911156  1.560515
H    -2.312229  3.777423  2.393370
H    -1.959986  2.691912  3.720759
H    -4.746943  3.803920  3.000545
H    -3.623367  4.532426  4.149758
H    -3.764387  2.451346  5.604330
H    -4.996155  1.785704  4.502640
H    -6.398322  3.727404  5.004550
H    -5.249472  4.333396  6.036601
H    -6.001605  2.895220  6.384763
N    -2.761080  2.780190  -1.004996
C    -2.702647  3.824488  -2.015976
H    -3.387028  1.994484  -1.176395
H    -2.225585  4.713818  -1.590874
H    -3.722212  4.036381  -2.363015
H    -2.113459  3.496020  -2.889512
Cd    2.989978  -0.882716  2.089024
