35
Energy: -172332.024268 eV PBE+vdW (tier 2 basis)
C    0.510261  -1.647587  0.801909
C    0.163027  -0.397158  1.531584
O    1.049491  0.274224  2.199148
H    -0.349487  -2.160158  0.362771
H    1.014812  -2.341707  1.488459
H    1.210521  -1.408731  -0.014390
N    -1.065225  0.104425  1.586631
C    -2.342484  -0.443157  1.109533
C    -3.175123  0.827655  0.748892
O    -3.192857  1.757061  1.554662
H    -1.174440  0.984380  2.108828
H    -2.165624  -1.060218  0.219172
C    -3.048077  -1.277588  2.215159
C    -4.442954  -1.836526  1.841091
C    -5.654979  -0.987959  2.290087
C    -6.131296  -1.188979  3.731268
N    -7.007811  -2.428147  3.898447
H    -3.099807  -0.660370  3.124866
H    -2.369510  -2.112561  2.441490
H    -4.514054  -2.853014  2.257316
H    -4.505979  -1.991640  0.754072
H    -6.501321  -1.156109  1.605760
H    -5.430919  0.084396  2.197689
H    -6.754044  -0.349960  4.062791
H    -5.306592  -1.303147  4.446224
H    -7.310677  -2.537802  4.878554
H    -6.524560  -3.297573  3.632024
H    -7.862555  -2.363748  3.325144
N    -3.846445  0.824733  -0.424189
C    -4.599044  1.974957  -0.907712
H    -3.697396  0.053223  -1.071673
H    -3.978940  2.592509  -1.578780
H    -4.906472  2.591428  -0.056826
H    -5.464481  1.620246  -1.480944
Cd    3.165243  0.449869  2.052565
