35
Energy: -172331.604088 eV PBE+vdW (tier 2 basis)
C    -0.088064  -0.801834  1.314974
C    0.189828  0.289516  2.289124
O    1.251202  0.344251  3.010206
H    0.851114  -1.215566  0.927888
H    -0.705413  -0.480830  0.468728
H    -0.607794  -1.626697  1.830536
N    -0.700463  1.268020  2.528926
C    -2.093576  1.321423  2.084006
C    -2.194830  2.122846  0.714526
O    -2.641263  1.460653  -0.218740
H    -0.381082  1.977346  3.193431
H    -2.388606  0.310916  1.785514
C    -3.074216  1.817455  3.171024
C    -4.513642  1.937954  2.629771
C    -5.585376  2.404838  3.641365
C    -6.092703  1.308421  4.579261
N    -7.298811  1.787035  5.378122
H    -2.744189  2.784534  3.577958
H    -3.019493  1.088988  3.994957
H    -4.825693  0.985021  2.174788
H    -4.525000  2.669210  1.808722
H    -6.435140  2.779587  3.049903
H    -5.211568  3.260582  4.225765
H    -5.349383  0.990488  5.320442
H    -6.434238  0.424017  4.026585
H    -8.080923  2.053577  4.760592
H    -7.077184  2.608862  5.959736
H    -7.649020  1.051148  6.010290
N    -1.806481  3.406338  0.590869
C    -1.511806  4.407681  1.611740
H    -1.970987  3.771892  -0.350219
H    -2.427179  4.881891  1.993199
H    -0.897657  5.187847  1.146743
H    -0.939249  3.990078  2.444872
Cd    3.287422  -0.338933  2.676862
