35
Energy: -172332.021041 eV PBE+vdW (tier 2 basis)
C    -0.196876  0.640585  0.066930
C    -0.084736  0.453376  1.538091
O    1.050563  0.439610  2.149024
H    0.137798  -0.279395  -0.438778
H    0.470832  1.452151  -0.256414
H    -1.206683  0.873873  -0.281771
N    -1.141332  0.216986  2.332735
C    -2.501755  -0.212399  1.952345
C    -3.505014  0.512397  2.923812
O    -4.092750  -0.121237  3.801305
H    -0.892053  0.086021  3.318213
H    -2.689610  0.128785  0.924965
C    -2.692708  -1.735420  2.049849
C    -4.021017  -2.208409  1.419500
C    -4.535109  -3.564631  1.963048
C    -5.733103  -3.495139  2.903696
N    -5.418545  -2.849277  4.250469
H    -2.629127  -2.012888  3.112738
H    -1.849291  -2.228900  1.546832
H    -3.879267  -2.291331  0.334135
H    -4.805329  -1.446565  1.550049
H    -3.719490  -4.144821  2.423138
H    -4.877257  -4.183399  1.121794
H    -6.113403  -4.497935  3.132434
H    -6.555562  -2.909446  2.473744
H    -5.021653  -1.896437  4.145495
H    -6.270077  -2.775541  4.825816
H    -4.745842  -3.416054  4.784959
N    -3.670268  1.842193  2.739403
C    -4.620936  2.644622  3.494081
H    -3.233821  2.276177  1.928061
H    -4.254307  3.677339  3.538987
H    -4.741611  2.218670  4.496159
H    -5.607040  2.658649  2.998492
Cd    2.970879  1.312625  1.726638
