35
Energy: -172331.989188 eV PBE+vdW (tier 2 basis)
C    -0.033627  -0.769008  0.342137
C    -0.156435  -0.317887  1.755848
O    0.798307  -0.498387  2.615698
H    -0.956180  -0.671882  -0.235987
H    0.283826  -1.820387  0.320295
H    0.742148  -0.171224  -0.162482
N    -1.240728  0.261643  2.252888
C    -2.559516  0.522410  1.661743
C    -2.954780  1.896968  2.297601
O    -2.709904  2.055585  3.493474
H    -1.183003  0.573962  3.233084
H    -2.465713  0.584289  0.572218
C    -3.594868  -0.561356  2.083907
C    -5.024083  -0.293499  1.574484
C    -6.139132  -1.143072  2.226823
C    -6.186180  -2.604532  1.781953
N    -7.425032  -3.298666  2.335862
H    -3.590374  -0.604761  3.184127
H    -3.217118  -1.528105  1.718022
H    -5.067164  -0.404210  0.479536
H    -5.295110  0.750879  1.784903
H    -7.096415  -0.665352  1.965621
H    -6.050983  -1.085416  3.323447
H    -5.330734  -3.193434  2.134564
H    -6.251816  -2.702020  0.690784
H    -8.291913  -2.843543  2.011194
H    -7.444737  -3.287415  3.366691
H    -7.471023  -4.285451  2.039705
N    -3.551779  2.863453  1.557604
C    -3.776888  2.942045  0.125449
H    -3.721803  3.717859  2.096729
H    -4.690432  3.525212  -0.051303
H    -3.895370  1.950101  -0.319856
H    -2.950709  3.473076  -0.376981
Cd    2.916090  -0.643474  2.461637
