35
Energy: -172332.564745 eV PBE+vdW (tier 2 basis)
C    -2.165633  -1.565965  1.622039
C    -0.925311  -1.011806  2.213114
O    0.119327  -1.755650  2.271289
H    -2.382430  -2.513896  2.144233
H    -2.003961  -1.846090  0.570527
H    -3.028036  -0.900893  1.722243
N    -0.863984  0.243198  2.733384
C    -1.292222  1.476681  2.065650
C    -0.135094  1.898965  1.098343
O    1.045494  1.387719  1.166685
H    -0.084144  0.383730  3.380224
H    -2.173740  1.242471  1.450166
C    -1.635857  2.595567  3.077696
C    -2.912545  2.363527  3.913238
C    -3.263006  3.627584  4.729256
C    -4.639296  3.672189  5.398791
N    -4.709399  2.964676  6.749874
H    -1.753363  3.531284  2.511367
H    -0.765978  2.762009  3.734396
H    -2.779385  1.487021  4.566853
H    -3.750352  2.129931  3.236832
H    -3.261118  4.492573  4.048455
H    -2.475979  3.850013  5.468322
H    -5.426858  3.224414  4.779708
H    -4.925093  4.709537  5.609258
H    -5.652203  3.059285  7.159344
H    -4.047929  3.374684  7.426019
H    -4.509063  1.957558  6.687271
N    -0.371940  2.843462  0.214622
C    0.602311  3.372088  -0.756311
H    -1.304308  3.254163  0.192805
H    0.269981  4.366721  -1.066620
H    0.646883  2.717339  -1.636640
H    1.590492  3.439451  -0.292795
Cd    1.791297  -0.556732  1.649367
