35
Energy: -172331.822482 eV PBE+vdW (tier 2 basis)
C    1.817897  -2.716873  1.676260
C    0.726146  -2.337936  2.623577
O    0.723513  -2.705571  3.863325
H    1.860381  -3.813445  1.588156
H    2.784738  -2.353511  2.059146
H    1.679500  -2.304850  0.670824
N    -0.290205  -1.611766  2.177904
C    -1.529192  -1.282532  2.896963
C    -2.669382  -1.749031  1.950285
O    -2.467832  -1.691548  0.734190
H    -0.354735  -1.464696  1.164646
H    -1.535494  -1.848192  3.837613
C    -1.689156  0.237395  3.205258
C    -1.643520  1.179212  1.987617
C    -2.268611  2.577519  2.194139
C    -1.447755  3.531684  3.061567
N    -2.060678  4.927297  3.062544
H    -0.911346  0.494906  3.940314
H    -2.651515  0.341131  3.730752
H    -2.197445  0.725643  1.151560
H    -0.608633  1.289168  1.628274
H    -3.282528  2.470087  2.611991
H    -2.388904  3.024468  1.194869
H    -0.424965  3.654939  2.683399
H    -1.396918  3.225985  4.113815
H    -2.104556  5.322995  2.110963
H    -3.022222  4.925549  3.434580
H    -1.511712  5.582685  3.639338
N    -3.839902  -2.147961  2.495310
C    -4.967053  -2.612217  1.702129
H    -3.893947  -2.260932  3.506662
H    -5.899054  -2.328705  2.207385
H    -4.955707  -3.712534  1.611854
H    -4.904705  -2.184873  0.695605
Cd    2.294942  -3.794292  4.869829
