35
Energy: -172332.708248 eV PBE+vdW (tier 2 basis)
C    -0.394816  0.455838  -0.727550
C    0.096389  0.506138  0.668823
O    1.361911  0.533831  0.881322
H    -0.038555  1.324920  -1.299321
H    -1.481288  0.352752  -0.800960
H    0.076428  -0.421042  -1.205553
N    -0.743636  0.479434  1.738474
C    -1.912534  1.337526  1.949912
C    -1.389841  2.683043  2.554646
O    -0.185990  2.833857  2.987470
H    -0.298848  0.172866  2.607122
H    -2.348144  1.565016  0.965236
C    -2.972091  0.654731  2.849135
C    -3.640187  -0.573774  2.203110
C    -4.720931  -1.198595  3.113001
C    -5.401949  -2.389375  2.434569
N    -6.477919  -3.010346  3.315203
H    -3.741387  1.400642  3.097424
H    -2.502764  0.383824  3.809324
H    -2.878741  -1.332160  1.965010
H    -4.097933  -0.275975  1.246260
H    -4.263759  -1.522353  4.061605
H    -5.475709  -0.436075  3.363595
H    -4.695671  -3.197909  2.208130
H    -5.906115  -2.101258  1.503603
H    -6.930865  -3.806779  2.840406
H    -7.222023  -2.336548  3.550520
H    -6.094248  -3.366627  4.203337
N    -2.225095  3.694315  2.653096
C    -1.886166  5.020581  3.197362
H    -3.189466  3.551563  2.357596
H    -2.729408  5.690987  3.012073
H    -0.990726  5.410855  2.700927
H    -1.703041  4.949600  4.276779
Cd    1.699457  1.987433  2.428448
