35
Energy: -172331.456691 eV PBE+vdW (tier 2 basis)
C    0.905835  -1.645962  -0.105981
C    0.618432  -0.452463  0.731767
O    1.342514  0.614855  0.683915
H    0.303184  -2.520538  0.152282
H    1.966669  -1.916742  0.007407
H    0.748915  -1.391436  -1.165124
N    -0.421642  -0.359064  1.571719
C    -1.656034  -1.172067  1.702764
C    -1.284442  -2.539133  2.384219
O    -1.153313  -3.536198  1.678576
H    -0.420515  0.514185  2.105373
H    -2.278059  -0.595981  2.400332
C    -2.444187  -1.368882  0.395075
C    -3.873759  -1.908452  0.610916
C    -4.658267  -1.939174  -0.716256
C    -6.149115  -2.264941  -0.624676
N    -6.450651  -3.752154  -0.453226
H    -1.895719  -2.044341  -0.274568
H    -2.502175  -0.385194  -0.095136
H    -4.406775  -1.261929  1.326528
H    -3.820516  -2.913094  1.059421
H    -4.171785  -2.609903  -1.443382
H    -4.618397  -0.940092  -1.176563
H    -6.664271  -1.973904  -1.547681
H    -6.641850  -1.756978  0.213978
H    -7.468810  -3.916094  -0.422515
H    -6.056122  -4.141010  0.413772
H    -6.080497  -4.305445  -1.240127
N    -1.112480  -2.579751  3.729139
C    -1.446053  -1.593987  4.748660
H    -0.922725  -3.526294  4.069938
H    -0.773529  -1.748804  5.602674
H    -2.477037  -1.725688  5.113024
H    -1.313618  -0.570480  4.387050
Cd    3.420154  0.977262  0.234586
