35
Energy: -172332.521918 eV PBE+vdW (tier 2 basis)
C    0.292717  -0.067119  0.205052
C    0.094131  -0.000308  1.670488
O    1.105976  -0.152481  2.445862
H    1.044593  0.662773  -0.126188
H    -0.637504  0.028950  -0.362415
H    0.729117  -1.058637  -0.013744
N    -1.131865  0.167073  2.235440
C    -2.113200  1.215380  1.922598
C    -1.552059  2.525210  2.541884
O    -0.817627  2.484315  3.607141
H    -1.188313  -0.161835  3.202254
H    -2.179653  1.318524  0.831679
C    -3.483802  0.776323  2.510922
C    -4.729079  1.585837  2.107907
C    -6.019089  0.912439  2.631712
C    -7.275059  1.679105  2.212127
N    -8.546214  0.994003  2.695593
H    -3.397316  0.751511  3.609731
H    -3.611667  -0.265837  2.180947
H    -4.785439  1.661948  1.010996
H    -4.670251  2.611626  2.502064
H    -5.977465  0.841358  3.730303
H    -6.070260  -0.117716  2.244256
H    -7.370854  1.751767  1.121453
H    -7.303266  2.693143  2.630167
H    -9.384587  1.521334  2.405720
H    -8.578450  0.916513  3.723262
H    -8.641712  0.041294  2.312741
N    -1.825106  3.711291  2.036810
C    -2.631508  4.095111  0.875063
H    -1.394321  4.488422  2.547432
H    -3.525869  4.637600  1.205712
H    -2.926967  3.222595  0.288819
H    -2.032270  4.765216  0.246115
Cd    0.926003  1.297591  4.024839
