35
Energy: -172331.892306 eV PBE+vdW (tier 2 basis)
C    -0.687616  0.342945  0.024932
C    -0.568289  0.221017  1.514007
O    0.519073  0.265288  2.106320
H    -0.868017  1.404905  -0.214231
H    -1.511756  -0.246325  -0.393557
H    0.261850  0.057325  -0.438759
N    -1.748276  0.074160  2.223319
C    -1.915455  -0.227606  3.631779
C    -1.340417  0.872791  4.587019
O    -2.195899  1.230803  5.475753
H    -2.603973  0.063008  1.669114
H    -2.998563  -0.163569  3.803994
C    -1.542800  -1.685326  4.101632
C    -0.102963  -2.185366  3.943104
C    0.141731  -3.611217  4.506499
C    -0.404089  -4.740540  3.630107
N    0.039728  -6.103106  4.148375
H    -2.245246  -2.323774  3.544607
H    -1.853119  -1.739815  5.157161
H    0.589955  -1.521994  4.478951
H    0.210432  -2.161177  2.890486
H    -0.272035  -3.689768  5.524411
H    1.232077  -3.731214  4.599642
H    -0.029561  -4.677510  2.600485
H    -1.499840  -4.777182  3.600092
H    -0.324878  -6.866703  3.558105
H    -0.290062  -6.278262  5.109439
H    1.067381  -6.191749  4.157931
N    -0.119315  1.325941  4.444680
C    0.509974  2.367077  5.246477
H    0.379815  0.932872  3.603616
H    1.508825  2.563500  4.838474
H    0.644233  2.048173  6.291693
H    -0.040836  3.322639  5.175319
Cd    -2.190811  2.785347  6.973354
