35
Energy: -172331.510131 eV PBE+vdW (tier 2 basis)
C    0.139492  -0.680114  -0.700625
C    -0.251425  0.149376  0.479402
O    0.129796  1.378821  0.621771
H    -0.197639  -0.190815  -1.627989
H    -0.287468  -1.688663  -0.679071
H    1.235761  -0.781166  -0.728598
N    -1.004811  -0.390795  1.424803
C    -1.354207  0.193733  2.729668
C    -0.993661  -0.916949  3.749661
O    -1.050507  -2.088083  3.352844
H    -1.168701  -1.403982  1.381394
H    -0.740404  1.091551  2.870845
C    -2.863081  0.563800  2.863612
C    -3.855386  -0.592507  2.631509
C    -5.273082  -0.395400  3.214687
C    -6.151467  0.604552  2.462883
N    -7.578331  0.582970  2.998932
H    -3.050927  1.397587  2.170718
H    -2.989598  0.973513  3.877855
H    -3.467261  -1.509805  3.099110
H    -3.929853  -0.820062  1.557001
H    -5.199719  -0.105996  4.275353
H    -5.764564  -1.380785  3.194393
H    -6.230190  0.362027  1.395461
H    -5.809747  1.642267  2.561266
H    -7.618086  0.827877  3.999696
H    -8.182691  1.251251  2.497131
H    -8.007065  -0.349842  2.898042
N    -0.686162  -0.623690  5.032950
C    -0.399740  0.657513  5.651808
H    -0.496040  -1.457887  5.596803
H    -0.898991  0.698284  6.631329
H    -0.746970  1.491266  5.036635
H    0.682031  0.761614  5.836772
Cd    1.329567  2.489995  -0.784079
