35
Energy: -172331.443074 eV PBE+vdW (tier 2 basis)
C    -0.581006  -0.710696  -0.052451
C    -0.345666  -0.355877  1.393755
O    0.725408  -0.572359  1.957799
H    0.348409  -0.563324  -0.612878
H    -1.391684  -0.125314  -0.503571
H    -0.842941  -1.778622  -0.114004
N    -1.441034  0.196994  2.054439
C    -1.691712  0.344247  3.476841
C    -2.030518  1.854944  3.857367
O    -2.945997  1.908122  4.752640
H    -2.288387  0.176924  1.486657
H    -2.653078  -0.149995  3.670874
C    -0.684048  -0.276249  4.480180
C    0.658331  0.413891  4.751228
C    1.642596  -0.445211  5.575609
C    2.158366  -1.747777  4.964746
N    3.012383  -1.539664  3.720329
H    -0.536023  -1.300846  4.103745
H    -1.234833  -0.384408  5.425792
H    0.495529  1.341641  5.319785
H    1.133756  0.709136  3.806212
H    1.172818  -0.735480  6.528247
H    2.499541  0.182953  5.863289
H    1.361519  -2.439347  4.665389
H    2.795846  -2.271008  5.687436
H    3.431383  -2.429971  3.413179
H    3.790835  -0.888689  3.898303
H    2.449062  -1.172798  2.934300
N    -1.453818  2.903590  3.315780
C    -0.386207  3.000727  2.303904
H    -1.816725  3.807229  3.626724
H    -0.811890  2.956143  1.294230
H    0.358948  2.216748  2.446209
H    0.101963  3.971930  2.437144
Cd    -4.207718  3.364845  5.761920
