35
Energy: -172332.058868 eV PBE+vdW (tier 2 basis)
C    0.341844  -0.444608  0.354266
C    0.033816  -0.373846  1.809239
O    0.905994  -0.709683  2.709023
H    -0.517842  -0.247574  -0.291306
H    0.739882  -1.439708  0.113118
H    1.119313  0.297429  0.112208
N    -1.142951  -0.004123  2.296599
C    -2.412745  0.314976  1.631289
C    -2.989068  1.463890  2.524897
O    -2.886353  1.333349  3.744554
H    -1.214345  0.053609  3.322774
H    -2.214912  0.649131  0.607173
C    -3.387312  -0.899046  1.656109
C    -4.776258  -0.596508  1.061742
C    -5.873710  -1.646323  1.350909
C    -5.750828  -2.948788  0.560600
N    -6.976000  -3.829237  0.776379
H    -3.489001  -1.213743  2.706346
H    -2.893582  -1.720805  1.115685
H    -4.699826  -0.430841  -0.024417
H    -5.155748  0.343812  1.486331
H    -6.837511  -1.174671  1.102929
H    -5.900987  -1.861873  2.430947
H    -4.888606  -3.557672  0.858536
H    -5.696690  -2.771818  -0.521172
H    -7.840596  -3.357693  0.469575
H    -7.102207  -4.077238  1.769198
H    -6.907161  -4.711568  0.246965
N    -3.583678  2.548628  1.970580
C    -3.663693  2.965423  0.581847
H    -3.879985  3.232453  2.673433
H    -3.665963  2.108014  -0.097342
H    -2.829261  3.637953  0.320628
H    -4.592748  3.533913  0.443247
Cd    3.032770  -0.683153  2.786890
