35
Energy: -172331.974724 eV PBE+vdW (tier 2 basis)
C    -0.013189  -0.231251  0.920387
C    -0.364391  -0.207113  2.367112
O    0.491568  -0.538961  3.283828
H    0.446197  -1.197189  0.670984
H    0.727119  0.558740  0.715294
H    -0.864869  -0.068421  0.254893
N    -1.564943  0.116380  2.828644
C    -2.823876  0.414043  2.133628
C    -3.460065  1.523908  3.035981
O    -3.389067  1.367397  4.254821
H    -1.666739  0.147329  3.853397
H    -2.606510  0.778932  1.123907
C    -3.761749  -0.828393  2.101245
C    -5.135735  -0.556796  1.459509
C    -6.213388  -1.639950  1.695436
C    -6.020612  -2.932043  0.902074
N    -7.229042  -3.847517  1.058481
H    -3.892345  -1.165093  3.141431
H    -3.223673  -1.625213  1.565836
H    -5.023797  -0.375898  0.378826
H    -5.557167  0.367518  1.879752
H    -7.179313  -1.193949  1.411431
H    -6.278594  -1.864850  2.771922
H    -5.155626  -3.519417  1.233185
H    -5.924680  -2.745146  -0.175094
H    -7.112825  -4.723885  0.527473
H    -8.092277  -3.398139  0.717024
H    -7.391486  -4.106063  2.043207
N    -4.069985  2.603842  2.489133
C    -4.121640  3.049958  1.108143
H    -4.407516  3.261986  3.197932
H    -5.057326  3.604114  0.957680
H    -4.090282  2.207738  0.410944
H    -3.293628  3.743142  0.883239
Cd    2.614071  -0.453540  3.422253
