35
Energy: -172331.912267 eV PBE+vdW (tier 2 basis)
C    0.097414  1.104737  1.210567
C    -0.049423  -0.170554  1.960070
O    0.949425  -0.833737  2.429826
H    0.861580  1.734360  1.687388
H    -0.829476  1.682866  1.149506
H    0.448836  0.887040  0.188737
N    -1.240754  -0.760284  2.148759
C    -2.501454  -0.529611  1.419591
C    -3.491314  0.411449  2.186889
O    -4.304727  1.027068  1.488426
H    -1.187208  -1.641337  2.671770
H    -2.271737  0.006939  0.492576
C    -3.153740  -1.904034  1.117461
C    -4.575990  -1.954279  0.521882
C    -4.765637  -1.654651  -0.979140
C    -4.845994  -0.211990  -1.472049
N    -6.037891  0.540314  -0.899008
H    -3.184735  -2.464971  2.066458
H    -2.463119  -2.449032  0.455092
H    -5.275151  -1.377880  1.146465
H    -4.893547  -2.997277  0.660466
H    -5.678255  -2.175546  -1.309877
H    -3.959638  -2.130101  -1.559236
H    -4.967478  -0.195977  -2.561845
H    -3.970934  0.398315  -1.220120
H    -6.188583  1.432132  -1.392179
H    -5.873270  0.760189  0.096853
H    -6.908988  -0.003883  -0.983098
N    -3.446062  0.481760  3.523811
C    -4.409017  1.238193  4.324899
H    -2.801612  -0.129355  4.019373
H    -3.923517  1.544314  5.258084
H    -5.284340  0.619668  4.574978
H    -4.742273  2.114034  3.758060
Cd    2.957522  -0.317825  3.021266
