35
Energy: -172331.802395 eV PBE+vdW (tier 2 basis)
C    0.078496  0.099304  0.148971
C    -0.176976  0.346887  1.593848
O    0.753101  0.458629  2.469993
H    1.005258  0.597780  -0.163275
H    -0.733556  0.441577  -0.500870
H    0.224302  -0.981524  -0.014045
N    -1.427007  0.406704  2.091940
C    -2.659344  -0.067532  1.452554
C    -3.482644  1.106082  0.795173
O    -4.302825  0.756132  -0.051442
H    -1.464509  0.570853  3.103113
H    -2.384850  -0.705485  0.604209
C    -3.514007  -0.887224  2.453041
C    -4.696374  -1.686212  1.839126
C    -6.081555  -1.046429  2.040993
C    -7.249254  -1.758269  1.357031
N    -7.674750  -3.054081  2.044171
H    -3.870400  -0.226808  3.259538
H    -2.820309  -1.600664  2.920736
H    -4.670017  -2.684810  2.301246
H    -4.519899  -1.848194  0.764837
H    -6.089521  -0.033107  1.615085
H    -6.298427  -0.919516  3.114554
H    -7.024903  -2.026689  0.316905
H    -8.143755  -1.124510  1.360054
H    -8.485005  -3.472600  1.561784
H    -7.958284  -2.890054  3.021489
H    -6.930130  -3.764477  2.050512
N    -3.267710  2.371886  1.176719
C    -4.059892  3.497930  0.673703
H    -2.636811  2.543529  1.954631
H    -3.441720  4.401312  0.708937
H    -4.955374  3.658958  1.290394
H    -4.369241  3.286096  -0.355430
Cd    2.840005  1.069755  2.370180
