35
Energy: -172333.214228 eV PBE+vdW (tier 2 basis)
C    0.304095  1.116984  0.257137
C    -0.057199  0.413476  1.522081
O    0.536812  -0.700771  1.748985
H    0.152200  0.423360  -0.583811
H    1.377084  1.357643  0.269462
H    -0.278381  2.027870  0.081192
N    -0.975377  0.975997  2.324468
C    -1.773575  0.465729  3.478588
C    -0.975581  0.453817  4.803567
O    -0.116716  -0.457994  5.102806
H    -1.295792  1.881670  1.986910
H    -2.541324  1.242655  3.596681
C    -2.533366  -0.851038  3.177392
C    -3.760895  -1.059587  4.088691
C    -4.655755  -2.231409  3.626898
C    -5.902506  -2.360237  4.506748
N    -6.825955  -3.474933  4.034683
H    -1.867251  -1.727223  3.238130
H    -2.855813  -0.791273  2.127752
H    -4.360904  -0.135254  4.089902
H    -3.441145  -1.227257  5.129090
H    -4.084314  -3.172847  3.651145
H    -4.958715  -2.064762  2.580794
H    -6.509303  -1.446016  4.496717
H    -5.653675  -2.596594  5.548869
H    -7.163453  -3.317436  3.073082
H    -7.659817  -3.544177  4.639000
H    -6.364410  -4.396661  4.051380
N    -1.237945  1.401208  5.680591
C    -0.596839  1.576340  6.990517
H    -1.957259  2.082124  5.439997
H    -1.345927  1.439546  7.780757
H    -0.198175  2.596406  7.053022
H    0.206242  0.847220  7.110838
Cd    0.973933  -1.501575  3.633942
