35
Energy: -172331.633251 eV PBE+vdW (tier 2 basis)
C    -2.232064  -2.585263  -1.868050
C    -1.613199  -2.778857  -0.526865
O    -0.745394  -3.706991  -0.293517
H    -3.149179  -1.988853  -1.846343
H    -1.506051  -2.072091  -2.518477
H    -2.477997  -3.558362  -2.314344
N    -1.899851  -1.994690  0.509948
C    -2.688520  -0.751933  0.509418
C    -1.946314  0.326954  -0.329793
O    -0.753871  0.183432  -0.595796
H    -1.351095  -2.190256  1.347681
H    -3.661864  -0.972353  0.048967
C    -2.951099  -0.261882  1.959724
C    -1.707958  0.144740  2.775599
C    -1.995044  0.998947  4.032604
C    -2.667372  0.248905  5.183323
N    -2.758161  1.125475  6.426665
H    -3.529661  -1.049423  2.466579
H    -3.628638  0.600261  1.873931
H    -1.031816  0.742994  2.147486
H    -1.124523  -0.740484  3.077262
H    -2.603360  1.872980  3.749601
H    -1.027292  1.391866  4.381192
H    -2.097830  -0.639252  5.485392
H    -3.696365  -0.057456  4.958580
H    -3.306677  1.981709  6.256019
H    -3.208886  0.626279  7.208753
H    -1.825594  1.422282  6.752482
N    -2.619200  1.437381  -0.747798
C    -4.046211  1.680865  -0.858057
H    -2.009386  2.093112  -1.245600
H    -4.265239  2.694581  -0.487110
H    -4.632252  0.957090  -0.286691
H    -4.362230  1.654917  -1.913762
Cd    0.001457  -5.294730  -1.512599
