35
Energy: -172331.807812 eV PBE+vdW (tier 2 basis)
C    -0.895657  -1.400560  -1.382788
C    -0.451873  -1.525151  0.030063
O    0.794222  -1.615656  0.354563
H    -0.424546  -2.198994  -1.976594
H    -0.541839  -0.442011  -1.791426
H    -1.978140  -1.477668  -1.513096
N    -1.281817  -1.519731  1.082722
C    -2.708390  -1.132227  1.211652
C    -3.588559  -2.265429  0.565587
O    -3.990512  -2.116930  -0.585429
H    -0.795727  -1.680561  1.968660
H    -2.884339  -1.128862  2.295095
C    -3.059056  0.256564  0.647756
C    -4.459881  0.756540  1.060801
C    -4.792732  2.091687  0.364560
C    -6.228445  2.600030  0.495625
N    -6.536654  3.263773  1.836104
H    -3.003622  0.232039  -0.448550
H    -2.292501  0.959965  1.005893
H    -4.501943  0.857744  2.158049
H    -5.218323  0.011633  0.775124
H    -4.641593  1.969134  -0.718871
H    -4.084639  2.881013  0.666003
H    -6.971389  1.801471  0.374466
H    -6.432744  3.370499  -0.257236
H    -6.429404  2.621751  2.632804
H    -7.508516  3.609700  1.855734
H    -5.925232  4.076291  2.004929
N    -3.871382  -3.375966  1.290832
C    -3.684241  -3.643928  2.710259
H    -4.492494  -4.019549  0.792555
H    -3.591813  -4.730234  2.839958
H    -4.553810  -3.314751  3.300692
H    -2.776743  -3.172546  3.098625
Cd    2.527176  -2.403898  -0.659969
