35
Energy: -172331.978536 eV PBE+vdW (tier 2 basis)
C    0.572125  -1.207912  1.068606
C    -0.196067  0.073801  1.186851
O    0.215334  1.149845  0.736656
H    1.644982  -0.986600  1.072173
H    0.336547  -1.649521  0.085814
H    0.327399  -1.941341  1.844504
N    -1.429801  0.012827  1.819809
C    -2.239330  1.147436  2.208630
C    -2.860942  1.890333  0.966365
O    -4.136670  1.989769  1.030576
H    -1.731156  -0.901086  2.153676
H    -3.104304  0.735116  2.744779
C    -1.553437  2.202448  3.136397
C    -1.191097  1.658850  4.531746
C    -0.695606  2.802969  5.443698
C    -0.520378  2.479106  6.929259
N    0.786441  1.766524  7.269081
H    -2.262271  3.037200  3.246411
H    -0.664982  2.600751  2.626852
H    -0.429715  0.868596  4.432142
H    -2.077022  1.192173  4.991351
H    -1.439113  3.614470  5.424630
H    0.227126  3.253232  5.042822
H    -1.324018  1.843404  7.321735
H    -0.500557  3.403160  7.519144
H    0.860024  1.610577  8.286702
H    1.606322  2.326730  6.992050
H    0.869647  0.845657  6.817991
N    -2.075747  2.349806  0.022492
C    -2.495777  3.057218  -1.180981
H    -1.064407  2.107654  0.159159
H    -1.603238  3.287541  -1.775469
H    -2.969844  4.022030  -0.937636
H    -3.138799  2.427548  -1.819716
Cd    -5.599957  2.821428  -0.325722
