35
Energy: -172332.657408 eV PBE+vdW (tier 2 basis)
C    -0.574998  -2.928354  1.307610
C    -0.350824  -1.968343  2.424809
O    0.835916  -1.893653  2.898313
H    -1.613844  -2.947980  0.959237
H    -0.269032  -3.935472  1.624409
H    0.081467  -2.650886  0.468465
N    -1.386615  -1.230142  2.864090
C    -1.341528  -0.074929  3.780393
C    -1.208145  -0.537423  5.253273
O    -0.063435  -0.388213  5.839566
H    -2.266587  -1.389179  2.375590
H    -0.397968  0.460442  3.580364
C    -2.484717  0.911636  3.423713
C    -2.389150  2.370982  3.925997
C    -2.762821  2.638417  5.400911
C    -3.464158  3.973215  5.675704
N    -2.594836  5.211483  5.475321
H    -3.461555  0.491410  3.698538
H    -2.473687  0.959686  2.324152
H    -3.089180  2.923784  3.280064
H    -1.391175  2.774717  3.693096
H    -1.896462  2.522365  6.071070
H    -3.499394  1.892244  5.737490
H    -3.807982  4.024629  6.715723
H    -4.334590  4.113631  5.021974
H    -3.133754  6.065461  5.691627
H    -2.259412  5.310877  4.506695
H    -1.772516  5.213766  6.096422
N    -2.184304  -1.072690  5.958914
C    -3.572132  -1.395456  5.607338
H    -1.903808  -1.327115  6.911017
H    -4.255606  -0.607473  5.949068
H    -3.836919  -2.324811  6.124819
H    -3.686662  -1.555227  4.533343
Cd    1.600307  -1.055066  4.680491
