35
Energy: -172331.847528 eV PBE+vdW (tier 2 basis)
C    0.880671  0.997107  1.311371
C    0.295888  -0.049474  2.191005
O    1.051926  -0.807897  2.914717
H    1.473117  1.682194  1.944046
H    1.552156  0.523244  0.582422
H    0.150462  1.586948  0.758505
N    -1.013309  -0.310720  2.333807
C    -2.175420  -0.020514  1.472154
C    -1.954807  -0.695828  0.077324
O    -0.908311  -0.444578  -0.520003
H    -1.185122  -1.035757  3.033707
H    -3.001141  -0.521838  1.992185
C    -2.519257  1.483561  1.313169
C    -3.964319  1.750606  0.839203
C    -4.187768  3.260622  0.612570
C    -5.512558  3.681619  -0.026478
N    -6.683953  3.755769  0.950621
H    -1.826997  1.950008  0.599859
H    -2.354121  1.962722  2.289176
H    -4.673117  1.350605  1.583144
H    -4.155519  1.218247  -0.105982
H    -3.415027  3.627998  -0.079831
H    -4.025250  3.824506  1.545918
H    -5.829717  3.005874  -0.830897
H    -5.429760  4.691226  -0.446311
H    -7.538690  4.076130  0.469004
H    -6.499309  4.426866  1.711113
H    -6.904313  2.848327  1.382718
N    -2.902824  -1.510510  -0.435491
C    -4.072948  -2.095580  0.210146
H    -2.635477  -1.906537  -1.340190
H    -3.797680  -2.943464  0.857163
H    -4.733146  -2.481557  -0.574659
H    -4.626958  -1.352480  0.792999
Cd    3.062170  -0.503692  3.585744
