35
Energy: -172332.115995 eV PBE+vdW (tier 2 basis)
C    -0.171478  0.332182  -0.493428
C    -0.134212  0.177620  0.986600
O    0.956992  -0.129374  1.616125
H    0.239659  -0.571220  -0.964925
H    0.463002  1.183944  -0.785242
H    -1.172459  0.510006  -0.894817
N    -1.201084  0.302942  1.766178
C    -2.625721  0.456513  1.441160
C    -3.174530  1.295838  2.642317
O    -2.823248  0.977487  3.775831
H    -1.038746  0.198172  2.777876
H    -2.733772  0.998730  0.492939
C    -3.326994  -0.928922  1.391746
C    -4.858834  -0.919732  1.219915
C    -5.412836  -2.357774  1.313517
C    -6.929718  -2.517483  1.420858
N    -7.667481  -2.413304  0.087566
H    -3.074304  -1.452891  2.326349
H    -2.860607  -1.496451  0.571444
H    -5.126025  -0.448267  0.259642
H    -5.320398  -0.312233  2.013970
H    -5.020659  -2.821375  2.231675
H    -5.025456  -2.982970  0.492289
H    -7.388352  -1.770453  2.080892
H    -7.183052  -3.511604  1.807734
H    -8.680723  -2.556404  0.220232
H    -7.347661  -3.133026  -0.577390
H    -7.549019  -1.496626  -0.364101
N    -4.014315  2.320140  2.368891
C    -4.525550  3.213884  3.399397
H    -4.173596  2.577377  1.396924
H    -5.525841  3.557645  3.109371
H    -3.879037  4.101543  3.503560
H    -4.544958  2.686464  4.358920
Cd    3.028086  0.162899  1.220652
