35
Energy: -172332.209274 eV PBE+vdW (tier 2 basis)
C    0.236128  -0.076528  0.044297
C    -0.001565  -0.092672  1.505519
O    0.975084  -0.360798  2.294032
H    0.617160  -1.076892  -0.229894
H    1.041340  0.624203  -0.217374
H    -0.668584  0.116652  -0.539290
N    -1.231543  0.116744  2.048284
C    -2.124559  1.254680  1.786256
C    -1.479074  2.475478  2.501211
O    -0.792658  2.305473  3.586095
H    -1.328460  -0.255350  2.995900
H    -2.156355  1.434547  0.703796
C    -3.541516  0.890703  2.315368
C    -4.661851  1.904326  2.026357
C    -6.054654  1.520978  2.584844
C    -6.790475  0.443476  1.784413
N    -8.221589  0.273138  2.278571
H    -3.469492  0.726056  3.403407
H    -3.771152  -0.084480  1.860739
H    -4.744082  2.083363  0.943059
H    -4.410456  2.871585  2.483232
H    -6.662604  2.438817  2.580933
H    -5.963648  1.213684  3.638822
H    -6.328355  -0.548107  1.862052
H    -6.872405  0.705875  0.721944
H    -8.719827  -0.454848  1.743252
H    -8.765393  1.144508  2.181900
H    -8.260429  -0.000228  3.272191
N    -1.626893  3.707960  2.059001
C    -2.355087  4.233039  0.899899
H    -1.149799  4.412462  2.630736
H    -3.206217  4.837393  1.238106
H    -2.710756  3.427905  0.253778
H    -1.675147  4.879442  0.330890
Cd    0.872100  0.997466  3.960521
