35
Energy: -172331.182798 eV PBE+vdW (tier 2 basis)
C    -0.104292  -0.051299  0.587082
C    -0.343813  0.163674  2.038301
O    0.581808  0.629465  2.805613
H    0.148364  0.909752  0.115430
H    -0.940227  -0.499147  0.050875
H    0.768189  -0.713988  0.471200
N    -1.501635  -0.054759  2.685274
C    -2.925605  -0.207612  2.304327
C    -3.526029  -1.550679  2.896644
O    -4.605608  -1.388964  3.468801
H    -1.400247  0.126477  3.688619
H    -3.428868  0.550170  2.917622
C    -3.355877  -0.005409  0.839512
C    -4.890469  -0.007931  0.613538
C    -5.674877  1.133653  1.285104
C    -7.198636  1.031368  1.192749
N    -7.766150  1.327440  -0.193620
H    -2.938409  -0.789765  0.195765
H    -2.939952  0.956835  0.499685
H    -5.305712  -0.975468  0.933017
H    -5.016999  0.027837  -0.479473
H    -5.338442  2.116001  0.915226
H    -5.483484  1.142035  2.368786
H    -7.674534  1.759239  1.860212
H    -7.564207  0.032293  1.461987
H    -8.796831  1.278740  -0.179621
H    -7.514976  2.273957  -0.515066
H    -7.445471  0.658929  -0.907515
N    -2.938164  -2.743290  2.743809
C    -1.731971  -3.110041  2.007226
H    -3.454636  -3.505272  3.186721
H    -1.781437  -4.183837  1.799087
H    -0.825685  -2.920663  2.597717
H    -1.675545  -2.593701  1.042905
Cd    2.742438  0.643207  2.754061
