35
Energy: -172331.717365 eV PBE+vdW (tier 2 basis)
C    -0.188873  1.575041  0.406657
C    0.194644  1.263709  1.807920
O    1.218299  1.805698  2.378239
H    0.688105  1.428415  -0.242869
H    -0.472004  2.635617  0.333505
H    -0.998145  0.948035  0.023905
N    -0.489285  0.435219  2.609141
C    -1.848454  -0.146199  2.503920
C    -1.811247  -1.298115  1.431271
O    -2.121776  -1.034934  0.272502
H    -0.031239  0.295929  3.513581
H    -2.019286  -0.595675  3.490412
C    -2.982469  0.858074  2.225747
C    -4.375331  0.238567  2.453509
C    -5.517384  1.246335  2.205684
C    -6.882138  0.599261  2.445439
N    -8.026785  1.574856  2.206178
H    -2.909178  1.231003  1.195881
H    -2.837740  1.710688  2.906138
H    -4.444149  -0.140649  3.485547
H    -4.510617  -0.624861  1.784323
H    -5.459977  1.619286  1.170622
H    -5.395663  2.115206  2.872187
H    -6.998376  0.248235  3.478463
H    -7.063081  -0.246814  1.770696
H    -7.971939  2.393262  2.830415
H    -8.939520  1.124911  2.375289
H    -8.036873  1.926744  1.237399
N    -1.435857  -2.542118  1.816647
C    -1.237343  -3.089694  3.152276
H    -1.508452  -3.225601  1.058087
H    -0.578703  -3.962865  3.063224
H    -2.185404  -3.435470  3.593647
H    -0.761184  -2.367556  3.822426
Cd    3.110686  2.526424  1.635412
