35
Energy: -172331.640898 eV PBE+vdW (tier 2 basis)
C    0.492339  -0.282211  0.140294
C    0.146832  -0.307577  1.587778
O    1.074293  -0.258562  2.487096
H    1.016068  0.669087  -0.064860
H    -0.357351  -0.359182  -0.537170
H    1.169906  -1.117216  -0.083852
N    -1.092120  -0.359978  2.103026
C    -2.376414  -0.822002  1.535369
C    -2.212790  -2.304857  1.065601
O    -1.263167  -2.572350  0.328688
H    -1.082152  -0.310106  3.123781
H    -3.056691  -0.786555  2.395137
C    -2.945360  0.068821  0.398516
C    -4.395116  -0.281995  -0.022294
C    -5.546472  0.512399  0.643463
C    -5.861652  1.810654  -0.103934
N    -7.135015  2.471982  0.410138
H    -2.304179  -0.022811  -0.485167
H    -2.868077  1.113340  0.734251
H    -4.583571  -1.352030  0.136101
H    -4.466438  -0.159729  -1.111982
H    -5.325018  0.725472  1.701871
H    -6.444283  -0.124728  0.633276
H    -6.037798  1.623249  -1.170698
H    -5.070481  2.565216  -0.013516
H    -7.345514  3.334697  -0.115154
H    -7.068713  2.730441  1.405452
H    -7.952334  1.850942  0.309123
N    -3.099759  -3.251535  1.450720
C    -4.126928  -3.222029  2.482163
H    -2.871941  -4.174664  1.070597
H    -4.555005  -2.222786  2.601790
H    -3.729204  -3.570719  3.448603
H    -4.928279  -3.912280  2.187768
Cd    3.117661  0.352096  2.294559
