35
Energy: -172331.961785 eV PBE+vdW (tier 2 basis)
C    -0.491793  0.675898  -0.195667
C    -0.313622  0.638473  1.292485
O    0.777995  0.826326  1.843335
H    -0.581070  1.733144  -0.495597
H    -1.377438  0.136187  -0.547272
H    0.412219  0.283306  -0.674937
N    -1.444855  0.394043  2.058058
C    -1.459964  0.099280  3.476014
C    -1.099500  1.360304  4.345759
O    -1.992210  1.642064  5.220409
H    -2.320084  0.263565  1.553879
H    -2.504792  -0.124327  3.729355
C    -0.574885  -1.105391  3.933592
C    -1.000702  -2.454661  3.323903
C    -0.029403  -3.573461  3.759861
C    -0.168324  -4.922870  3.052223
N    -1.309243  -5.792580  3.574941
H    -0.632096  -1.153486  5.031395
H    0.471443  -0.888964  3.675722
H    -0.994057  -2.381639  2.225293
H    -2.036210  -2.686542  3.622386
H    -0.059315  -3.716362  4.852346
H    1.000372  -3.250840  3.542755
H    0.737528  -5.523302  3.198554
H    -0.335676  -4.819517  1.972723
H    -1.329759  -6.698864  3.081539
H    -2.234029  -5.359921  3.446702
H    -1.197115  -6.000659  4.578318
N    0.034741  1.986647  4.142768
C    0.510005  3.162651  4.859768
H    0.589000  1.608900  3.335675
H    1.482271  3.453141  4.442922
H    0.679130  2.945062  5.927320
H    -0.159005  4.028309  4.711547
Cd    -2.144418  3.254280  6.654510
