35
Energy: -172332.642862 eV PBE+vdW (tier 2 basis)
C    0.609637  0.704959  0.105857
C    0.296405  0.407813  1.521547
O    1.260099  0.237216  2.351701
H    1.222873  -0.134856  -0.268759
H    -0.279382  0.787749  -0.526097
H    1.249196  1.594672  0.021141
N    -0.979028  0.257185  1.974254
C    -2.106540  1.172434  1.776926
C    -1.919578  2.341802  2.792754
O    -1.210095  2.215251  3.860207
H    -1.054958  -0.315034  2.818768
H    -2.044979  1.583692  0.758641
C    -3.432806  0.380429  1.949489
C    -4.728995  1.080639  1.500465
C    -5.922379  0.096919  1.493826
C    -7.217731  0.770991  1.036831
N    -8.383613  -0.207759  1.001943
H    -3.524307  0.061396  3.000413
H    -3.296234  -0.534205  1.353132
H    -4.598025  1.491141  0.485984
H    -4.966046  1.924203  2.167306
H    -6.057918  -0.321807  2.503691
H    -5.689530  -0.746219  0.824203
H    -7.137394  1.177616  0.020892
H    -7.525843  1.580756  1.709882
H    -8.574348  -0.616975  1.928891
H    -8.213597  -0.988941  0.350705
H    -9.250650  0.259092  0.693345
N    -2.545745  3.476431  2.555547
C    -2.508328  4.685707  3.389836
H    -3.123316  3.524386  1.717228
H    -3.470118  4.809153  3.904247
H    -2.333286  5.553077  2.743319
H    -1.711479  4.597616  4.130492
Cd    0.670053  1.220116  4.170507
