35
Energy: -172331.702631 eV PBE+vdW (tier 2 basis)
C    -0.053738  -1.434632  -0.123199
C    0.253467  -0.535380  1.019927
O    1.355769  0.132273  1.091543
H    0.798804  -2.112532  -0.283860
H    -0.948130  -2.046057  0.021528
H    -0.165297  -0.832823  -1.037983
N    -0.579290  -0.308717  2.046281
C    -2.025710  -0.594694  2.219752
C    -2.198682  -2.142734  2.444135
O    -2.545278  -2.842312  1.496375
H    -0.164671  0.290296  2.764772
H    -2.285886  -0.076543  3.151557
C    -2.915975  -0.077639  1.072501
C    -4.441358  -0.144834  1.323110
C    -5.016526  0.976896  2.206470
C    -6.519223  0.893842  2.485402
N    -7.390593  1.245431  1.282183
H    -2.703132  -0.663273  0.170487
H    -2.617042  0.961438  0.867477
H    -4.714623  -1.129457  1.732517
H    -4.901762  -0.111199  0.323453
H    -4.770990  1.966811  1.787542
H    -4.550967  0.963973  3.204385
H    -6.810068  1.602797  3.269492
H    -6.832391  -0.110418  2.797993
H    -8.390395  1.203482  1.533737
H    -7.253786  0.601544  0.490659
H    -7.205684  2.201379  0.943715
N    -1.948059  -2.665644  3.670698
C    -1.752182  -2.004838  4.953575
H    -2.136198  -3.671317  3.711119
H    -1.117749  -2.650701  5.575053
H    -2.706170  -1.870781  5.487137
H    -1.253903  -1.037536  4.843384
Cd    3.336368  -0.219910  0.311005
