35
Energy: -172332.945566 eV PBE+vdW (tier 2 basis)
C    -0.019304  0.374276  0.148474
C    0.013833  -0.189495  1.527384
O    1.165931  -0.374104  2.056540
H    0.513102  -0.302845  -0.535080
H    0.541536  1.321612  0.143976
H    -1.034244  0.555093  -0.222076
N    -1.150999  -0.453348  2.146472
C    -1.407584  -0.738875  3.576295
C    -1.276262  -2.259709  3.856575
O    -0.122980  -2.783764  4.088760
H    -1.980746  -0.297382  1.575285
H    -0.600858  -0.261441  4.157695
C    -2.751388  -0.084596  3.979177
C    -3.068424  -0.079489  5.497031
C    -2.595189  1.173603  6.270776
C    -3.521037  2.396162  6.244070
N    -4.638078  2.325508  7.282153
H    -3.570895  -0.568456  3.422255
H    -2.724498  0.946315  3.594465
H    -2.632829  -0.967535  5.977315
H    -4.154545  -0.211913  5.613314
H    -1.626383  1.518970  5.879407
H    -2.385391  0.903889  7.317396
H    -4.017053  2.543669  5.276212
H    -2.967945  3.311995  6.483170
H    -5.234828  3.166774  7.237696
H    -4.260359  2.277994  8.240957
H    -5.256799  1.512047  7.154986
N    -2.343202  -3.027456  3.864673
C    -2.357017  -4.484706  4.071794
H    -3.244460  -2.583259  3.699674
H    -3.200191  -4.737081  4.723581
H    -1.419367  -4.800580  4.533680
H    -2.487483  -4.989905  3.105521
Cd    1.674299  -1.861780  3.461273
