35
Energy: -172333.051216 eV PBE+vdW (tier 2 basis)
C    -1.141925  0.891745  -0.054873
C    -0.868848  0.374076  1.318542
O    0.116928  -0.435986  1.441275
H    -1.207330  0.041343  -0.748730
H    -0.283412  1.494362  -0.387205
H    -2.056250  1.490958  -0.123763
N    -1.669291  0.777533  2.318862
C    -1.819796  0.341590  3.734959
C    -0.688093  0.847084  4.660738
O    0.480527  0.307519  4.719362
H    -2.360044  1.465015  2.025282
H    -2.722018  0.877055  4.061174
C    -2.107480  -1.172076  3.921757
C    -3.575504  -1.570897  3.644566
C    -3.832417  -3.052883  3.995398
C    -5.288259  -3.486725  4.186704
N    -6.061226  -3.731740  2.892977
H    -1.868072  -1.421969  4.966873
H    -1.435225  -1.778103  3.295110
H    -3.829317  -1.360312  2.593475
H    -4.230335  -0.936723  4.263850
H    -3.360997  -3.269726  4.966707
H    -3.329382  -3.722442  3.279075
H    -5.874207  -2.753115  4.754732
H    -5.329257  -4.440829  4.725534
H    -7.017628  -4.059679  3.102255
H    -5.616423  -4.460880  2.315678
H    -6.155858  -2.886552  2.313844
N    -0.972145  1.836181  5.483174
C    -0.057710  2.436793  6.463872
H    -1.921276  2.207247  5.471873
H    -0.156712  3.526954  6.408641
H    0.969100  2.136511  6.246545
H    -0.334767  2.103238  7.472871
Cd    1.373648  -0.697569  3.107864
