35
Energy: -172331.726330 eV PBE+vdW (tier 2 basis)
C    0.286821  -0.870744  0.182093
C    -0.072184  -0.401761  1.546130
O    0.782630  -0.462203  2.514235
H    0.588630  -1.925507  0.224836
H    1.147549  -0.270171  -0.162374
H    -0.515687  -0.783765  -0.548160
N    -1.241223  0.146832  1.912291
C    -2.623727  0.042037  1.398533
C    -3.001495  -1.440294  1.127511
O    -2.154755  -2.212743  0.678530
H    -1.206528  0.471253  2.880939
H    -3.212692  0.385572  2.258056
C    -3.042097  0.980767  0.222965
C    -2.611774  0.649671  -1.216120
C    -3.504788  1.273344  -2.316321
C    -3.397014  2.793040  -2.448321
N    -4.204129  3.297276  -3.638731
H    -2.722628  1.992595  0.512502
H    -4.142920  0.988656  0.267489
H    -2.652795  -0.437325  -1.380860
H    -1.568495  0.953278  -1.387697
H    -4.554047  0.987234  -2.138696
H    -3.212604  0.810505  -3.271763
H    -2.364745  3.119877  -2.627056
H    -3.785613  3.331968  -1.575540
H    -3.877469  2.882524  -4.524808
H    -4.131270  4.321531  -3.737416
H    -5.206140  3.071188  -3.549295
N    -4.273247  -1.851338  1.364137
C    -5.335070  -1.222727  2.134393
H    -4.406234  -2.842270  1.142434
H    -5.309721  -1.555188  3.185762
H    -6.299350  -1.543353  1.717124
H    -5.281000  -0.131242  2.096193
Cd    2.903735  -0.749353  2.513587
