35
Energy: -172332.126426 eV PBE+vdW (tier 2 basis)
C    -0.041270  0.269898  0.131223
C    -0.230589  0.489926  1.591491
O    0.765159  0.756464  2.378127
H    0.730924  -0.495974  -0.024962
H    0.310792  1.204456  -0.333680
H    -0.949641  -0.039997  -0.391812
N    -1.405170  0.397494  2.201757
C    -2.715590  -0.042314  1.707996
C    -3.719348  0.791139  2.571403
O    -3.487207  0.914531  3.771492
H    -1.413143  0.601148  3.211546
H    -2.810207  0.202364  0.642019
C    -2.925634  -1.561975  1.956986
C    -4.309717  -2.105163  1.559564
C    -4.427458  -3.620302  1.833835
C    -5.811389  -4.152779  1.460418
N    -5.940914  -5.643746  1.743246
H    -2.739423  -1.752028  3.024989
H    -2.140297  -2.089496  1.393467
H    -4.499020  -1.910079  0.491824
H    -5.095548  -1.579158  2.123322
H    -4.232367  -3.812336  2.901112
H    -3.655555  -4.160013  1.262063
H    -6.030442  -4.029237  0.392391
H    -6.610569  -3.668592  2.035579
H    -6.877703  -5.991218  1.486291
H    -5.800553  -5.859682  2.741529
H    -5.255025  -6.198275  1.209696
N    -4.797083  1.323367  1.949919
C    -5.755302  2.180358  2.632855
H    -4.865177  1.249900  0.936661
H    -6.745466  2.037294  2.182971
H    -5.482272  3.243160  2.517078
H    -5.759599  1.939813  3.701225
Cd    2.654712  1.695456  2.094989
