35
Energy: -172333.216920 eV PBE+vdW (tier 2 basis)
C    -0.349891  0.868346  -0.458379
C    -0.247469  0.078027  0.800958
O    0.893311  -0.432071  1.078855
H    -0.095718  0.225272  -1.313239
H    0.408303  1.665915  -0.434087
H    -1.338443  1.315237  -0.610193
N    -1.338069  -0.042400  1.579844
C    -1.427589  -0.527820  2.973684
C    -1.602804  -2.068703  2.999592
O    -0.574115  -2.842291  2.993921
H    -2.183284  0.382423  1.201342
H    -0.451606  -0.335629  3.449963
C    -2.484712  0.302184  3.742834
C    -2.479987  0.058459  5.265311
C    -3.577707  0.793449  6.072261
C    -3.326100  2.288237  6.287352
N    -4.342199  2.883029  7.254432
H    -3.489920  0.118905  3.323638
H    -2.260879  1.356548  3.521290
H    -1.491177  0.316800  5.675923
H    -2.614182  -1.013756  5.469364
H    -3.628798  0.300690  7.055437
H    -4.560338  0.641392  5.597766
H    -3.408645  2.880254  5.367717
H    -2.342365  2.477545  6.735473
H    -5.309546  2.788484  6.909898
H    -4.171425  3.889247  7.406447
H    -4.302575  2.427113  8.179093
N    -2.805692  -2.599248  3.021395
C    -3.111639  -4.038078  2.991976
H    -3.598815  -1.964480  3.088471
H    -2.271877  -4.584346  2.556309
H    -4.014114  -4.187690  2.390193
H    -3.292392  -4.400866  4.012426
Cd    1.278457  -2.171175  2.211734
