35
Energy: -172331.704251 eV PBE+vdW (tier 2 basis)
C    0.615113  -1.079993  0.588666
C    0.098740  -0.006168  1.489566
O    0.765635  1.065082  1.742069
H    0.782411  -0.665072  -0.417028
H    -0.059462  -1.938107  0.494747
H    1.576014  -1.453412  0.979415
N    -1.111599  -0.149795  2.040004
C    -1.829175  0.840364  2.867501
C    -2.687174  0.094347  3.935545
O    -3.917480  0.211711  3.949868
H    -1.635498  -0.966678  1.726618
H    -1.062283  1.429286  3.391263
C    -2.703311  1.808686  2.045794
C    -3.786312  1.158740  1.167662
C    -4.989149  2.064614  0.843188
C    -5.858659  2.535752  2.007556
N    -6.516393  1.387934  2.762126
H    -3.141393  2.501286  2.778264
H    -2.031208  2.422692  1.428160
H    -4.149345  0.226692  1.634807
H    -3.349351  0.840610  0.209091
H    -5.622172  1.557635  0.099069
H    -4.640715  2.982498  0.344125
H    -5.305290  3.106563  2.763073
H    -6.672744  3.171358  1.639807
H    -7.165266  1.743898  3.479141
H    -7.064876  0.783830  2.133146
H    -5.806522  0.807180  3.240719
N    -2.082554  -0.678216  4.878336
C    -0.695673  -0.732253  5.298915
H    -2.757671  -1.112935  5.515821
H    -0.387007  -1.786410  5.383431
H    -0.587974  -0.283916  6.299795
H    -0.041046  -0.213897  4.595276
Cd    2.829007  1.495296  1.228859
