35
Energy: -172332.986236 eV PBE+vdW (tier 2 basis)
C    0.028347  1.386589  0.263025
C    0.159847  0.728217  1.595123
O    1.121045  -0.112403  1.727784
H    0.941218  1.962302  0.051299
H    -0.848141  2.038446  0.181185
H    -0.029478  0.604801  -0.509410
N    -0.727562  1.043510  2.551801
C    -1.096856  0.421634  3.857919
C    -0.104677  0.742314  4.999584
O    1.036347  0.158381  5.135185
H    -1.384391  1.764348  2.258131
H    -2.023656  0.952444  4.115281
C    -1.488481  -1.075864  3.749958
C    -2.261240  -1.561806  4.998283
C    -3.270949  -2.714511  4.783849
C    -2.661139  -4.105895  4.608945
N    -3.746544  -5.175942  4.601898
H    -0.610076  -1.709142  3.551892
H    -2.125851  -1.152241  2.856480
H    -2.861058  -0.723687  5.384748
H    -1.562612  -1.823083  5.807570
H    -3.921342  -2.478460  3.926562
H    -3.922304  -2.727535  5.671764
H    -1.989392  -4.368329  5.436225
H    -2.117071  -4.225618  3.663895
H    -4.423922  -5.036276  3.836797
H    -4.282427  -5.181001  5.483659
H    -3.347141  -6.120067  4.485659
N    -0.490446  1.610943  5.911893
C    0.284425  2.046604  7.080722
H    -1.421093  2.016182  5.816691
H    -0.184899  1.657203  7.993655
H    0.274547  3.142559  7.117386
H    1.308751  1.677346  7.006025
Cd    2.169678  -0.511542  3.495463
