35
Energy: -172333.139057 eV PBE+vdW (tier 2 basis)
C    0.400601  -0.509699  -0.009251
C    -0.076060  0.165415  1.233765
O    0.140480  -0.447583  2.337123
H    0.131575  0.022923  -0.927751
H    -0.019809  -1.525696  -0.041382
H    1.492603  -0.629324  0.041624
N    -0.701106  1.349981  1.112372
C    -1.485154  2.185812  2.064929
C    -0.593029  2.969462  3.057989
O    -0.060681  2.436000  4.101317
H    -0.715545  1.694444  0.155070
H    -1.944511  2.942157  1.413503
C    -2.632669  1.431316  2.778607
C    -3.774505  0.923192  1.858535
C    -5.027241  1.827511  1.830527
C    -6.146276  1.178357  1.009487
N    -7.447532  1.966045  1.070476
H    -3.034836  2.104505  3.550443
H    -2.229181  0.566307  3.325357
H    -4.073885  -0.070950  2.217956
H    -3.399921  0.762768  0.835722
H    -5.375281  1.985123  2.863961
H    -4.786274  2.819608  1.415980
H    -6.389319  0.174123  1.379079
H    -5.891219  1.098568  -0.054508
H    -8.183260  1.504656  0.512312
H    -7.344945  2.922581  0.700552
H    -7.806688  2.045148  2.033767
N    -0.431234  4.259948  2.847441
C    0.348956  5.184531  3.681537
H    -0.900726  4.671593  2.042350
H    -0.328918  5.915981  4.139578
H    1.066780  5.713698  3.043209
H    0.872717  4.628290  4.460797
Cd    0.404096  0.390211  4.248524
