35
Energy: -172332.115644 eV PBE+vdW (tier 2 basis)
C    0.163373  0.187907  0.241231
C    -0.124170  0.182870  1.702019
O    0.803858  -0.033812  2.581297
H    0.671906  -0.746672  -0.033250
H    0.842744  1.023040  0.008101
H    -0.725491  0.297394  -0.385307
N    -1.336089  0.359641  2.212249
C    -2.649169  0.461411  1.563830
C    -3.450718  1.398443  2.526345
O    -3.339568  1.217829  3.736454
H    -1.403537  0.364524  3.240133
H    -2.536902  0.915350  0.570679
C    -3.336481  -0.929475  1.471955
C    -4.769061  -0.915313  0.909583
C    -5.369681  -2.336289  0.840921
C    -6.804779  -2.313620  0.313413
N    -7.413954  -3.708674  0.264986
H    -3.333986  -1.367905  2.481493
H    -2.692386  -1.563419  0.842848
H    -4.775443  -0.465802  -0.096274
H    -5.413793  -0.286838  1.543040
H    -5.352052  -2.786765  1.846282
H    -4.745268  -2.970573  0.191611
H    -6.865766  -1.923153  -0.710154
H    -7.470698  -1.718466  0.950791
H    -8.382094  -3.679636  -0.090095
H    -7.445935  -4.147135  1.197466
H    -6.883173  -4.340005  -0.353237
N    -4.234287  2.352048  1.971583
C    -4.967952  3.327465  2.764812
H    -4.197241  2.492450  0.963826
H    -5.892390  3.592927  2.237383
H    -4.377101  4.250043  2.895754
H    -5.175391  2.907501  3.754689
Cd    2.909157  0.279717  2.606720
