35
Energy: -172331.887086 eV PBE+vdW (tier 2 basis)
C    0.158757  -0.997598  0.605121
C    -1.030263  -1.338326  1.433444
O    -1.573578  -2.502881  1.429341
H    0.815971  -1.872043  0.509802
H    0.751395  -0.165785  0.999616
H    -0.172357  -0.727964  -0.411281
N    -1.665178  -0.427027  2.197350
C    -1.558509  1.038556  2.113784
C    -1.535765  1.657166  3.559623
O    -2.248485  2.624651  3.829223
H    -2.483674  -0.799100  2.687263
H    -0.586107  1.273125  1.657763
C    -2.658022  1.703023  1.260730
C    -4.113153  1.470298  1.710757
C    -5.093590  2.579889  1.255275
C    -5.530633  3.577213  2.324330
N    -4.408538  4.483032  2.819621
H    -2.525125  1.367648  0.221653
H    -2.406570  2.772878  1.251301
H    -4.176063  1.368505  2.806524
H    -4.463500  0.509972  1.306675
H    -6.029325  2.115589  0.913157
H    -4.704231  3.110487  0.372028
H    -5.924828  3.073620  3.216111
H    -6.310744  4.244179  1.938252
H    -4.046689  5.078953  2.062113
H    -3.618055  3.936681  3.211680
H    -4.751557  5.114822  3.557939
N    -0.680104  1.110090  4.451012
C    -0.450987  1.658786  5.780518
H    -0.033999  0.395263  4.122915
H    -1.376054  2.113716  6.151034
H    0.332461  2.435377  5.756554
H    -0.110976  0.852719  6.441273
Cd    -0.838611  -4.491438  0.986814
