35
Energy: -172331.284064 eV PBE+vdW (tier 2 basis)
C    -0.971809  0.241634  -0.757177
C    -0.950436  -0.322114  0.628854
O    -0.612085  -1.469557  0.901968
H    -1.421202  -0.486779  -1.443555
H    -1.495365  1.201386  -0.827656
H    0.072048  0.374003  -1.082005
N    -1.325659  0.514765  1.690608
C    -1.371293  -0.003920  3.020389
C    -2.707451  -0.816997  3.311287
O    -3.789195  -0.152926  3.176694
H    -1.803168  1.389586  1.475466
H    -0.603433  -0.801005  3.035527
C    -1.151271  1.042568  4.131888
C    0.328773  1.435574  4.372108
C    0.934625  2.439649  3.377831
C    2.412576  2.779004  3.595621
N    2.675995  3.684867  4.795880
H    -1.536135  0.617117  5.069668
H    -1.766753  1.933618  3.934381
H    0.948942  0.525647  4.407464
H    0.353410  1.849862  5.393016
H    0.338721  3.366835  3.348048
H    0.893754  2.032268  2.355903
H    2.816279  3.320946  2.732437
H    3.027468  1.883914  3.754149
H    3.681335  3.908114  4.865671
H    2.404196  3.253678  5.690314
H    2.175060  4.582323  4.716135
N    -2.618821  -2.076528  3.673073
C    -1.414952  -2.917443  3.855665
H    -3.504954  -2.551417  3.858330
H    -1.756350  -3.915666  4.144665
H    -0.787630  -2.522771  4.662981
H    -0.855882  -2.993120  2.916376
Cd    -5.936309  -0.605632  3.347509
