35
Energy: -172332.848238 eV PBE+vdW (tier 2 basis)
C    -1.781491  2.014526  0.232746
C    -1.265696  1.523341  1.545582
O    -0.268195  2.164199  2.039883
H    -2.185350  3.029798  0.362959
H    -2.548897  1.368367  -0.206951
H    -0.938186  2.105717  -0.466999
N    -1.870669  0.464257  2.102387
C    -1.577665  -0.483040  3.223920
C    -1.670436  0.095831  4.651726
O    -0.816685  0.912471  5.171481
H    -2.664597  0.147783  1.548004
H    -2.441379  -1.157204  3.154850
C    -0.374773  -1.441269  2.984856
C    1.086543  -0.958292  2.949007
C    2.009203  -2.165147  2.640760
C    3.492012  -1.797843  2.566250
N    4.352611  -3.014451  2.250492
H    -0.601628  -1.945853  2.033051
H    -0.472206  -2.220431  3.757800
H    1.376754  -0.525580  3.920932
H    1.225464  -0.188285  2.174591
H    1.694845  -2.612104  1.683951
H    1.859851  -2.934279  3.415288
H    3.872991  -1.401047  3.515664
H    3.702561  -1.068600  1.773885
H    5.351908  -2.761550  2.198752
H    4.102630  -3.441583  1.345517
H    4.264402  -3.748830  2.969429
N    -2.639141  -0.370890  5.414968
C    -2.882165  -0.021189  6.819545
H    -3.268576  -1.066934  5.016025
H    -3.953948  0.169768  6.948847
H    -2.301460  0.862757  7.089274
H    -2.592347  -0.864642  7.460590
Cd    0.139153  2.414691  4.074758
