35
Energy: -172331.628118 eV PBE+vdW (tier 2 basis)
C    0.855890  -0.050616  0.208891
C    0.553030  0.079073  1.678471
O    1.430490  0.101106  2.543644
H    1.847412  0.366852  0.007231
H    0.103616  0.451374  -0.413505
H    0.871733  -1.116941  -0.066519
N    -0.800290  0.126490  2.001082
C    -1.451150  0.027330  3.291547
C    -2.260333  1.367626  3.605953
O    -3.472818  1.114343  3.932631
H    -1.410081  -0.054440  1.203715
H    -2.250629  -0.719296  3.195278
C    -0.594570  -0.337626  4.528706
C    -0.055148  -1.783708  4.449494
C    0.964943  -2.129021  5.553955
C    2.312515  -1.411297  5.560498
N    3.149526  -1.676883  4.316091
H    -1.247861  -0.255030  5.409763
H    0.209589  0.394008  4.658359
H    0.376320  -1.987777  3.459663
H    -0.898087  -2.481855  4.549514
H    1.134576  -3.217760  5.522249
H    0.523726  -1.942237  6.544837
H    2.912152  -1.754092  6.412357
H    2.227961  -0.320063  5.630794
H    3.238717  -2.685530  4.125038
H    4.104853  -1.308284  4.433090
H    2.738529  -1.214473  3.485938
N    -1.728302  2.565217  3.539420
C    -0.362079  2.980507  3.180033
H    -2.362126  3.341638  3.742341
H    -0.110915  3.860441  3.782092
H    -0.321622  3.251935  2.117761
H    0.358850  2.190250  3.398613
Cd    -5.280698  2.182290  4.511592
