35
Energy: -172331.397871 eV PBE+vdW (tier 2 basis)
C    0.168244  0.500363  0.407145
C    -0.515672  0.749577  1.703259
O    -0.281695  1.820577  2.383211
H    1.256825  0.538238  0.573769
H    -0.085602  1.306746  -0.296537
H    -0.067201  -0.457199  -0.055283
N    -1.435700  -0.045240  2.276680
C    -2.331196  -1.139290  1.829562
C    -2.156557  -2.412543  2.758811
O    -3.225689  -2.864195  3.174088
H    -1.724480  0.327368  3.186384
H    -3.328142  -0.784261  2.119656
C    -2.370615  -1.536972  0.344487
C    -3.409114  -2.625365  -0.018936
C    -4.899790  -2.275753  0.168231
C    -5.761679  -3.415753  -0.381516
N    -7.252631  -3.144415  -0.237261
H    -1.397893  -1.925447  0.018113
H    -2.574740  -0.625434  -0.240220
H    -3.179025  -3.550998  0.529142
H    -3.227849  -2.856773  -1.078749
H    -5.135838  -1.339589  -0.363065
H    -5.132806  -2.125225  1.234083
H    -5.576237  -4.360071  0.145639
H    -5.589132  -3.580270  -1.452603
H    -7.807376  -3.927315  -0.616905
H    -7.542071  -2.295371  -0.744901
H    -7.531278  -3.026491  0.747975
N    -0.965537  -2.964512  3.019369
C    0.362572  -2.612912  2.524911
H    -1.025675  -3.781375  3.629840
H    1.004368  -3.493285  2.634178
H    0.805671  -1.795023  3.108730
H    0.342237  -2.355446  1.460613
Cd    1.378515  3.197935  2.507205
