35
Energy: -172331.892448 eV PBE+vdW (tier 2 basis)
C    -0.592525  1.353640  0.079963
C    -0.366075  1.006553  1.519634
O    0.757478  0.893833  2.020758
H    -0.551690  2.451852  -0.012673
H    -1.557366  1.012556  -0.311349
H    0.230852  0.952317  -0.521118
N    -1.498597  0.821227  2.306558
C    -1.518667  0.320125  3.661455
C    -0.904020  1.350713  4.689263
O    -1.707163  1.639683  5.643863
H    -2.401250  0.973943  1.859712
H    -2.575974  0.245526  3.946520
C    -0.849143  -1.072618  3.919087
C    -1.600454  -2.293053  3.344788
C    -1.344882  -2.608168  1.860813
C    -2.058239  -3.849868  1.315410
N    -1.443629  -5.171320  1.769321
H    -0.804288  -1.187108  5.011371
H    0.189829  -1.041030  3.562518
H    -2.682674  -2.196166  3.528917
H    -1.276736  -3.141841  3.970152
H    -0.263422  -2.678312  1.658705
H    -1.706056  -1.783798  1.227431
H    -2.012507  -3.873195  0.220333
H    -3.113692  -3.891081  1.613414
H    -0.455038  -5.250857  1.487728
H    -1.942359  -5.967192  1.341181
H    -1.489768  -5.305102  2.789042
N    0.319937  1.785608  4.517563
C    1.030656  2.725081  5.377843
H    0.770913  1.444662  3.635167
H    2.028771  2.891315  4.955064
H    1.181661  2.311576  6.388270
H    0.533529  3.709231  5.402613
Cd    -1.542005  2.956625  7.350275
