35
Energy: -172331.863986 eV PBE+vdW (tier 2 basis)
C    0.829029  0.820964  -0.749975
C    0.255035  0.907358  0.626961
O    0.773725  1.648833  1.550181
H    1.854913  0.425625  -0.693341
H    0.859546  1.824438  -1.203392
H    0.254635  0.169400  -1.417374
N    -0.816638  0.183727  0.924106
C    -1.424165  0.000023  2.249352
C    -1.455742  -1.538814  2.462912
O    -1.613466  -2.254370  1.470105
H    -1.114706  -0.515169  0.235355
H    -0.778574  0.491755  2.988353
C    -2.869874  0.573772  2.359349
C    -3.887805  0.034507  1.337167
C    -5.376602  0.189585  1.721809
C    -5.921919  1.615338  1.639572
N    -7.429308  1.633141  1.865418
H    -2.781039  1.669119  2.295885
H    -3.206479  0.353906  3.384713
H    -3.728071  -1.045378  1.194676
H    -3.714832  0.489724  0.349640
H    -5.540224  -0.215956  2.733190
H    -5.952179  -0.448500  1.033048
H    -5.763060  2.060616  0.649196
H    -5.497434  2.286244  2.396527
H    -7.810614  2.589656  1.807796
H    -7.684703  1.258354  2.791327
H    -7.925020  1.065275  1.161272
N    -1.358663  -2.018301  3.722528
C    -1.367785  -3.439123  4.033357
H    -1.131501  -1.370062  4.475275
H    -1.890720  -3.982024  3.238679
H    -1.846619  -3.586706  5.009668
H    -0.338518  -3.832477  4.101180
Cd    2.431156  3.014817  1.303658
