35
Energy: -172332.023229 eV PBE+vdW (tier 2 basis)
C    -0.191810  -0.599729  -0.137866
C    -0.175702  -0.105860  1.267833
O    0.909010  -0.110709  1.977983
H    -1.188656  -0.651675  -0.583452
H    0.258980  -1.600881  -0.178789
H    0.418328  0.071896  -0.763652
N    -1.255817  0.335666  1.900005
C    -2.644492  0.415525  1.441303
C    -3.225813  1.637556  2.218404
O    -2.789849  1.895326  3.338208
H    -1.123771  0.717814  2.847862
H    -2.648033  0.613693  0.361622
C    -3.501758  -0.855335  1.705486
C    -3.758603  -1.259266  3.168253
C    -4.558140  -2.578165  3.230304
C    -4.786672  -3.185437  4.614784
N    -5.919251  -2.529735  5.401418
H    -3.009608  -1.682964  1.169054
H    -4.459919  -0.699951  1.185470
H    -4.293619  -0.448331  3.688667
H    -2.804236  -1.390156  3.701699
H    -4.012671  -3.352270  2.669207
H    -5.521539  -2.475598  2.703731
H    -3.898571  -3.125648  5.256395
H    -5.073730  -4.240082  4.528496
H    -5.743947  -1.535002  5.597640
H    -6.816192  -2.596788  4.897717
H    -6.050354  -2.998327  6.311298
N    -4.211346  2.336945  1.605842
C    -4.767993  3.563766  2.152623
H    -4.460413  2.095318  0.647479
H    -4.257365  4.448148  1.733527
H    -4.634836  3.570575  3.239257
H    -5.827072  3.629183  1.870943
Cd    2.967771  0.040336  1.435743
