35
Energy: -172332.296986 eV PBE+vdW (tier 2 basis)
C    -3.437651  -0.593259  -1.773101
C    -3.539572  -1.656095  -0.742602
O    -4.523890  -2.476946  -0.839496
H    -3.728823  -1.042570  -2.735350
H    -2.437572  -0.165264  -1.854988
H    -4.182123  0.195566  -1.580535
N    -2.629034  -1.861688  0.245425
C    -2.079813  -0.933364  1.254015
C    -3.144054  -0.839838  2.387941
O    -4.389727  -1.085289  2.158476
H    -2.667693  -2.821663  0.596481
H    -1.206546  -1.456926  1.673341
C    -1.603792  0.451649  0.756659
C    -0.286077  0.393734  -0.042709
C    0.222924  1.791586  -0.456538
C    1.565322  1.700658  -1.187582
N    2.104838  3.072005  -1.570349
H    -1.451926  1.076296  1.648245
H    -2.402555  0.952084  0.192371
H    0.480536  -0.103045  0.572957
H    -0.406217  -0.237084  -0.937032
H    0.332788  2.421446  0.440855
H    -0.520478  2.284865  -1.103118
H    2.342147  1.235305  -0.567823
H    1.490288  1.134792  -2.124678
H    3.007267  2.989781  -2.064601
H    2.266608  3.668499  -0.745029
H    1.463727  3.581616  -2.196634
N    -2.802157  -0.482960  3.610043
C    -1.497818  -0.095228  4.154503
H    -3.585355  -0.450308  4.269431
H    -1.398664  -0.541937  5.150613
H    -1.438857  0.996757  4.256178
H    -0.681225  -0.457867  3.523996
Cd    -5.484832  -2.579944  1.077538
