35
Energy: -172332.003790 eV PBE+vdW (tier 2 basis)
C    0.348668  0.180747  0.563168
C    0.127821  0.794298  1.903349
O    1.121055  1.145395  2.662202
H    0.772539  0.938159  -0.116290
H    -0.558673  -0.211891  0.096730
H    1.073860  -0.639586  0.651334
N    -1.073074  0.994672  2.426305
C    -2.398736  0.695775  1.872739
C    -3.304039  1.806250  2.479530
O    -3.007427  2.268532  3.582537
H    -1.122149  1.492841  3.327720
H    -2.347726  0.787331  0.781532
C    -2.958093  -0.714682  2.221623
C    -3.404406  -0.979436  3.672680
C    -4.013722  -2.393522  3.798215
C    -4.887481  -2.671345  5.020807
N    -4.109814  -2.898435  6.315195
H    -2.197032  -1.448397  1.912226
H    -3.815846  -0.879375  1.551687
H    -4.161350  -0.235978  3.967324
H    -2.555705  -0.848694  4.362744
H    -3.236554  -3.169101  3.703563
H    -4.686916  -2.564977  2.943615
H    -5.469793  -3.588722  4.873352
H    -5.588481  -1.853621  5.230765
H    -4.753830  -3.114547  7.091925
H    -3.561997  -2.075071  6.598677
H    -3.461854  -3.695488  6.231996
N    -4.410182  2.220039  1.810062
C    -4.837991  1.944972  0.451139
H    -4.903478  2.972303  2.300553
H    -4.539730  2.763450  -0.226623
H    -5.936283  1.899690  0.432115
H    -4.432717  1.000164  0.079145
Cd    3.110300  1.754004  2.203953
