35
Energy: -172331.973225 eV PBE+vdW (tier 2 basis)
C    -0.737348  -0.370167  0.932875
C    0.134533  0.816888  0.721104
O    1.429101  0.730662  0.745018
H    -0.474903  -0.850244  1.886054
H    -0.559197  -1.101277  0.128846
H    -1.805037  -0.136466  0.940344
N    -0.326703  2.046363  0.535113
C    -1.682440  2.605562  0.642809
C    -1.629487  3.807894  -0.357852
O    -0.608566  4.494909  -0.357526
H    0.379184  2.780025  0.370122
H    -2.416743  1.848962  0.345864
C    -1.923181  3.142218  2.086174
C    -3.216518  3.942704  2.364544
C    -4.457285  3.098683  2.706282
C    -5.733082  3.888970  3.011099
N    -5.714548  4.590369  4.366638
H    -1.064448  3.788054  2.317614
H    -1.860127  2.279978  2.767925
H    -3.440863  4.621521  1.526991
H    -2.971353  4.603858  3.210104
H    -4.238533  2.415230  3.543296
H    -4.726488  2.442083  1.864486
H    -6.605671  3.225813  3.040832
H    -5.926534  4.675642  2.270678
H    -6.606280  5.082251  4.533214
H    -4.966675  5.294168  4.441322
H    -5.591992  3.921316  5.141268
N    -2.676106  4.079534  -1.173019
C    -3.847434  3.272251  -1.473710
H    -2.489621  4.868782  -1.798211
H    -3.641131  2.545565  -2.276367
H    -4.642713  3.937535  -1.831044
H    -4.202045  2.737543  -0.586675
Cd    2.830418  -0.799430  0.287650
