35
Energy: -172333.364905 eV PBE+vdW (tier 2 basis)
C    0.161631  1.984785  1.216231
C    0.078162  1.436334  2.599975
O    0.891333  1.912547  3.466522
H    0.093314  3.081571  1.267416
H    -0.617546  1.601399  0.548676
H    1.152761  1.757238  0.796835
N    -0.843777  0.494786  2.868743
C    -1.285381  -0.024080  4.180788
C    -0.390942  -1.208480  4.635398
O    0.732999  -0.990232  5.226055
H    -1.377983  0.173434  2.063073
H    -1.111633  0.773796  4.922322
C    -2.800960  -0.327520  4.169070
C    -3.707458  0.918318  4.081817
C    -5.205050  0.548604  4.174429
C    -6.097702  1.791814  4.145616
N    -7.573470  1.435433  4.262775
H    -3.029366  -0.867032  5.100563
H    -3.037078  -1.014891  3.337736
H    -3.522208  1.464305  3.144128
H    -3.451313  1.607200  4.902100
H    -5.384660  -0.011341  5.106400
H    -5.473734  -0.119753  3.340596
H    -5.997651  2.354459  3.208952
H    -5.886376  2.471842  4.980466
H    -8.161689  2.283189  4.241132
H    -7.784628  0.944626  5.144718
H    -7.889395  0.829362  3.490709
N    -0.776196  -2.447998  4.430086
C    -0.023307  -3.658426  4.794093
H    -1.695436  -2.594566  4.017133
H    1.019070  -3.400017  4.990501
H    -0.087481  -4.370763  3.964232
H    -0.467147  -4.108497  5.691548
Cd    1.706295  0.881554  5.121170
