35
Energy: -172333.227972 eV PBE+vdW (tier 2 basis)
C    -1.772992  -0.041382  -2.583486
C    -1.318301  -0.506727  -1.242616
O    -0.122105  -0.212288  -0.895271
H    -1.639629  1.049817  -2.639005
H    -2.818206  -0.289399  -2.797737
H    -1.122185  -0.471100  -3.358419
N    -2.181684  -1.186115  -0.465333
C    -2.070132  -1.511975  0.971755
C    -1.350935  -2.870972  1.174435
O    -0.066452  -2.941920  1.116327
H    -3.076706  -1.399053  -0.902172
H    -1.396342  -0.761710  1.419849
C    -3.437127  -1.362814  1.681272
C    -3.930800  0.100399  1.735092
C    -5.059241  0.403841  2.749623
C    -6.459726  -0.040982  2.323023
N    -7.516047  0.477525  3.291404
H    -3.304952  -1.735674  2.708380
H    -4.186713  -2.012232  1.196840
H    -4.233573  0.446325  0.735093
H    -3.083116  0.738069  2.027051
H    -5.066668  1.495851  2.890841
H    -4.805957  -0.032568  3.728887
H    -6.583482  -1.130725  2.302514
H    -6.736291  0.359347  1.339260
H    -7.518839  1.508308  3.337146
H    -7.366339  0.131899  4.251481
H    -8.463993  0.185069  3.007516
N    -2.043306  -3.961591  1.416258
C    -1.490661  -5.310581  1.616707
H    -3.055786  -3.873630  1.473986
H    -0.408243  -5.249942  1.743903
H    -1.731146  -5.934464  0.746158
H    -1.948914  -5.748209  2.510649
Cd    1.126587  -1.372398  0.354588
