35
Energy: -172332.085885 eV PBE+vdW (tier 2 basis)
C    -1.035565  -1.653965  -0.270905
C    -1.026077  -1.673852  1.218731
O    -0.283706  -2.488120  1.894167
H    -1.021840  -2.680400  -0.662586
H    -0.130373  -1.132326  -0.619650
H    -1.905873  -1.147679  -0.699003
N    -1.761118  -0.836683  1.946737
C    -2.562588  0.301785  1.474855
C    -1.624457  1.402683  0.891036
O    -0.418933  1.382648  1.118700
H    -1.617888  -0.915901  2.954085
H    -3.222405  -0.064201  0.673988
C    -3.472746  0.847385  2.605323
C    -2.791533  1.591335  3.769233
C    -3.835783  2.123738  4.775611
C    -3.183796  2.897335  5.921913
N    -4.219606  3.434250  6.901222
H    -4.067204  -0.001099  2.979837
H    -4.199957  1.517929  2.123812
H    -2.194330  2.431118  3.381643
H    -2.083674  0.933982  4.299886
H    -4.419705  1.281440  5.180150
H    -4.546305  2.778845  4.246015
H    -2.623800  3.771762  5.567366
H    -2.505514  2.271252  6.515000
H    -3.770222  3.954671  7.670358
H    -4.774069  2.678127  7.329968
H    -4.882739  4.079271  6.446026
N    -2.219400  2.365514  0.133142
C    -1.475600  3.434482  -0.508926
H    -3.194483  2.244237  -0.138662
H    -2.111870  4.326597  -0.569271
H    -1.194245  3.158590  -1.540828
H    -0.556274  3.627022  0.054697
Cd    0.898882  -4.158390  1.281700
