35
Energy: -172332.186514 eV PBE+vdW (tier 2 basis)
C    0.009015  -0.177488  -0.297693
C    0.190392  -0.299800  1.170909
O    1.387659  -0.254545  1.630714
H    -0.019363  -1.183023  -0.753256
H    0.888940  0.324675  -0.720199
H    -0.903696  0.358025  -0.569715
N    -0.834773  -0.438730  2.055610
C    -1.956444  -1.408695  2.014848
C    -1.325626  -2.836320  2.149522
O    -0.190035  -3.010414  2.736650
H    -0.548874  -0.212611  3.009367
H    -2.466024  -1.263743  2.982714
C    -3.013669  -1.203885  0.910517
C    -4.051589  -0.072596  1.120175
C    -3.577206  1.382050  0.933929
C    -4.667870  2.382472  0.535337
N    -5.703248  2.671369  1.619103
H    -3.614494  -2.122318  0.854966
H    -2.539340  -1.118760  -0.075627
H    -4.520559  -0.206777  2.108718
H    -4.843511  -0.277148  0.382815
H    -2.864930  1.436251  0.096202
H    -3.027994  1.751554  1.813860
H    -5.238777  2.034272  -0.335028
H    -4.228740  3.355909  0.286592
H    -6.239394  1.835633  1.891848
H    -6.388581  3.366621  1.282690
H    -5.275244  3.063541  2.470568
N    -1.995232  -3.901485  1.770180
C    -1.541542  -5.291259  1.953292
H    -2.922067  -3.771982  1.371615
H    -2.231083  -5.947452  1.416202
H    -1.543741  -5.549090  3.019867
H    -0.530088  -5.412020  1.550639
Cd    1.647816  -1.948228  2.931916
