35
Energy: -172332.227603 eV PBE+vdW (tier 2 basis)
C    -0.182102  0.882985  0.331521
C    -0.030256  -0.315728  1.193670
O    1.062793  -0.982988  1.119603
H    -0.688032  1.705659  0.845795
H    0.808864  1.198796  -0.017171
H    -0.763102  0.619322  -0.569970
N    -0.982782  -0.740430  2.070150
C    -2.424333  -0.959411  1.824287
C    -2.531923  -2.153859  0.825202
O    -1.623186  -3.064367  0.761426
H    -0.603683  -1.330089  2.812388
H    -2.792120  -1.370131  2.778955
C    -3.244759  0.316773  1.501889
C    -4.683903  0.367793  2.083656
C    -4.741877  0.804594  3.561671
C    -6.132154  0.861284  4.203984
N    -6.940614  2.102452  3.834763
H    -3.277670  0.479627  0.415546
H    -2.685238  1.168006  1.911634
H    -5.194833  -0.603809  1.976610
H    -5.248194  1.072861  1.454915
H    -4.233091  1.774015  3.690834
H    -4.173617  0.099402  4.187971
H    -6.048446  0.890200  5.296711
H    -6.758403  0.001137  3.935385
H    -7.850717  2.098832  4.322274
H    -7.142912  2.168404  2.827508
H    -6.457363  2.969814  4.113291
N    -3.608401  -2.290009  0.080926
C    -3.861607  -3.412729  -0.838414
H    -4.343540  -1.593631  0.174455
H    -4.732955  -3.164658  -1.449752
H    -4.059930  -4.329220  -0.268523
H    -2.992206  -3.570102  -1.485576
Cd    0.507611  -3.057227  0.986807
