35
Energy: -172332.007093 eV PBE+vdW (tier 2 basis)
C    -0.619723  1.406064  0.736690
C    -0.066132  0.254301  1.500312
O    1.211303  0.054918  1.608119
H    -0.194126  1.411355  -0.276262
H    -1.709723  1.401258  0.656996
H    -0.324233  2.344753  1.231808
N    -0.816864  -0.665773  2.090661
C    -2.266697  -0.897117  2.052132
C    -2.552599  -1.530334  3.452059
O    -1.744175  -2.356327  3.875458
H    -0.319231  -1.395979  2.621306
H    -2.786534  0.058056  1.919344
C    -2.636049  -1.907944  0.928816
C    -4.115333  -2.331084  0.875981
C    -4.366216  -3.376498  -0.232926
C    -5.827856  -3.824962  -0.264451
N    -6.076364  -4.871998  -1.342152
H    -1.999963  -2.795819  1.065930
H    -2.344115  -1.446170  -0.027029
H    -4.754610  -1.451669  0.700518
H    -4.419240  -2.759510  1.843602
H    -3.715893  -4.249190  -0.061304
H    -4.086450  -2.952204  -1.210438
H    -6.513253  -2.997161  -0.485741
H    -6.138911  -4.288420  0.680247
H    -7.064656  -5.167610  -1.353144
H    -5.507931  -5.719287  -1.193965
H    -5.856087  -4.515785  -2.284119
N    -3.657231  -1.183211  4.156474
C    -4.610687  -0.111768  3.922706
H    -3.695713  -1.640586  5.071904
H    -5.566732  -0.393784  4.381357
H    -4.766066  0.062232  2.853736
H    -4.283163  0.826213  4.401531
Cd    2.907098  1.338019  1.588079
