35
Energy: -172332.151556 eV PBE+vdW (tier 2 basis)
C    0.695891  0.526258  0.551045
C    0.051264  -0.699476  1.084250
O    0.738941  -1.781787  1.117450
H    0.498306  0.605842  -0.532584
H    0.349545  1.437106  1.046288
H    1.784337  0.424011  0.653979
N    -1.227471  -0.735657  1.550404
C    -2.453641  -0.233391  0.892238
C    -2.650664  -1.092409  -0.396285
O    -2.228722  -2.307959  -0.461807
H    -1.398956  -1.523881  2.176313
H    -3.262978  -0.564509  1.564236
C    -2.555471  1.307540  0.752543
C    -3.996956  1.876339  0.856774
C    -4.523901  2.090549  2.297250
C    -4.201306  3.436008  2.958332
N    -5.187222  4.538924  2.581780
H    -2.088076  1.634233  -0.187198
H    -1.942702  1.740327  1.555246
H    -4.711538  1.220708  0.336121
H    -4.021880  2.821568  0.293692
H    -4.121151  1.317979  2.969650
H    -5.612351  1.928243  2.323448
H    -3.205848  3.818804  2.699567
H    -4.261765  3.360984  4.050338
H    -4.943276  5.425907  3.050232
H    -6.147859  4.301563  2.873574
H    -5.211680  4.730344  1.570074
N    -3.327771  -0.609521  -1.415601
C    -3.643125  -1.355543  -2.646090
H    -3.706398  0.330931  -1.335463
H    -4.088792  -0.660743  -3.362391
H    -4.352314  -2.163245  -2.425582
H    -2.727963  -1.782770  -3.070625
Cd    -0.506438  -3.332472  0.294519
