35
Energy: -172332.550655 eV PBE+vdW (tier 2 basis)
C    -1.933934  1.643840  0.846983
C    -1.162661  0.931390  1.890403
O    -0.602646  1.610151  2.824439
H    -2.326613  0.981322  0.070218
H    -1.243017  2.363924  0.372355
H    -2.730521  2.255197  1.294045
N    -0.980375  -0.417824  1.872728
C    -2.018516  -1.446106  1.748378
C    -2.716427  -1.546175  3.141016
O    -2.117726  -1.198158  4.227723
H    -0.159121  -0.729652  2.396696
H    -2.760420  -1.104718  1.011748
C    -1.364057  -2.771545  1.263454
C    -2.337477  -3.904495  0.892127
C    -1.672863  -5.206646  0.379984
C    -1.171791  -5.144504  -1.064936
N    -0.711867  -6.515057  -1.545413
H    -0.664185  -3.124621  2.038542
H    -0.755767  -2.484186  0.393051
H    -3.064640  -3.550131  0.143254
H    -2.917755  -4.198403  1.778373
H    -2.430161  -6.001990  0.455735
H    -0.850841  -5.495283  1.054019
H    -0.311232  -4.477884  -1.198930
H    -1.962456  -4.835111  -1.760325
H    -0.377728  -6.477930  -2.520917
H    -1.475929  -7.207519  -1.513850
H    0.060837  -6.888323  -0.973633
N    -3.937474  -2.037346  3.193376
C    -4.754790  -2.224828  4.400090
H    -4.358931  -2.337396  2.314866
H    -4.301555  -1.694074  5.239398
H    -4.818779  -3.294933  4.638138
H    -5.762798  -1.841553  4.203813
Cd    -0.907182  0.524875  4.655899
