35
Energy: -172331.509561 eV PBE+vdW (tier 2 basis)
C    -0.275698  0.011478  -0.581326
C    -0.386199  -0.187799  0.896926
O    0.162749  -1.099064  1.519726
H    -0.860893  0.858762  -0.954463
H    -0.615135  -0.910224  -1.076175
H    0.778997  0.147878  -0.858362
N    -1.145462  0.745010  1.609616
C    -1.326601  0.637461  3.026629
C    -2.770319  1.044497  3.446372
O    -3.366265  0.063003  4.024414
H    -1.424777  1.584874  1.106226
H    -1.245466  -0.440082  3.247696
C    -0.272451  1.354802  3.956615
C    1.139687  0.768030  3.828280
C    1.388479  -0.564317  4.558772
C    2.717829  -1.231881  4.192935
N    2.595991  -2.137037  2.969839
H    -0.636618  1.264219  4.991178
H    -0.247835  2.424900  3.715943
H    1.816667  1.528714  4.254336
H    1.429636  0.710161  2.768492
H    0.566427  -1.281464  4.401554
H    1.411014  -0.380199  5.642082
H    3.089636  -1.870368  5.001809
H    3.497571  -0.495807  3.961355
H    3.521069  -2.352448  2.570504
H    2.003354  -1.722237  2.228461
H    2.162947  -3.036795  3.220504
N    -3.294908  2.233952  3.254913
C    -2.736339  3.438829  2.614734
H    -4.256576  2.352922  3.580067
H    -1.658975  3.346050  2.465689
H    -2.917206  4.297060  3.272471
H    -3.243030  3.613306  1.656907
Cd    -5.310850  -0.321963  4.969531
