35
Energy: -172331.860273 eV PBE+vdW (tier 2 basis)
C    0.389332  0.192169  0.747369
C    -0.240619  0.059008  2.088275
O    0.422780  0.329694  3.164013
H    -0.255920  -0.078382  -0.087841
H    1.278369  -0.451883  0.701814
H    0.706752  1.242414  0.621192
N    -1.502113  -0.333453  2.324496
C    -2.476625  -1.081755  1.503737
C    -1.871066  -2.468979  1.108026
O    -0.793410  -2.496780  0.516625
H    -1.730214  -0.307929  3.320683
H    -3.314619  -1.246539  2.195647
C    -3.008911  -0.321671  0.260158
C    -4.262941  -0.977953  -0.355239
C    -4.710897  -0.316198  -1.680955
C    -5.657540  0.885021  -1.593394
N    -7.129450  0.476101  -1.593978
H    -2.227703  -0.275829  -0.509827
H    -3.218544  0.711955  0.573174
H    -5.083910  -0.984870  0.381640
H    -4.047511  -2.033435  -0.573720
H    -5.158765  -1.080299  -2.335362
H    -3.823886  0.022559  -2.235349
H    -5.546495  1.541651  -2.463988
H    -5.511886  1.490887  -0.690414
H    -7.745631  1.301322  -1.532561
H    -7.371307  -0.143963  -0.808598
H    -7.377374  -0.019775  -2.463754
N    -2.582020  -3.571724  1.427381
C    -2.118271  -4.923197  1.139950
H    -3.401923  -3.471029  2.022251
H    -2.988180  -5.566386  0.961260
H    -1.558496  -5.335427  1.995548
H    -1.454683  -4.900785  0.268927
Cd    2.196258  1.499790  3.436647
