35
Energy: -172331.510683 eV PBE+vdW (tier 2 basis)
C    0.819734  -1.404007  2.208557
C    -0.550500  -1.427016  2.787996
O    -0.969053  -2.453999  3.452674
H    1.066425  -0.503011  1.647958
H    0.939162  -2.259710  1.530083
H    1.540635  -1.504483  3.040059
N    -1.455741  -0.438327  2.711661
C    -1.603467  0.691447  1.771619
C    -1.703840  0.129071  0.315617
O    -0.846031  -0.674080  -0.050991
H    -2.306296  -0.659490  3.233472
H    -2.568686  1.126823  2.058209
C    -0.496824  1.775990  1.877034
C    -0.821461  3.100373  1.145834
C    -1.743471  4.088981  1.898698
C    -1.047004  5.122773  2.788308
N    -0.481112  6.298690  1.996060
H    0.436540  1.380986  1.459205
H    -0.314721  1.956705  2.947044
H    -1.249529  2.884486  0.157157
H    0.144472  3.577185  0.917997
H    -2.437367  3.548492  2.560329
H    -2.397262  4.615275  1.185726
H    -0.203714  4.703665  3.351829
H    -1.748027  5.568574  3.503655
H    -0.015023  6.974945  2.620655
H    -1.225403  6.811877  1.499803
H    0.213571  6.008778  1.292918
N    -2.698318  0.535923  -0.506542
C    -3.923729  1.265135  -0.208233
H    -2.652393  0.087190  -1.425570
H    -4.262410  1.753730  -1.130289
H    -3.763689  2.034231  0.553287
H    -4.726112  0.584514  0.118632
Cd    0.147337  -4.040589  4.355994
