35
Energy: -172332.191186 eV PBE+vdW (tier 2 basis)
C    0.597372  -1.057693  1.964123
C    -0.579034  -1.396326  2.801636
O    -0.609742  -2.542723  3.376487
H    1.264599  -1.920986  1.888658
H    1.139924  -0.210499  2.407217
H    0.283259  -0.755761  0.953557
N    -1.627492  -0.551182  3.011501
C    -2.453635  0.187788  2.024094
C    -2.897804  -0.813308  0.926165
O    -3.082387  -2.061243  1.193387
H    -2.132831  -0.776923  3.869513
H    -3.397539  0.341375  2.575585
C    -2.036706  1.635620  1.650766
C    -0.747325  1.917742  0.860231
C    -0.620270  3.370232  0.333292
C    -0.340440  4.420503  1.412294
N    -0.050219  5.783104  0.795682
H    -2.013924  2.171405  2.611125
H    -2.902347  2.069967  1.121293
H    -0.679335  1.263316  -0.021831
H    0.132436  1.689486  1.477263
H    -1.528067  3.645119  -0.227632
H    0.207988  3.377085  -0.391904
H    -1.185385  4.577585  2.093634
H    0.545079  4.169505  2.010086
H    0.777476  5.758177  0.180334
H    0.135711  6.491058  1.523230
H    -0.839500  6.130860  0.230272
N    -3.199088  -0.378494  -0.278082
C    -3.776413  -1.197778  -1.357109
H    -3.096187  0.616968  -0.458140
H    -3.592751  -0.691867  -2.308675
H    -4.858017  -1.308432  -1.205830
H    -3.306648  -2.185184  -1.366336
Cd    -2.485668  -3.397787  2.756009
