35
Energy: -172331.747902 eV PBE+vdW (tier 2 basis)
C    0.872642  0.457217  0.433006
C    0.450689  0.554444  1.861382
O    1.244910  0.985291  2.795890
H    1.732113  -0.226763  0.350398
H    1.171269  1.451035  0.064169
H    0.083824  0.077047  -0.225040
N    -0.769116  0.188938  2.218930
C    -1.289344  0.142782  3.598424
C    -2.256899  -1.052666  3.631308
O    -2.980656  -1.250190  2.638685
H    -1.385976  -0.220159  1.511890
H    -0.423485  -0.029127  4.252714
C    -2.005528  1.449151  4.072722
C    -3.523340  1.650624  3.862247
C    -4.056649  2.271315  2.553783
C    -4.284947  1.412332  1.313541
N    -5.287267  0.290605  1.544389
H    -1.444712  2.302087  3.662360
H    -1.832506  1.483236  5.157722
H    -3.814367  2.359463  4.650610
H    -4.074420  0.734071  4.128956
H    -3.397869  3.094258  2.236250
H    -5.010843  2.768459  2.790957
H    -3.381466  0.918562  0.939225
H    -4.693932  2.029100  0.504307
H    -4.852821  -0.463859  2.102641
H    -6.130642  0.627878  2.031511
H    -5.598233  -0.123283  0.653585
N    -2.301954  -1.797826  4.751957
C    -3.171770  -2.943254  4.955172
H    -1.670273  -1.555229  5.515395
H    -2.567101  -3.811319  5.261466
H    -3.716204  -3.167019  4.035228
H    -3.875848  -2.737696  5.779457
Cd    3.263999  1.650170  2.569564
