35
Energy: -172332.023331 eV PBE+vdW (tier 2 basis)
C    1.380116  1.001531  1.133429
C    0.532566  -0.194858  1.398810
O    1.025058  -1.395411  1.381386
H    1.948697  0.849088  0.205823
H    2.101770  1.123284  1.957646
H    0.819207  1.935516  1.044069
N    -0.770374  -0.130294  1.635151
C    -1.664119  1.032426  1.664908
C    -2.765117  0.623433  2.685343
O    -3.065173  -0.568239  2.777875
H    -1.252393  -1.010249  1.871443
H    -1.099840  1.899787  2.026521
C    -2.307670  1.397220  0.296199
C    -3.249601  0.365004  -0.350311
C    -3.767755  0.880054  -1.709575
C    -4.597007  -0.094041  -2.547052
N    -6.049136  -0.225133  -2.093162
H    -1.478731  1.628749  -0.391881
H    -2.841671  2.348617  0.443966
H    -4.086700  0.147025  0.332520
H    -2.720809  -0.588709  -0.503168
H    -2.907690  1.137369  -2.346608
H    -4.318335  1.827099  -1.583887
H    -4.186439  -1.111588  -2.543484
H    -4.653560  0.246426  -3.587710
H    -6.568090  -0.865624  -2.713752
H    -6.537347  0.682260  -2.123242
H    -6.136069  -0.596123  -1.137296
N    -3.388774  1.577619  3.420860
C    -3.063488  2.983012  3.591308
H    -4.062652  1.181999  4.083046
H    -3.992687  3.531900  3.795528
H    -2.589709  3.402406  2.698994
H    -2.402156  3.132967  4.461894
Cd    2.979725  -2.143335  1.779341
