35
Energy: -172331.592473 eV PBE+vdW (tier 2 basis)
C    0.424240  -0.237065  -0.128067
C    0.206168  -0.080840  1.342755
O    1.092708  0.207236  2.151060
H    -0.405255  -0.744960  -0.633299
H    1.356142  -0.793530  -0.289503
H    0.561234  0.755706  -0.584069
N    -1.096957  -0.238236  1.815490
C    -1.416172  -0.061695  3.203840
C    -2.458881  -1.145626  3.631743
O    -1.933276  -2.138922  4.235799
H    -1.840147  -0.271824  1.117856
H    -0.491506  -0.289099  3.754770
C    -1.905571  1.373233  3.611705
C    -0.870004  2.503100  3.426029
C    0.070286  2.845208  4.597993
C    1.357573  2.054880  4.833915
N    2.388649  2.232036  3.729895
H    -2.245541  1.333843  4.657197
H    -2.785362  1.619937  2.995910
H    -1.486344  3.404454  3.266604
H    -0.327003  2.392326  2.476196
H    -0.490025  2.798133  5.544396
H    0.341114  3.910032  4.502849
H    1.205814  0.972818  4.922100
H    1.834267  2.405807  5.756988
H    2.116031  1.691300  2.888425
H    2.511459  3.222674  3.474740
H    3.310841  1.883080  4.029257
N    -3.737427  -0.976944  3.363911
C    -4.832596  -1.896866  3.689472
H    -4.002956  -0.095052  2.927318
H    -4.922023  -2.033218  4.777724
H    -4.713010  -2.854295  3.161359
H    -5.771232  -1.451683  3.341403
Cd    -2.638026  -4.043081  5.055594
