35
Energy: -172331.854037 eV PBE+vdW (tier 2 basis)
C    0.182881  -0.271527  -0.143903
C    0.164367  -0.419578  1.338666
O    1.132045  -0.760308  2.021550
H    -0.533745  0.477395  -0.504825
H    -0.070363  -1.238339  -0.609050
H    1.197588  -0.012980  -0.466358
N    -1.049196  -0.176007  2.003655
C    -1.154552  -0.167090  3.428085
C    -1.200763  -1.679058  4.006513
O    -2.315350  -2.072031  4.478939
H    -1.896456  -0.058891  1.445960
H    -0.172726  0.164897  3.814737
C    -2.312079  0.698100  3.937935
C    -2.201763  2.210053  3.626551
C    -1.297394  3.036887  4.566064
C    -1.444690  4.528367  4.250709
N    -0.649244  5.412614  5.201399
H    -2.407105  0.542600  5.022173
H    -3.250054  0.325859  3.500465
H    -3.224406  2.608965  3.691000
H    -1.891218  2.363603  2.581621
H    -0.241345  2.738009  4.467375
H    -1.592548  2.850379  5.611373
H    -2.487297  4.859416  4.338286
H    -1.091268  4.776505  3.242037
H    -0.775152  6.410082  4.968049
H    0.362096  5.218463  5.160926
H    -0.947841  5.292629  6.180845
N    -0.067890  -2.332121  3.937567
C    0.176636  -3.716249  4.348323
H    0.690070  -1.824668  3.442417
H    -0.430220  -4.426007  3.764566
H    0.022315  -3.842030  5.429496
H    1.227208  -3.947699  4.140988
Cd    -3.058457  -3.972945  5.228603
