35
Energy: -172331.994192 eV PBE+vdW (tier 2 basis)
C    -0.493260  0.394897  -0.233817
C    -0.374901  0.368990  1.259816
O    0.711191  0.435175  1.852501
H    0.474043  0.143279  -0.678620
H    -0.748483  1.423753  -0.539807
H    -1.274864  -0.274035  -0.613643
N    -1.558291  0.283180  1.974693
C    -1.727165  0.071683  3.397486
C    -1.139828  1.221347  4.284811
O    -2.000151  1.649015  5.137010
H    -2.413957  0.241738  1.421479
H    -2.809025  0.158951  3.567230
C    -1.377187  -1.358549  3.957152
C    0.022281  -1.951150  3.755716
C    0.062098  -3.417497  4.255003
C    1.422043  -4.066577  3.993766
N    1.444499  -5.525526  4.431482
H    -2.123534  -2.013688  3.482306
H    -1.637649  -1.330421  5.026699
H    0.783751  -1.361041  4.287085
H    0.297296  -1.936303  2.692512
H    -0.724594  -3.993201  3.741349
H    -0.167821  -3.450664  5.331761
H    2.233328  -3.574109  4.544067
H    1.681185  -4.069766  2.927592
H    2.365932  -5.953547  4.251563
H    0.744830  -6.090015  3.926364
H    1.253035  -5.630890  5.439051
N    0.090752  1.641512  4.128122
C    0.729009  2.723572  4.867250
H    0.586638  1.189729  3.316154
H    0.845903  2.471176  5.932006
H    0.191298  3.678923  4.730992
H    1.733492  2.878919  4.456618
Cd    -2.022245  3.295366  6.532163
