35
Energy: -172331.943712 eV PBE+vdW (tier 2 basis)
C    0.354339  -0.821374  0.248354
C    -0.070182  0.264125  1.177455
O    0.730159  1.233492  1.500055
H    0.466132  -0.404356  -0.766304
H    -0.346038  -1.658281  0.185182
H    1.330625  -1.213460  0.564639
N    -1.263147  0.301878  1.757049
C    -2.373839  -0.649800  1.652137
C    -3.645402  0.216903  1.878437
O    -3.582083  1.186678  2.633458
H    -1.484380  1.126002  2.332899
H    -2.370236  -1.064520  0.635850
C    -2.342928  -1.843403  2.655685
C    -2.810146  -1.653311  4.112729
C    -1.930777  -0.779605  5.027178
C    -2.031416  -1.092684  6.521729
N    -3.388832  -0.767643  7.140196
H    -1.320459  -2.253550  2.637515
H    -2.975721  -2.624081  2.208998
H    -2.850473  -2.674005  4.525912
H    -3.850605  -1.290159  4.116122
H    -2.115663  0.292441  4.855057
H    -0.868080  -0.947335  4.791103
H    -1.302118  -0.509498  7.096260
H    -1.858313  -2.156584  6.728698
H    -3.383372  -0.970979  8.151896
H    -4.151569  -1.323375  6.728691
H    -3.632175  0.227946  7.033785
N    -4.773543  -0.178695  1.240661
C    -6.015079  0.574029  1.272409
H    -4.719165  -0.962377  0.590640
H    -6.118183  1.196125  0.365824
H    -6.022848  1.230428  2.147768
H    -6.858542  -0.130064  1.282368
Cd    2.372448  2.098945  0.446606
