35
Energy: -172331.823844 eV PBE+vdW (tier 2 basis)
C    0.075752  0.100862  0.129936
C    -0.163604  -0.059249  1.587941
O    0.763126  0.135234  2.463231
H    0.291630  1.157468  -0.089744
H    0.971311  -0.475823  -0.149002
H    -0.754061  -0.239832  -0.494583
N    -1.350360  -0.381611  2.127146
C    -2.725300  -0.353337  1.563628
C    -2.881144  -1.580763  0.588923
O    -2.754631  -1.421149  -0.619409
H    -1.299376  -0.513006  3.140589
H    -3.367632  -0.522557  2.439338
C    -3.096693  0.981578  0.892036
C    -4.577975  1.183939  0.501329
C    -5.567610  1.364381  1.672468
C    -6.766113  2.272487  1.391737
N    -7.758002  1.711545  0.375553
H    -2.502787  1.090518  -0.024012
H    -2.793106  1.787044  1.577860
H    -4.896828  0.373925  -0.172284
H    -4.580706  2.098215  -0.112688
H    -5.059044  1.856980  2.516472
H    -5.919243  0.397196  2.065725
H    -6.453903  3.246848  0.994737
H    -7.349006  2.445551  2.304216
H    -8.544909  2.365214  0.239809
H    -8.162362  0.816467  0.686738
H    -7.331721  1.559819  -0.549336
N    -3.134561  -2.777670  1.170752
C    -3.374334  -3.990178  0.399093
H    -3.335989  -2.805973  2.168329
H    -3.063574  -4.854678  0.997908
H    -2.816338  -3.932227  -0.542503
H    -4.443352  -4.108278  0.158515
Cd    2.914052  -0.068984  2.405573
