35
Energy: -172331.860948 eV PBE+vdW (tier 2 basis)
C    0.245087  0.076370  0.079861
C    0.352134  0.228276  1.555099
O    1.488070  0.322268  2.159325
H    1.119200  -0.463593  -0.303577
H    0.212313  1.079858  -0.377376
H    -0.654027  -0.469651  -0.230180
N    -0.707062  0.263566  2.380931
C    -2.132292  -0.070494  2.176337
C    -2.277951  -1.575661  1.758867
O    -2.189491  -1.859318  0.560949
H    -0.438504  0.418443  3.354801
H    -2.562882  0.045053  3.179646
C    -2.888062  0.865117  1.210580
C    -4.419308  0.726023  1.347161
C    -5.201644  1.807847  0.562196
C    -5.604041  1.482465  -0.878162
N    -6.939470  0.745825  -0.962804
H    -2.572921  0.677317  0.175829
H    -2.597551  1.894942  1.465710
H    -4.690416  0.822148  2.408610
H    -4.734808  -0.285920  1.043509
H    -4.605733  2.730775  0.518880
H    -6.099053  2.095862  1.131401
H    -4.875481  0.850449  -1.401308
H    -5.746843  2.396771  -1.465754
H    -7.190729  0.540354  -1.941976
H    -6.932399  -0.149840  -0.455385
H    -7.703941  1.315479  -0.569107
N    -2.489962  -2.505611  2.711502
C    -2.700013  -2.329999  4.145702
H    -2.599148  -3.451365  2.339036
H    -2.648373  -3.317012  4.616957
H    -3.692325  -1.906409  4.364444
H    -1.923383  -1.699375  4.595496
Cd    3.402303  1.028686  1.500234
