35
Energy: -172332.493746 eV PBE+vdW (tier 2 basis)
C    0.031936  1.293268  -0.056018
C    0.058316  0.335230  1.073228
O    1.190268  -0.167208  1.413588
H    -0.948833  1.734893  -0.237759
H    0.436745  0.828738  -0.966657
H    0.740922  2.102113  0.196273
N    -1.038861  -0.012502  1.799704
C    -2.358783  -0.484634  1.323676
C    -2.120773  -1.847175  0.608443
O    -1.144973  -2.620832  0.937689
H    -0.803116  -0.348893  2.734733
H    -2.880627  -0.761767  2.254978
C    -3.236276  0.584379  0.618278
C    -4.743675  0.488170  0.951161
C    -5.539902  1.701116  0.421023
C    -7.013239  1.627911  0.831674
N    -7.800325  2.842706  0.359911
H    -3.070055  0.579044  -0.469570
H    -2.877018  1.557056  0.981250
H    -4.860578  0.430643  2.044770
H    -5.188969  -0.438679  0.552952
H    -5.459619  1.752710  -0.676446
H    -5.092118  2.625524  0.819922
H    -7.135777  1.596627  1.921650
H    -7.522318  0.755308  0.403614
H    -8.789768  2.775056  0.645706
H    -7.788756  2.939845  -0.666482
H    -7.432008  3.720630  0.755961
N    -2.981106  -2.264828  -0.295032
C    -2.933502  -3.565080  -0.982362
H    -3.780109  -1.667901  -0.493814
H    -3.474239  -3.474528  -1.928672
H    -3.408275  -4.335719  -0.360818
H    -1.894228  -3.845487  -1.174408
Cd    0.843506  -2.273848  1.652893
