35
Energy: -172331.719415 eV PBE+vdW (tier 2 basis)
C    0.331781  1.365688  1.274751
C    0.058158  0.095890  1.996497
O    0.966542  -0.521531  2.674594
H    0.649267  2.133867  1.994368
H    -0.519588  1.745252  0.705340
H    1.164292  1.205984  0.571624
N    -1.137193  -0.508105  2.025309
C    -2.518407  -0.033967  1.750585
C    -2.735532  0.525900  0.309368
O    -3.332615  1.589687  0.129781
H    -1.106658  -1.400594  2.528185
H    -3.100463  -0.969668  1.785250
C    -3.143035  0.882518  2.822883
C    -2.579444  2.303991  2.990225
C    -3.606270  3.293887  3.597503
C    -4.254592  4.270843  2.621066
N    -5.138142  3.602081  1.572729
H    -3.103722  0.346744  3.782637
H    -4.212157  0.911214  2.565681
H    -2.227868  2.709169  2.029165
H    -1.696882  2.265489  3.643977
H    -3.101770  3.933541  4.335709
H    -4.377249  2.756304  4.171398
H    -3.506670  4.843288  2.057908
H    -4.898177  4.982687  3.151796
H    -5.937208  3.120032  2.007927
H    -4.607796  2.912825  1.006258
H    -5.529778  4.304256  0.927924
N    -2.316549  -0.256189  -0.715840
C    -2.606890  0.034277  -2.112080
H    -1.977437  -1.192314  -0.497703
H    -2.640444  1.118573  -2.263121
H    -3.585271  -0.385901  -2.404190
H    -1.840561  -0.435724  -2.739913
Cd    3.110828  -0.665730  2.583290
