35
Energy: -172331.228022 eV PBE+vdW (tier 2 basis)
C    0.052758  0.043777  -0.174204
C    0.084334  0.241485  1.299030
O    1.002944  0.944561  1.864734
H    -0.070852  1.017520  -0.670534
H    -0.728115  -0.633866  -0.520245
H    1.024864  -0.363773  -0.493941
N    -0.823093  -0.240756  2.165992
C    -2.212898  -0.733407  2.068087
C    -2.363425  -2.224035  2.601746
O    -3.389911  -2.389758  3.262984
H    -0.564164  -0.022930  3.133027
H    -2.735227  -0.165806  2.849828
C    -3.003504  -0.553013  0.753299
C    -4.529964  -0.539765  0.997436
C    -5.329381  -0.382044  -0.310445
C    -6.817633  -0.069189  -0.152251
N    -7.660393  -1.251727  0.319723
H    -2.741941  -1.330628  0.021046
H    -2.717972  0.417308  0.317614
H    -4.766990  0.295480  1.675090
H    -4.820671  -1.460984  1.525831
H    -5.196643  -1.260387  -0.962808
H    -4.930622  0.468707  -0.884724
H    -7.251392  0.228742  -1.114150
H    -7.001016  0.737506  0.568754
H    -8.656714  -0.988232  0.371127
H    -7.390123  -1.584619  1.255468
H    -7.594058  -2.049778  -0.329016
N    -1.493307  -3.203722  2.331371
C    -0.304834  -3.211301  1.483812
H    -1.740865  -4.087895  2.778333
H    -0.047157  -4.257554  1.288748
H    0.554662  -2.742487  1.980759
H    -0.498795  -2.738258  0.514922
Cd    3.049184  1.475627  1.393928
