35
Energy: -172332.434262 eV PBE+vdW (tier 2 basis)
C    -3.488429  -1.740113  -1.240016
C    -2.132068  -1.145244  -1.145379
O    -1.413763  -1.109644  -2.207708
H    -4.196896  -1.297780  -0.535571
H    -3.427907  -2.828729  -1.067730
H    -3.849205  -1.619737  -2.270752
N    -1.615622  -0.621543  -0.000942
C    -1.557388  -1.222002  1.350256
C    -0.618098  -2.465388  1.262340
O    0.282177  -2.573314  0.346815
H    -0.862827  0.045593  -0.176397
H    -0.975723  -0.489226  1.934867
C    -2.908914  -1.398422  2.080680
C    -3.684535  -0.069077  2.196015
C    -5.061389  -0.134882  2.900021
C    -4.995069  -0.122607  4.429500
N    -6.381266  0.039334  5.041287
H    -2.683390  -1.771309  3.092129
H    -3.519891  -2.171708  1.593425
H    -3.863530  0.327427  1.187034
H    -3.053478  0.683942  2.694363
H    -5.626866  -1.014064  2.552181
H    -5.628330  0.748897  2.569077
H    -4.404681  0.722963  4.804787
H    -4.587309  -1.047095  4.856237
H    -6.337242  0.056849  6.072087
H    -7.016546  -0.728791  4.777450
H    -6.828725  0.920103  4.743715
N    -0.669453  -3.392485  2.193504
C    0.237193  -4.550790  2.277732
H    -1.348484  -3.279952  2.941720
H    -0.115648  -5.202055  3.081235
H    1.257701  -4.214204  2.498962
H    0.232067  -5.101048  1.330467
Cd    0.531653  -1.836050  -1.643274
