35
Energy: -172331.831184 eV PBE+vdW (tier 2 basis)
C    0.897808  0.275577  2.694673
C    -0.266402  1.199071  2.671273
O    -0.130661  2.478183  2.562485
H    1.614484  0.622438  3.455001
H    1.412373  0.315045  1.722846
H    0.633906  -0.759385  2.926766
N    -1.543366  0.796673  2.723190
C    -2.163782  -0.537078  2.527348
C    -1.874297  -1.415077  3.798169
O    -0.970508  -2.245927  3.752035
H    -2.202683  1.578677  2.756823
H    -3.240308  -0.324087  2.493068
C    -1.766790  -1.250557  1.221946
C    -2.668180  -2.454922  0.877494
C    -2.331264  -3.015501  -0.519014
C    -3.269152  -4.089004  -1.072129
N    -3.022927  -5.483926  -0.501466
H    -0.720996  -1.580315  1.278068
H    -1.839891  -0.505086  0.415540
H    -3.724079  -2.139885  0.890287
H    -2.552231  -3.230009  1.651506
H    -1.288836  -3.372180  -0.557206
H    -2.380926  -2.196209  -1.252458
H    -3.135212  -4.196276  -2.154966
H    -4.326356  -3.865477  -0.881186
H    -2.065149  -5.809095  -0.699738
H    -3.667294  -6.169454  -0.924975
H    -3.162201  -5.527909  0.517001
N    -2.625722  -1.227578  4.912019
C    -3.865925  -0.484994  5.091932
H    -2.386522  -1.884271  5.660065
H    -3.935533  -0.193217  6.147876
H    -4.745360  -1.107689  4.863832
H    -3.892044  0.422415  4.481930
Cd    1.420198  3.858126  3.144965
