35
Energy: -172331.311776 eV PBE+vdW (tier 2 basis)
C    -0.207106  -0.953629  -0.551920
C    -0.213751  -0.979675  0.944456
O    0.415192  -1.785088  1.625438
H    0.106559  0.042392  -0.901858
H    -1.210961  -1.152651  -0.953765
H    0.488812  -1.708259  -0.928893
N    -0.986370  -0.025117  1.614733
C    -1.053111  -0.031091  3.042449
C    -2.139033  -1.052795  3.587690
O    -3.339204  -0.814925  3.222113
H    -1.646087  0.537341  1.077500
H    -0.099849  -0.493552  3.362504
C    -1.267175  1.362268  3.663783
C    -0.057999  2.305428  3.466309
C    -0.333572  3.697438  4.070276
C    0.671333  4.803569  3.741439
N    1.958128  4.750244  4.561556
H    -1.468039  1.232571  4.738249
H    -2.172633  1.819453  3.235722
H    0.152319  2.408700  2.390609
H    0.836654  1.846021  3.917527
H    -0.476694  3.632167  5.161359
H    -1.292802  4.070773  3.679752
H    0.982469  4.792528  2.689219
H    0.237427  5.787428  3.956186
H    2.574048  5.542538  4.320406
H    2.499800  3.890077  4.401512
H    1.766706  4.817111  5.572261
N    -1.755363  -2.045590  4.357931
C    -0.397491  -2.395018  4.831325
H    -2.496335  -2.669296  4.684538
H    -0.486858  -3.304398  5.432509
H    0.004422  -1.599790  5.469382
H    0.264361  -2.594960  3.981611
Cd    -5.286833  -1.806199  3.482300
