35
Energy: -172331.759433 eV PBE+vdW (tier 2 basis)
C    -0.518757  1.867251  0.916919
C    -0.860230  0.441294  1.203380
O    -0.405552  -0.536878  0.507813
H    0.568242  2.008082  1.020158
H    -1.015269  2.580209  1.584342
H    -0.808098  2.114994  -0.116799
N    -1.658865  0.162478  2.241243
C    -1.986849  -1.180879  2.743625
C    -3.215983  -1.815321  2.028306
O    -3.296546  -3.040942  2.020845
H    -1.934334  0.959762  2.815395
H    -1.148451  -1.843090  2.492045
C    -2.178749  -1.132177  4.281424
C    -2.234880  -2.504839  4.982665
C    -2.283767  -2.339919  6.515121
C    -2.069115  -3.605658  7.344093
N    -3.276449  -4.539727  7.379292
H    -3.082116  -0.546712  4.519462
H    -1.320324  -0.572150  4.685284
H    -1.340055  -3.084405  4.706341
H    -3.100540  -3.075980  4.615694
H    -3.214674  -1.839144  6.828316
H    -1.475332  -1.663024  6.832189
H    -1.873242  -3.350121  8.392160
H    -1.230167  -4.210779  6.977904
H    -3.085506  -5.358458  7.977264
H    -3.527236  -4.898539  6.448035
H    -4.106697  -4.069756  7.769179
N    -4.163657  -1.012268  1.479685
C    -5.394903  -1.533196  0.904630
H    -4.113456  -0.010868  1.655549
H    -5.751370  -0.834426  0.138432
H    -6.184917  -1.629669  1.668476
H    -5.204101  -2.527821  0.485096
Cd    0.778337  -0.447617  -1.314017
