35
Energy: -172333.182228 eV PBE+vdW (tier 2 basis)
C    -0.279873  0.653317  -0.249968
C    -0.189810  0.574432  1.236067
O    0.876008  1.023441  1.781010
H    -1.249021  0.326302  -0.642349
H    0.520888  0.041808  -0.691509
H    -0.088019  1.689575  -0.564116
N    -1.224160  0.051370  1.920505
C    -1.423561  0.038176  3.379091
C    -0.609292  -1.096749  4.061229
O    0.509483  -0.792655  4.634822
H    -1.996549  -0.288208  1.350645
H    -0.963427  0.959128  3.774079
C    -2.922500  0.100842  3.759678
C    -3.546075  1.503080  3.605463
C    -5.022482  1.532241  4.059752
C    -5.618899  2.937421  3.949034
N    -7.068873  2.979819  4.412054
H    -3.007347  -0.222202  4.808280
H    -3.491205  -0.631609  3.168436
H    -3.477754  1.837103  2.558377
H    -2.967989  2.224681  4.204130
H    -5.088898  1.184766  5.103293
H    -5.611788  0.830051  3.448573
H    -5.622252  3.307305  2.916067
H    -5.083626  3.663662  4.573520
H    -7.454752  3.933821  4.333756
H    -7.169412  2.693926  5.397704
H    -7.674235  2.362625  3.850079
N    -0.988789  -2.356006  4.125035
C    -2.198142  -3.028076  3.634785
H    -0.325967  -2.953644  4.628410
H    -2.521394  -2.610332  2.677268
H    -3.006132  -2.966938  4.374680
H    -1.948257  -4.082909  3.480818
Cd    1.754104  0.622433  3.669299
