35
Energy: -172331.232377 eV PBE+vdW (tier 2 basis)
C    -0.056447  0.721715  -0.304150
C    -0.145201  0.394927  1.153821
O    0.698834  -0.241607  1.776151
H    -0.714173  1.545187  -0.604056
H    -0.353432  -0.184939  -0.858151
H    0.981345  0.939459  -0.580319
N    -1.290514  0.855430  1.842979
C    -1.406202  0.615247  3.264742
C    -2.911146  0.446545  3.629853
O    -3.209701  0.518503  4.869792
H    -1.672607  1.730825  1.476231
H    -0.971600  -0.388531  3.424211
C    -0.624064  1.615574  4.164621
C    -0.063410  1.023827  5.469869
C    0.946530  -0.142604  5.384368
C    2.437942  0.160122  5.234819
N    2.877603  0.579940  3.831587
H    -1.248254  2.489928  4.395575
H    0.189496  1.997903  3.530897
H    -0.904224  0.682967  6.092439
H    0.375223  1.855218  6.044271
H    0.654740  -0.896242  4.634854
H    0.893527  -0.682583  6.341370
H    3.015243  -0.745326  5.456155
H    2.779600  0.951692  5.913439
H    3.893979  0.447201  3.718639
H    2.689828  1.573098  3.646676
H    2.400306  0.029155  3.097649
N    -3.766187  0.181519  2.657633
C    -5.193147  -0.078910  2.799859
H    -3.352385  0.098147  1.726033
H    -5.590476  -0.417074  1.834540
H    -5.744713  0.833846  3.071986
H    -5.381462  -0.913771  3.503065
Cd    -5.085012  0.290638  5.932552
