35
Energy: -172331.153442 eV PBE+vdW (tier 2 basis)
C    0.197048  0.679588  0.427392
C    -0.134086  0.349718  1.838387
O    0.721975  0.521511  2.785898
H    0.451863  1.746879  0.354368
H    -0.595046  0.453564  -0.286069
H    1.092014  0.107548  0.134932
N    -1.320021  -0.107920  2.275379
C    -2.705332  -0.135583  1.756878
C    -3.264258  -1.624602  1.729229
O    -4.376234  -1.733183  2.246352
H    -1.291390  -0.305267  3.280448
H    -3.290967  0.305025  2.574374
C    -3.069440  0.624171  0.466832
C    -4.599651  0.776696  0.295446
C    -4.957785  1.641428  -0.928912
C    -6.418483  1.602049  -1.379326
N    -7.378567  2.362757  -0.467682
H    -2.658406  0.130329  -0.424451
H    -2.613519  1.625374  0.531395
H    -5.017511  1.208264  1.219143
H    -5.057160  -0.217364  0.183353
H    -4.393617  1.284560  -1.804780
H    -4.636271  2.685506  -0.783590
H    -6.809805  0.578654  -1.440751
H    -6.527671  2.068191  -2.365708
H    -8.337760  2.332226  -0.847095
H    -7.119867  3.357137  -0.386062
H    -7.420625  1.970188  0.482850
N    -2.604227  -2.641550  1.162275
C    -1.343977  -2.651669  0.425580
H    -3.099836  -3.531465  1.236361
H    -1.306852  -3.577851  -0.157144
H    -0.479015  -2.644018  1.101857
H    -1.283843  -1.819027  -0.283801
Cd    2.881153  0.554243  2.924958
