35
Energy: -172331.718575 eV PBE+vdW (tier 2 basis)
C    -0.437056  -0.488158  0.149050
C    -0.497057  -0.559514  1.640041
O    0.508282  -0.959716  2.354192
H    -0.182030  -1.477483  -0.259730
H    0.340383  0.234115  -0.152020
H    -1.377414  -0.164677  -0.311230
N    -1.620803  -0.222569  2.261511
C    -1.874801  -0.167361  3.718607
C    -3.218540  -0.915940  3.985782
O    -4.273624  -0.270400  4.043381
H    -2.389824  0.073658  1.658562
H    -1.038270  -0.672408  4.217000
C    -2.001571  1.290764  4.194399
C    -2.173621  1.414433  5.724715
C    -2.888050  2.708594  6.182481
C    -4.351661  2.565901  6.588642
N    -5.290404  2.242662  5.429549
H    -2.846418  1.747986  3.659192
H    -1.104372  1.838778  3.875174
H    -1.179826  1.375460  6.189577
H    -2.713789  0.544033  6.130052
H    -2.771837  3.511280  5.437033
H    -2.389464  3.091368  7.084268
H    -4.727618  3.497742  7.027968
H    -4.494212  1.763005  7.323078
H    -5.014826  1.374822  4.931201
H    -6.255295  2.116882  5.768934
H    -5.313983  3.011028  4.745030
N    -3.243975  -2.264184  4.133429
C    -2.157859  -3.214121  4.257825
H    -4.188634  -2.629871  4.291114
H    -1.221685  -2.807867  3.866592
H    -2.425858  -4.130460  3.711674
H    -2.014374  -3.502435  5.314164
Cd    2.529627  -1.186159  1.654439
