35
Energy: -172331.413221 eV PBE+vdW (tier 2 basis)
C    -2.728808  0.407548  0.013792
C    -2.096960  0.201161  1.358311
O    -1.317852  -0.701309  1.629347
H    -2.819305  1.467795  -0.253461
H    -3.742146  -0.025619  0.050586
H    -2.157538  -0.128954  -0.749294
N    -2.440436  1.119594  2.369733
C    -1.876850  0.987353  3.679273
C    -2.997911  0.991704  4.773954
O    -2.966826  -0.095392  5.451665
H    -2.914525  1.974258  2.083359
H    -1.471706  -0.038868  3.701450
C    -0.700784  1.941294  4.068751
C    0.602156  1.612433  3.313313
C    1.776238  2.463374  3.846359
C    3.183424  2.034153  3.427551
N    3.570476  2.435093  2.006255
H    -0.531756  1.825328  5.150073
H    -0.992658  2.988558  3.904456
H    0.454993  1.771426  2.233476
H    0.836567  0.544330  3.443480
H    1.789209  2.402459  4.945484
H    1.623264  3.531447  3.621762
H    3.326782  0.947780  3.484915
H    3.932077  2.510484  4.071868
H    4.543056  2.155239  1.803755
H    3.518629  3.455858  1.871935
H    2.976971  1.993308  1.291242
N    -3.844625  1.977726  4.974371
C    -3.994364  3.252191  4.254119
H    -4.533246  1.831110  5.714653
H    -4.806129  3.177229  3.518872
H    -3.058274  3.540944  3.770629
H    -4.250691  4.030088  4.981555
Cd    -4.112408  -1.088928  7.047084
