35
Energy: -172333.010314 eV PBE+vdW (tier 2 basis)
C    -0.182073  0.739555  -0.026624
C    -0.187509  0.573404  1.454402
O    0.845422  0.977756  2.090333
H    -0.033240  1.804422  -0.261326
H    -1.104774  0.390538  -0.503336
H    0.680025  0.203799  -0.449111
N    -1.269404  0.026895  2.041130
C    -1.576810  -0.027735  3.480022
C    -0.822120  -1.194885  4.175387
O    0.241506  -0.919209  4.855425
H    -2.013307  -0.251247  1.403631
H    -1.137065  0.873794  3.938213
C    -3.105361  0.075173  3.712912
C    -3.501769  0.092127  5.201697
C    -5.021739  0.140841  5.490742
C    -5.670643  1.511811  5.282953
N    -7.112172  1.518643  5.776274
H    -3.625754  -0.741348  3.192789
H    -3.414879  1.007792  3.216995
H    -3.006055  0.931974  5.713868
H    -3.124886  -0.817529  5.692441
H    -5.153960  -0.155133  6.542850
H    -5.543766  -0.618040  4.886251
H    -5.714817  1.816901  4.230330
H    -5.157826  2.297997  5.851578
H    -7.173068  1.301036  6.782956
H    -7.696827  0.829017  5.280165
H    -7.551352  2.442426  5.639877
N    -1.194936  -2.457744  4.131460
C    -2.345821  -3.099853  3.485762
H    -0.569515  -3.084283  4.646960
H    -2.080994  -4.147084  3.306798
H    -2.568641  -2.635699  2.521081
H    -3.226879  -3.074899  4.139629
Cd    1.565138  0.521789  4.028474
