35
Energy: -172332.064262 eV PBE+vdW (tier 2 basis)
C    -0.371785  0.053102  -0.094586
C    -0.198800  0.267554  1.367922
O    0.867594  -0.121406  1.996583
H    -0.230765  -1.011912  -0.326068
H    0.399131  0.620426  -0.639459
H    -1.347405  0.367070  -0.474492
N    -1.117797  0.825971  2.144291
C    -2.507800  1.217488  1.871633
C    -2.733036  2.396179  2.874232
O    -2.270908  2.269648  4.007943
H    -0.868650  0.946839  3.137492
H    -2.601088  1.539209  0.828520
C    -3.479159  0.049540  2.207060
C    -4.988674  0.356242  2.134621
C    -5.799455  -0.844824  2.668334
C    -7.295001  -0.630102  2.905232
N    -8.153793  -0.749732  1.647863
H    -3.232654  -0.287759  3.225592
H    -3.232238  -0.780685  1.527577
H    -5.273171  0.602896  1.098556
H    -5.222971  1.238616  2.750372
H    -5.399490  -1.119729  3.656308
H    -5.641215  -1.736969  2.040325
H    -7.518855  0.355046  3.333567
H    -7.686967  -1.392469  3.588767
H    -9.151998  -0.621778  1.876043
H    -8.062226  -1.681248  1.216025
H    -7.915966  -0.049698  0.932584
N    -3.422336  3.499952  2.498572
C    -3.860781  3.909552  1.174197
H    -3.456091  4.209977  3.235477
H    -3.062250  4.444127  0.633582
H    -4.699765  4.606444  1.289276
H    -4.189196  3.051641  0.578812
Cd    2.900923  -0.389234  1.439186
