35
Energy: -172332.124182 eV PBE+vdW (tier 2 basis)
C    -0.295065  -1.515291  1.398693
C    0.272527  -0.255588  1.956386
O    1.393078  -0.244087  2.608364
H    0.357464  -1.877834  0.587753
H    -1.303069  -1.408695  0.989385
H    -0.317021  -2.284880  2.182194
N    -0.330934  0.922013  1.862027
C    -1.618756  1.275117  1.263289
C    -1.406085  2.741942  0.769539
O    -0.605159  3.461995  1.360415
H    0.182136  1.744166  2.214759
H    -1.807476  0.609902  0.410555
C    -2.842207  1.200806  2.222227
C    -2.840690  2.149107  3.431967
C    -4.162019  2.058677  4.226906
C    -4.184933  3.045032  5.395112
N    -5.497342  2.979602  6.165772
H    -2.926085  0.152715  2.552065
H    -3.732818  1.385818  1.601277
H    -2.692761  3.187874  3.097952
H    -1.994110  1.917299  4.096460
H    -4.300781  1.032367  4.602909
H    -5.007216  2.269008  3.551688
H    -4.084931  4.085293  5.060791
H    -3.394619  2.841836  6.128444
H    -5.503010  3.650895  6.949081
H    -5.663924  2.044374  6.565952
H    -6.306313  3.205147  5.567770
N    -2.151822  3.144685  -0.287975
C    -1.982808  4.440107  -0.924639
H    -2.738063  2.460557  -0.764724
H    -2.956741  4.779109  -1.301657
H    -1.299372  4.368199  -1.788741
H    -1.557323  5.146294  -0.204292
Cd    3.148747  -1.448567  2.458175
