35
Energy: -172332.577591 eV PBE+vdW (tier 2 basis)
C    -0.385051  -0.389576  0.162631
C    -0.376767  -0.155574  1.625422
O    0.712437  -0.344022  2.277226
H    0.001306  -1.409532  -0.007447
H    0.328219  0.278224  -0.342631
H    -1.380753  -0.310057  -0.282631
N    -1.492211  0.212643  2.311397
C    -2.388951  1.323697  1.979198
C    -1.708835  2.633497  2.503569
O    -0.742505  2.613191  3.354975
H    -1.441761  0.019721  3.314733
H    -2.459229  1.392373  0.883464
C    -3.793354  1.123398  2.599383
C    -4.606991  -0.053486  2.022336
C    -5.926597  -0.239215  2.802186
C    -6.772468  -1.469406  2.462206
N    -7.678784  -1.293813  1.245995
H    -4.360047  2.057445  2.472151
H    -3.676764  1.000765  3.689414
H    -4.018122  -0.981725  2.084732
H    -4.796644  0.129011  0.951885
H    -6.547285  0.670026  2.744353
H    -5.689520  -0.349767  3.871289
H    -7.453091  -1.703395  3.289314
H    -6.164668  -2.360761  2.262221
H    -8.342970  -0.516311  1.378109
H    -8.242576  -2.144036  1.088617
H    -7.157376  -1.114695  0.377201
N    -2.183398  3.787954  2.086445
C    -1.700116  5.121565  2.472424
H    -2.989892  3.769013  1.462748
H    -1.681529  5.756766  1.580017
H    -0.699752  5.042379  2.902424
H    -2.382930  5.560138  3.212451
Cd    0.928519  1.302179  3.643882
