35
Energy: -172332.332692 eV PBE+vdW (tier 2 basis)
C    0.468907  1.387773  0.896737
C    0.340264  0.316276  1.909983
O    1.322328  0.087427  2.703705
H    1.346720  1.136741  0.274097
H    0.711610  2.349924  1.369111
H    -0.403198  1.471853  0.241911
N    -0.764273  -0.474405  2.002609
C    -2.159313  -0.032754  2.095658
C    -2.376668  0.450374  3.564125
O    -1.643630  0.026830  4.535496
H    -0.590658  -1.373831  2.457775
H    -2.297819  0.826794  1.423669
C    -3.091770  -1.199474  1.659778
C    -4.581013  -0.844899  1.499939
C    -5.490890  -2.006955  1.029138
C    -5.396959  -2.328866  -0.464202
N    -6.453737  -3.347007  -0.873393
H    -2.983621  -2.027123  2.379965
H    -2.674460  -1.552510  0.705019
H    -4.696336  0.007804  0.810885
H    -4.990486  -0.523580  2.468323
H    -6.526659  -1.715135  1.261347
H    -5.281286  -2.909147  1.625293
H    -4.434111  -2.765338  -0.755973
H    -5.580045  -1.443866  -1.086668
H    -6.394843  -3.565399  -1.880108
H    -7.408508  -2.999085  -0.695439
H    -6.354687  -4.237487  -0.362966
N    -3.364771  1.286787  3.807556
C    -3.734749  1.843015  5.116494
H    -3.948725  1.565344  3.019705
H    -4.630361  1.332944  5.495185
H    -3.954366  2.909357  4.993308
H    -2.914280  1.702842  5.822886
Cd    0.484242  -0.254518  4.654456
