35
Energy: -172331.190359 eV PBE+vdW (tier 2 basis)
C    -0.090115  0.549541  -0.113761
C    -0.118085  0.272801  1.354621
O    0.865398  -0.060474  2.019538
H    -1.040144  0.924381  -0.509343
H    0.166800  -0.390237  -0.627514
H    0.713182  1.261884  -0.343871
N    -1.344117  0.415658  2.009060
C    -1.470631  0.160289  3.412277
C    -2.803161  -0.595527  3.725927
O    -2.562707  -1.722211  4.294369
H    -2.089111  0.874656  1.488478
H    -0.664248  -0.550081  3.650534
C    -1.315880  1.382417  4.394669
C    0.048506  2.103146  4.341172
C    1.159138  1.662172  5.314219
C    2.060561  0.468745  4.998402
N    2.979490  0.700961  3.808683
H    -1.513655  1.008447  5.410383
H    -2.106248  2.109104  4.169306
H    -0.190559  3.144351  4.616710
H    0.413517  2.190650  3.307374
H    0.718418  1.452988  6.300978
H    1.807028  2.536461  5.493392
H    2.715393  0.271549  5.855522
H    1.513589  -0.453398  4.770122
H    3.448633  1.616826  3.859244
H    2.447393  0.635169  2.921756
H    3.720432  -0.014136  3.771682
N    -4.003246  -0.130515  3.460476
C    -4.432838  1.120293  2.808014
H    -4.780722  -0.742207  3.717845
H    -5.248774  1.554521  3.397582
H    -3.620403  1.848586  2.767772
H    -4.804224  0.899579  1.798748
Cd    -3.732442  -3.396249  5.111997
