35
Energy: -172331.681218 eV PBE+vdW (tier 2 basis)
C    -0.338234  0.168297  -0.146544
C    -0.052041  -0.384015  1.205595
O    0.938148  -1.164202  1.455343
H    0.602905  0.384251  -0.669964
H    -0.938107  1.083972  -0.127331
H    -0.869354  -0.589404  -0.745700
N    -0.856712  -0.152682  2.256836
C    -2.210029  0.398069  2.228251
C    -2.237662  1.948785  2.583801
O    -2.918720  2.603917  1.793402
H    -0.526804  -0.556616  3.137488
H    -2.559034  0.379710  1.191740
C    -3.198262  -0.405022  3.107779
C    -4.647378  0.123715  3.077467
C    -5.587957  -0.780636  3.899479
C    -6.986078  -0.231804  4.184008
N    -7.937311  -0.290772  2.990949
H    -3.173020  -1.442150  2.736834
H    -2.841123  -0.434180  4.148421
H    -4.982374  0.199486  2.030435
H    -4.679317  1.144312  3.488316
H    -5.149234  -0.944996  4.895962
H    -5.661296  -1.784618  3.450702
H    -6.969015  0.817638  4.504217
H    -7.475218  -0.819391  4.969907
H    -8.871645  0.058709  3.254776
H    -8.062523  -1.256484  2.653194
H    -7.616583  0.280221  2.197160
N    -1.624170  2.458848  3.655685
C    -0.807657  1.804059  4.677985
H    -1.736822  3.470198  3.741206
H    -0.779625  2.460936  5.553716
H    0.226138  1.654441  4.338936
H    -1.247252  0.855006  5.005712
Cd    2.902187  -1.378786  0.555146
