35
Energy: -172331.745462 eV PBE+vdW (tier 2 basis)
C    0.266976  1.015611  0.945056
C    -0.040572  -0.113102  1.875938
O    0.868463  -0.941130  2.288396
H    -0.607534  1.632430  0.710396
H    0.656353  0.613112  -0.003274
H    1.027786  1.672011  1.396973
N    -1.284851  -0.283722  2.287532
C    -1.838207  -1.377655  3.109127
C    -3.042405  -1.878827  2.265203
O    -3.713010  -1.002754  1.704251
H    -2.013095  0.307652  1.869849
H    -1.058620  -2.138231  3.238347
C    -2.342831  -0.812282  4.468309
C    -3.046087  -1.845885  5.367813
C    -3.896500  -1.259848  6.518386
C    -3.102285  -0.645400  7.670725
N    -4.028988  -0.257478  8.817152
H    -3.036714  0.011470  4.237583
H    -1.474413  -0.366936  4.975358
H    -2.315782  -2.564084  5.771549
H    -3.750173  -2.436716  4.764557
H    -4.509842  -2.084570  6.914049
H    -4.599651  -0.516335  6.109646
H    -2.573072  0.273617  7.390486
H    -2.377527  -1.350980  8.096460
H    -3.507563  0.161517  9.602135
H    -4.534358  -1.075489  9.190489
H    -4.739850  0.428721  8.521822
N    -3.360426  -3.187183  2.153541
C    -2.691850  -4.364902  2.673911
H    -4.181100  -3.347674  1.561062
H    -1.904985  -4.100902  3.384270
H    -2.259823  -4.949579  1.845332
H    -3.429101  -5.010321  3.174099
Cd    2.957372  -0.815445  1.779806
