35
Energy: -172331.711131 eV PBE+vdW (tier 2 basis)
C    -0.658753  -0.243048  -0.367164
C    -0.499580  -0.247979  1.123389
O    0.552701  -0.455030  1.714911
H    0.324712  -0.256706  -0.844882
H    -1.235941  0.621819  -0.720702
H    -1.203519  -1.155761  -0.659333
N    -1.654450  0.009080  1.882631
C    -1.602656  0.023007  3.315661
C    -2.828657  -0.767102  3.877204
O    -2.529232  -1.942494  4.267909
H    -2.455220  0.408164  1.392956
H    -0.712214  -0.569224  3.582059
C    -1.485867  1.432202  3.985438
C    -0.146462  2.161499  3.749146
C    1.064215  1.580299  4.505751
C    2.226961  2.544237  4.749620
N    3.046537  2.870640  3.503339
H    -1.651780  1.310325  5.066418
H    -2.297799  2.073484  3.606229
H    -0.326674  3.193064  4.094879
H    0.052529  2.237685  2.669148
H    1.435485  0.661543  4.026082
H    0.748705  1.283030  5.518299
H    2.941768  2.111664  5.459590
H    1.891507  3.509714  5.149451
H    3.843861  3.479665  3.745289
H    2.499163  3.366953  2.786970
H    3.436620  2.021053  3.069496
N    -4.021684  -0.207951  3.917527
C    -5.260168  -0.822344  4.407522
H    -4.085805  0.764356  3.620936
H    -6.062813  -0.080150  4.341758
H    -5.164887  -1.107303  5.466049
H    -5.550984  -1.676090  3.779007
Cd    -3.585360  -3.699188  5.049022
