35
Energy: -172332.730062 eV PBE+vdW (tier 2 basis)
C    0.770209  2.035531  1.875283
C    -0.158225  0.888664  2.108622
O    -0.404666  0.138866  1.097716
H    0.843276  2.723278  2.724607
H    0.435193  2.587741  0.985616
H    1.769823  1.642715  1.634849
N    -0.663298  0.733624  3.342864
C    -1.741893  -0.082763  3.976845
C    -1.479533  -1.595512  4.078661
O    -1.421360  -2.404741  3.072877
H    -0.294722  1.428328  3.990024
H    -1.687808  0.266780  5.014180
C    -3.199435  0.279284  3.555484
C    -3.718201  -0.035844  2.142982
C    -5.240717  0.202933  1.959394
C    -5.670461  1.672764  1.944111
N    -7.158180  1.806647  1.644267
H    -3.293702  1.355498  3.764359
H    -3.843873  -0.224835  4.294370
H    -3.569213  -1.105373  1.924655
H    -3.163282  0.537330  1.384662
H    -5.788111  -0.338531  2.747415
H    -5.531065  -0.260764  1.004121
H    -5.154826  2.246426  1.163436
H    -5.516958  2.178531  2.905052
H    -7.449715  2.796646  1.629523
H    -7.741001  1.330677  2.349836
H    -7.404504  1.406056  0.726017
N    -1.406204  -2.144954  5.275980
C    -1.519646  -1.534368  6.611724
H    -1.281211  -3.161173  5.256072
H    -0.771750  -0.743679  6.747481
H    -1.320624  -2.317716  7.348950
H    -2.531187  -1.147534  6.787092
Cd    -0.762464  -1.923087  1.146926
