35
Energy: -172331.788920 eV PBE+vdW (tier 2 basis)
C    -0.366202  0.312694  -0.483315
C    -0.225574  0.166466  0.992634
O    0.917781  -0.085107  1.546614
H    0.146424  -0.518620  -0.984974
H    0.119512  1.249915  -0.800771
H    -1.402012  0.343204  -0.831664
N    -1.247837  0.248497  1.836118
C    -2.673454  0.453462  1.582885
C    -3.152477  1.292695  2.813517
O    -2.593580  1.131575  3.895878
H    -1.022815  0.215459  2.841389
H    -2.794814  1.028396  0.656203
C    -3.525422  -0.848880  1.480083
C    -3.454635  -1.794842  2.690915
C    -4.635390  -2.781270  2.839754
C    -4.670173  -3.909523  1.808821
N    -5.777751  -4.906238  2.130239
H    -3.218373  -1.355743  0.551416
H    -4.563087  -0.518858  1.311429
H    -3.438787  -1.205365  3.620403
H    -2.504799  -2.351520  2.683235
H    -5.585117  -2.222943  2.814688
H    -4.559624  -3.222396  3.845853
H    -3.738751  -4.489818  1.801560
H    -4.870905  -3.558778  0.788977
H    -6.708282  -4.462172  2.128159
H    -5.805784  -5.675591  1.443914
H    -5.647232  -5.332668  3.060333
N    -4.191530  2.137156  2.613863
C    -4.675856  3.047182  3.639938
H    -4.545983  2.265789  1.667088
H    -5.756272  3.187176  3.505533
H    -4.196539  4.037060  3.547817
H    -4.439700  2.638287  4.627934
Cd    2.926381  0.438943  1.036636
