35
Energy: -172332.945128 eV PBE+vdW (tier 2 basis)
C    0.129691  0.665667  0.151063
C    -0.122745  0.077741  1.498773
O    0.697823  -0.823004  1.895866
H    1.122288  1.138595  0.141627
H    -0.629720  1.391445  -0.159470
H    0.169529  -0.152191  -0.584452
N    -1.187510  0.512369  2.194200
C    -1.881084  -0.003408  3.410761
C    -1.139424  0.391154  4.713394
O    -0.107920  -0.238982  5.151621
H    -1.690076  1.264293  1.726805
H    -2.821493  0.564170  3.411178
C    -2.243216  -1.507912  3.329018
C    -3.467412  -1.942274  4.173832
C    -4.826359  -1.665540  3.498867
C    -6.074259  -2.061411  4.296660
N    -6.396111  -3.552639  4.254388
H    -1.383298  -2.125264  3.634238
H    -2.415296  -1.749994  2.270630
H    -3.436556  -1.468927  5.168571
H    -3.349987  -3.020348  4.359835
H    -4.860193  -2.133462  2.501246
H    -4.948246  -0.587664  3.310069
H    -6.963306  -1.566414  3.888604
H    -5.997652  -1.799005  5.359402
H    -7.260715  -3.750239  4.783043
H    -5.655572  -4.137547  4.665723
H    -6.555254  -3.881754  3.290140
N    -1.621549  1.399378  5.412004
C    -1.055718  1.943706  6.654230
H    -2.465737  1.854008  5.067269
H    -0.936189  3.027782  6.539162
H    -0.091199  1.475209  6.857802
H    -1.745617  1.747781  7.484991
Cd    1.218079  -1.276317  3.876911
