35
Energy: -172332.733562 eV PBE+vdW (tier 2 basis)
C    0.545922  -2.014410  0.212772
C    -0.925883  -2.111350  0.425425
O    -1.470564  -3.250625  0.220541
H    0.781783  -2.288531  -0.825614
H    1.044333  -2.758776  0.852133
H    0.949995  -1.020398  0.434425
N    -1.595015  -1.015732  0.830789
C    -2.984691  -0.925132  1.313508
C    -3.991546  -0.894987  0.129660
O    -4.613102  -1.988116  -0.173983
H    -1.023746  -0.179532  0.942323
H    -3.214064  -1.873557  1.827018
C    -3.095462  0.206542  2.366356
C    -4.494069  0.389744  3.007635
C    -4.747195  -0.410530  4.307051
C    -4.246556  0.216902  5.614148
N    -5.217803  1.238500  6.200271
H    -2.771214  1.152161  1.914736
H    -2.347023  -0.025877  3.139644
H    -5.280727  0.130800  2.283599
H    -4.636680  1.465467  3.189893
H    -4.268778  -1.399430  4.244258
H    -5.821318  -0.632666  4.402425
H    -3.287922  0.739833  5.504255
H    -4.128720  -0.543755  6.394721
H    -4.850046  1.631607  7.081175
H    -6.129175  0.809362  6.422431
H    -5.397620  2.032609  5.569635
N    -4.275913  0.172321  -0.588400
C    -3.791860  1.556568  -0.504140
H    -4.962013  -0.009994  -1.327106
H    -3.950440  2.018934  -1.483776
H    -2.721575  1.589177  -0.281610
H    -4.360611  2.126715  0.241230
Cd    -3.477313  -3.782018  -0.180835
