35
Energy: -172331.881417 eV PBE+vdW (tier 2 basis)
C    1.060888  1.451029  0.169540
C    0.509883  1.614400  1.553791
O    0.859062  2.520236  2.320225
H    2.066745  1.881349  0.127134
H    0.425483  2.036207  -0.516513
H    1.071098  0.411748  -0.177593
N    -0.451555  0.698221  1.958334
C    -0.974453  0.558289  3.298854
C    -1.896226  1.769160  3.708526
O    -3.066157  1.399301  4.076230
H    -0.715062  -0.021172  1.286622
H    -1.652439  -0.304957  3.272234
C    0.074020  0.300023  4.431694
C    0.778102  -1.062284  4.284025
C    1.573658  -1.476457  5.546989
C    3.011946  -0.956650  5.686211
N    4.050564  -1.970622  5.211896
H    -0.479095  0.318845  5.382870
H    0.788085  1.135089  4.455901
H    1.423954  -1.060775  3.391211
H    0.020642  -1.839835  4.106088
H    1.575708  -2.575514  5.617041
H    1.025682  -1.153892  6.443508
H    3.267686  -0.760803  6.733656
H    3.201635  -0.039377  5.115258
H    5.007905  -1.598894  5.312453
H    3.927697  -2.235658  4.224562
H    4.006075  -2.837909  5.768670
N    -1.424638  2.991457  3.667811
C    -2.151874  4.208197  4.010946
H    -0.452095  3.056680  3.284847
H    -1.484546  5.064325  3.855655
H    -2.440224  4.219015  5.074231
H    -3.018314  4.364265  3.346095
Cd    -4.833445  2.486196  4.683508
