35
Energy: -172331.868245 eV PBE+vdW (tier 2 basis)
C    0.418570  -0.720567  0.219840
C    0.001235  -0.488116  1.626389
O    0.856844  -0.259358  2.565966
H    0.938788  0.171190  -0.159087
H    -0.407789  -0.988452  -0.442667
H    1.142415  -1.550831  0.199419
N    -1.272507  -0.457665  2.043990
C    -2.565312  -0.399004  1.321479
C    -2.848077  -1.822375  0.705906
O    -2.364739  -2.122223  -0.379865
H    -1.348869  -0.356375  3.059232
H    -3.298334  -0.217476  2.119964
C    -2.713424  0.716770  0.267968
C    -4.171534  0.810242  -0.225941
C    -4.444651  1.811833  -1.371135
C    -4.532237  3.273414  -0.930903
N    -5.029388  4.157207  -2.068943
H    -2.049431  0.517564  -0.583792
H    -2.388615  1.657194  0.737649
H    -4.841730  1.031580  0.620189
H    -4.477707  -0.174293  -0.607570
H    -5.407409  1.523342  -1.821107
H    -3.686139  1.696393  -2.161401
H    -3.567489  3.694830  -0.623355
H    -5.249428  3.412609  -0.111948
H    -5.966948  3.870131  -2.389232
H    -4.404868  4.120773  -2.888310
H    -5.096901  5.144671  -1.779040
N    -3.630833  -2.645630  1.441791
C    -4.081387  -3.940993  0.952861
H    -4.069285  -2.282436  2.285981
H    -4.248614  -4.600696  1.812958
H    -3.327104  -4.349664  0.270677
H    -5.032502  -3.852420  0.402072
Cd    2.879321  -0.931073  2.910583
