35
Energy: -172332.860911 eV PBE+vdW (tier 2 basis)
C    -1.895655  -0.578739  -0.140060
C    -1.033431  -0.185034  1.012255
O    0.233384  -0.200179  0.812560
H    -2.964049  -0.604374  0.100673
H    -1.580680  -1.573971  -0.488665
H    -1.719989  0.111995  -0.977514
N    -1.631325  0.142115  2.169622
C    -1.141809  0.314109  3.567514
C    -0.402072  1.647279  3.801235
O    0.837992  1.822645  3.478994
H    -2.647318  0.122622  2.105618
H    -2.074436  0.385694  4.138683
C    -0.401125  -0.925588  4.134817
C    -0.278462  -0.866732  5.675622
C    -0.224125  -2.222673  6.419016
C    1.104290  -2.974521  6.327268
N    1.103154  -4.190975  7.245584
H    0.581804  -1.063493  3.659855
H    -1.009167  -1.792601  3.836574
H    -1.166918  -0.355130  6.076341
H    0.580353  -0.244900  5.970632
H    -1.045881  -2.867094  6.068193
H    -0.431079  -2.006566  7.478850
H    1.950873  -2.356407  6.652388
H    1.316382  -3.359124  5.322014
H    1.996277  -4.704879  7.194437
H    0.354469  -4.858149  7.004729
H    0.964651  -3.923376  8.232427
N    -0.998655  2.643281  4.424926
C    -2.344701  2.755843  5.004529
H    -0.397959  3.463652  4.554934
H    -2.655223  3.803294  4.922252
H    -2.327360  2.480251  6.067105
H    -3.069754  2.141716  4.463608
Cd    1.674059  1.016353  1.726527
