35
Energy: -172332.044164 eV PBE+vdW (tier 2 basis)
C    0.239832  -0.223387  -0.016064
C    0.205145  -0.273619  1.470279
O    1.240896  -0.604730  2.165890
H    0.521412  -1.212999  -0.404236
H    1.014217  0.491331  -0.335500
H    -0.702298  0.076307  -0.481060
N    -0.890563  -0.034132  2.198744
C    -2.297220  0.107545  1.793007
C    -2.813202  1.362884  2.592057
O    -3.048150  1.240040  3.789060
H    -0.741729  -0.096040  3.212171
H    -2.336220  0.307047  0.715121
C    -3.123055  -1.147074  2.144389
C    -4.612594  -1.040090  1.763567
C    -5.377317  -2.375922  1.909038
C    -5.860476  -2.768505  3.308575
N    -7.241902  -2.204638  3.634184
H    -3.005798  -1.345934  3.220183
H    -2.668942  -1.991890  1.604049
H    -4.695790  -0.729833  0.711367
H    -5.096340  -0.244410  2.353223
H    -4.739552  -3.199153  1.555831
H    -6.233259  -2.381604  1.216078
H    -5.197513  -2.426199  4.112809
H    -5.969572  -3.855447  3.398407
H    -7.269344  -1.176353  3.598878
H    -7.951863  -2.554296  2.972901
H    -7.545489  -2.486063  4.579007
N    -2.950001  2.513536  1.896485
C    -3.508679  3.724049  2.486140
H    -2.822283  2.495244  0.887119
H    -3.078194  4.592607  1.973490
H    -3.278331  3.738530  3.557499
H    -4.602779  3.763187  2.362848
Cd    3.360871  -0.417768  1.855828
