35
Energy: -172332.271589 eV PBE+vdW (tier 2 basis)
C    -0.148279  0.526935  0.952157
C    -0.407443  0.281688  2.392909
O    0.528650  0.549505  3.228196
H    -1.043262  0.845464  0.411762
H    0.253757  -0.390681  0.488572
H    0.642358  1.283788  0.864146
N    -1.585969  -0.192415  2.880670
C    -2.388815  -1.351232  2.439335
C    -1.585907  -2.635423  2.815327
O    -0.637414  -2.624935  3.686069
H    -1.735713  0.050400  3.861392
H    -3.244964  -1.352999  3.135014
C    -2.987957  -1.231482  1.009809
C    -4.309433  -2.017847  0.809520
C    -5.309419  -1.424523  -0.212630
C    -4.931944  -1.611171  -1.683516
N    -6.070570  -1.175649  -2.597694
H    -2.242012  -1.498273  0.248322
H    -3.207021  -0.161464  0.884880
H    -4.851234  -2.057597  1.766055
H    -4.117986  -3.066437  0.526198
H    -5.465532  -0.356341  0.006619
H    -6.274637  -1.922528  -0.030504
H    -4.739425  -2.663404  -1.929355
H    -4.059982  -1.018819  -1.986907
H    -6.928041  -1.723842  -2.427357
H    -5.824626  -1.300855  -3.591978
H    -6.315439  -0.182222  -2.468076
N    -1.935154  -3.792522  2.296764
C    -1.329628  -5.088143  2.650993
H    -2.719879  -3.804739  1.650271
H    -1.775511  -5.858022  2.016455
H    -1.527923  -5.321224  3.704315
H    -0.247555  -5.056369  2.481856
Cd    0.631828  -1.139258  4.556185
