35
Energy: -172331.852319 eV PBE+vdW (tier 2 basis)
C    0.641422  2.826165  0.591812
C    0.033235  3.625336  1.690072
O    0.712138  4.367268  2.486506
H    -0.060551  2.586069  -0.213229
H    1.034752  1.882602  1.005077
H    1.493300  3.365775  0.157705
N    -1.283927  3.569082  1.961014
C    -2.243582  2.556882  1.500836
C    -3.049455  3.032580  0.231823
O    -3.561195  2.136052  -0.434200
H    -1.574727  4.159896  2.746285
H    -1.683788  1.681528  1.150442
C    -3.195002  2.137626  2.650078
C    -4.006072  0.852389  2.384116
C    -4.859547  0.466010  3.608663
C    -5.501096  -0.920567  3.574576
N    -6.702165  -1.028194  2.637910
H    -3.869593  2.975078  2.891013
H    -2.563784  1.972515  3.537821
H    -3.308616  0.031941  2.152467
H    -4.632877  0.990067  1.490860
H    -5.627502  1.230651  3.810418
H    -4.223805  0.453936  4.507529
H    -5.883536  -1.192243  4.565548
H    -4.798607  -1.700451  3.254509
H    -6.455952  -0.846766  1.655323
H    -7.448259  -0.368034  2.901796
H    -7.110022  -1.974972  2.676993
N    -3.147566  4.341613  -0.048349
C    -3.962545  4.853226  -1.152772
H    -2.786618  5.010738  0.626182
H    -3.547821  5.814261  -1.475321
H    -5.005150  5.006748  -0.838519
H    -3.944897  4.129762  -1.975383
Cd    2.625654  5.388777  2.313491
