35
Energy: -172331.753929 eV PBE+vdW (tier 2 basis)
C    1.622990  -1.665231  1.250966
C    0.856437  -1.581310  2.531104
O    1.284845  -2.108254  3.633710
H    1.132296  -1.147078  0.419915
H    1.740407  -2.721985  0.964215
H    2.620915  -1.218705  1.384741
N    -0.311239  -0.957053  2.542232
C    -1.286669  -0.908488  3.643345
C    -2.624084  -1.331674  2.982795
O    -2.761743  -1.084465  1.777773
H    -0.712589  -0.683707  1.637055
H    -0.965417  -1.625100  4.408838
C    -1.437828  0.506943  4.279920
C    -1.825241  1.636708  3.305600
C    -2.447778  2.898371  3.945132
C    -1.467873  3.791833  4.705453
N    -2.139653  5.091370  5.133624
H    -0.491218  0.729432  4.794690
H    -2.200098  0.408849  5.068538
H    -2.575469  1.265354  2.591386
H    -0.956655  1.926395  2.694436
H    -3.278741  2.605725  4.606962
H    -2.894073  3.482913  3.125331
H    -0.613571  4.088287  4.083650
H    -1.087375  3.333224  5.626424
H    -2.947327  4.922460  5.751807
H    -2.486075  5.624577  4.321377
H    -1.487566  5.705524  5.644746
N    -3.619991  -1.894256  3.703360
C    -3.607640  -2.418618  5.056715
H    -4.452078  -2.097015  3.140803
H    -2.752031  -2.048394  5.626871
H    -3.591560  -3.520817  5.042022
H    -4.536912  -2.117147  5.562528
Cd    3.159266  -3.145416  3.882332
