35
Energy: -172331.812338 eV PBE+vdW (tier 2 basis)
C    -0.081942  1.208312  -0.300366
C    0.043040  0.411645  0.951120
O    1.140684  -0.133264  1.337020
H    -0.247200  0.526114  -1.150794
H    0.854169  1.744714  -0.501757
H    -0.899684  1.936126  -0.274344
N    -1.015753  0.150879  1.736285
C    -2.427901  0.355070  1.406723
C    -2.936444  1.755693  1.948573
O    -3.414543  2.483112  1.081012
H    -0.793328  -0.382552  2.580640
H    -2.502392  0.477581  0.321885
C    -3.328054  -0.827968  1.826941
C    -4.796195  -0.633685  1.397796
C    -5.661835  -1.885476  1.652202
C    -7.104564  -1.651888  1.199801
N    -7.978379  -2.879606  1.418181
H    -3.265638  -0.998826  2.911680
H    -2.914442  -1.724632  1.338851
H    -4.831499  -0.377934  0.327479
H    -5.232729  0.224624  1.931554
H    -5.643880  -2.141675  2.723633
H    -5.236893  -2.743976  1.107854
H    -7.169460  -1.423789  0.128509
H    -7.586749  -0.837054  1.754209
H    -7.634722  -3.696197  0.891199
H    -8.946849  -2.704756  1.108410
H    -8.022410  -3.151303  2.411538
N    -2.844224  2.116919  3.242964
C    -2.582295  1.315328  4.434951
H    -3.247490  3.040956  3.415469
H    -1.826742  0.545564  4.256740
H    -3.499922  0.847768  4.818919
H    -2.194941  1.985795  5.211465
Cd    3.225013  0.401757  1.046443
