35
Energy: -172331.921708 eV PBE+vdW (tier 2 basis)
C    -0.984239  0.794122  -0.045401
C    -0.390022  -0.048950  1.029324
O    0.863227  0.014550  1.327506
H    -0.831181  1.855778  0.185165
H    -2.053018  0.631077  -0.206264
H    -0.465818  0.554078  -0.990894
N    -1.077789  -0.985323  1.703982
C    -2.502511  -0.919856  2.032315
C    -2.738174  0.429820  2.834771
O    -1.953842  1.355586  2.649716
H    -0.500980  -1.501861  2.374042
H    -3.067890  -0.776979  1.096217
C    -2.940285  -2.223059  2.733270
C    -2.882835  -3.499849  1.858010
C    -4.117277  -3.756960  0.963553
C    -5.283540  -4.514482  1.606022
N    -5.066434  -6.025423  1.633538
H    -3.967481  -2.092862  3.104796
H    -2.319373  -2.360343  3.631819
H    -2.712656  -4.352573  2.533361
H    -1.987979  -3.468986  1.220979
H    -3.811828  -4.282533  0.045543
H    -4.536542  -2.805515  0.602663
H    -6.210642  -4.368598  1.039368
H    -5.470640  -4.219595  2.646464
H    -4.971578  -6.408982  0.680987
H    -5.867332  -6.505739  2.072546
H    -4.224866  -6.298448  2.160659
N    -3.821247  0.532532  3.637642
C    -4.129497  1.734144  4.397134
H    -4.386779  -0.292416  3.818111
H    -5.218602  1.822279  4.494878
H    -3.699758  2.604950  3.891414
H    -3.701281  1.676662  5.413107
Cd    2.480122  0.898926  0.241423
