35
Energy: -172333.136614 eV PBE+vdW (tier 2 basis)
C    1.651040  1.883923  0.893921
C    1.021384  1.251470  2.089809
O    1.498173  0.119873  2.460962
H    1.672643  1.149326  0.075523
H    2.701237  2.119488  1.122587
H    1.137124  2.790129  0.555427
N    0.003595  1.892837  2.686500
C    -0.999386  1.481175  3.710212
C    -0.441277  1.470970  5.151766
O    0.309416  0.534792  5.621057
H    -0.193748  2.799885  2.268407
H    -1.722619  2.307990  3.682043
C    -1.797967  0.197602  3.360835
C    -2.618736  0.354099  2.064080
C    -3.509883  -0.845809  1.661161
C    -4.849768  -0.914987  2.398952
N    -5.767731  -1.964203  1.783538
H    -2.451407  -0.002638  4.223940
H    -1.132285  -0.674973  3.269938
H    -1.929663  0.528030  1.226140
H    -3.241738  1.260720  2.130942
H    -2.958144  -1.791168  1.784436
H    -3.709021  -0.743494  0.583248
H    -5.399351  0.032722  2.333906
H    -4.751647  -1.186974  3.457027
H    -6.672861  -2.006934  2.277314
H    -5.358601  -2.909981  1.817636
H    -5.973780  -1.757395  0.793921
N    -0.817640  2.445206  5.955020
C    -0.426304  2.606397  7.361805
H    -1.462516  3.143292  5.586765
H    -0.191762  3.662389  7.537373
H    0.442993  1.982448  7.579009
H    -1.262431  2.313114  8.010637
Cd    1.599658  -0.613324  4.426161
