35
Energy: -172331.823238 eV PBE+vdW (tier 2 basis)
C    -0.071194  -0.497835  -0.698034
C    -0.427671  -0.116445  0.702395
O    0.459212  0.278335  1.563723
H    0.629878  -1.346883  -0.679544
H    0.409394  0.354845  -1.203784
H    -0.938393  -0.794823  -1.297970
N    -1.688267  -0.192455  1.089756
C    -2.244028  0.040412  2.436392
C    -3.177505  -1.180243  2.649477
O    -3.825913  -1.546531  1.659968
H    -2.374503  -0.594428  0.439330
H    -1.412029  0.073972  3.150368
C    -3.070580  1.357916  2.452942
C    -3.753745  1.660302  3.798028
C    -4.518040  3.003724  3.863352
C    -5.868326  2.995077  3.144344
N    -6.641504  4.280696  3.411383
H    -3.809178  1.289632  1.639632
H    -2.380617  2.174167  2.191754
H    -2.992017  1.694749  4.590399
H    -4.443076  0.846070  4.072093
H    -3.885044  3.814780  3.469650
H    -4.686014  3.228100  4.928144
H    -6.514919  2.180675  3.495072
H    -5.779742  2.921188  2.053731
H    -7.555424  4.277112  2.933126
H    -6.130066  5.114279  3.085362
H    -6.826062  4.411745  4.417642
N    -3.300654  -1.803389  3.841241
C    -2.601113  -1.587545  5.094115
H    -3.957725  -2.589135  3.812135
H    -3.333378  -1.479761  5.908354
H    -1.971597  -0.695904  5.056261
H    -1.979709  -2.466018  5.331558
Cd    2.551479  0.536767  1.138714
