35
Energy: -172331.612639 eV PBE+vdW (tier 2 basis)
C    -0.776538  -0.383988  0.758149
C    -1.144426  -0.555565  2.188094
O    -0.668477  -1.539419  2.881492
H    0.320733  -0.284682  0.696816
H    -1.246150  0.469912  0.272049
H    -1.075120  -1.283869  0.201299
N    -1.966603  0.232273  2.896614
C    -3.003032  1.244757  2.573659
C    -3.970566  0.779324  1.451836
O    -3.534936  0.405847  0.362386
H    -2.011742  -0.072002  3.871385
H    -3.581157  1.281924  3.506528
C    -2.508651  2.707830  2.354695
C    -1.718333  3.066938  1.090195
C    -1.303797  4.557579  1.001118
C    -2.441202  5.514727  0.640596
N    -1.921839  6.933552  0.442955
H    -1.917691  2.962760  3.248266
H    -3.426182  3.313316  2.419681
H    -2.277940  2.787074  0.183986
H    -0.781672  2.493899  1.067683
H    -0.522915  4.631565  0.228683
H    -0.837548  4.869147  1.949614
H    -3.210426  5.587695  1.418851
H    -2.926395  5.239200  -0.304339
H    -2.684058  7.582438  0.193853
H    -1.222789  6.982205  -0.313765
H    -1.474214  7.303025  1.295198
N    -5.292392  0.854328  1.734052
C    -6.327086  0.459977  0.789707
H    -5.580472  1.041740  2.692954
H    -7.220009  1.071614  0.967210
H    -6.606612  -0.597345  0.932261
H    -5.952293  0.582076  -0.232202
Cd    0.997956  -2.836236  2.542904
