35
Energy: -172333.000547 eV PBE+vdW (tier 2 basis)
C    -0.554697  -2.334182  0.573763
C    -0.434525  -1.400707  1.729681
O    0.601543  -0.653777  1.771292
H    -1.485334  -2.912175  0.579199
H    0.305623  -3.019098  0.571302
H    -0.491603  -1.753177  -0.358395
N    -1.415547  -1.380817  2.652554
C    -1.592370  -0.413065  3.747065
C    -0.700656  -0.757861  4.972412
O    0.410378  -0.114602  5.123510
H    -2.167517  -2.050255  2.502815
H    -1.175782  0.544155  3.391688
C    -3.085340  -0.129168  4.048982
C    -3.746665  0.746559  2.962659
C    -5.102745  1.391174  3.336046
C    -6.307853  0.449216  3.303424
N    -7.608558  1.222551  3.483757
H    -3.120359  0.395745  5.016081
H    -3.631288  -1.072899  4.189540
H    -3.853014  0.182470  2.023125
H    -3.070056  1.583257  2.732882
H    -5.273010  2.202126  2.610820
H    -5.025705  1.871325  4.324547
H    -6.294655  -0.302634  4.101993
H    -6.400190  -0.067516  2.339587
H    -7.638749  1.727561  4.382433
H    -8.427449  0.595303  3.459781
H    -7.742324  1.922711  2.737812
N    -1.003614  -1.647760  5.894479
C    -2.181175  -2.507633  6.055608
H    -0.296191  -1.724884  6.631642
H    -1.872354  -3.384304  6.634501
H    -2.553317  -2.852675  5.086906
H    -2.971235  -1.986141  6.610490
Cd    1.533108  0.354194  3.388412
