35
Energy: -172333.364826 eV PBE+vdW (tier 2 basis)
C    -0.490993  -2.020462  1.014466
C    -0.438506  -0.745754  1.784592
O    0.609882  -0.023378  1.646643
H    0.366750  -2.649949  1.290547
H    -0.373934  -1.786882  -0.055125
H    -1.424078  -2.575669  1.160069
N    -1.487308  -0.414274  2.558984
C    -1.808377  0.892742  3.174670
C    -1.141145  1.010709  4.567963
O    0.061371  1.455554  4.681554
H    -2.228884  -1.112368  2.594434
H    -1.337127  1.672903  2.553564
C    -3.338243  1.111389  3.109234
C    -3.818829  2.535810  3.450599
C    -5.335075  2.702202  3.200089
C    -5.804380  4.131126  3.484403
N    -7.292419  4.305339  3.212965
H    -3.857248  0.365326  3.736568
H    -3.630535  0.874518  2.074712
H    -3.268584  3.260974  2.830648
H    -3.589409  2.784395  4.498352
H    -5.895252  1.995078  3.832602
H    -5.559568  2.442706  2.153139
H    -5.295636  4.867138  2.849287
H    -5.654089  4.418408  4.532558
H    -7.593591  5.272815  3.408851
H    -7.870115  3.685015  3.799977
H    -7.532637  4.108347  2.229689
N    -1.797857  0.647987  5.647936
C    -1.262794  0.643828  7.017977
H    -2.766043  0.354870  5.532698
H    -1.578689  1.553787  7.544843
H    -0.171406  0.604179  6.986462
H    -1.658345  -0.232933  7.541673
Cd    1.410085  1.333425  3.049049
