35
Energy: -172332.420781 eV PBE+vdW (tier 2 basis)
C    0.223520  -0.447452  0.594270
C    0.046687  -0.088706  2.021060
O    1.070023  -0.103660  2.794116
H    0.931472  0.237027  0.104548
H    -0.717885  -0.500123  0.040297
H    0.708973  -1.438451  0.564784
N    -1.168037  0.215036  2.552079
C    -2.120540  1.203114  2.030091
C    -1.562974  2.607903  2.405651
O    -0.729722  2.755926  3.382816
H    -1.201609  0.131258  3.571034
H    -2.154630  1.111566  0.935739
C    -3.520923  0.996399  2.662802
C    -4.246808  -0.325968  2.324894
C    -4.996184  -0.331402  0.979631
C    -5.742940  -1.624558  0.635125
N    -7.050482  -1.810630  1.400325
H    -4.154865  1.851543  2.388777
H    -3.400388  1.068632  3.755313
H    -4.952344  -0.497707  3.152336
H    -3.537481  -1.167706  2.362216
H    -5.691145  0.522640  0.920938
H    -4.290443  -0.187869  0.146602
H    -5.144840  -2.521765  0.838975
H    -6.026009  -1.637848  -0.423916
H    -7.520803  -2.680899  1.105132
H    -7.711374  -1.039443  1.222548
H    -6.914618  -1.876389  2.418775
N    -1.972729  3.693933  1.783891
C    -2.974041  3.852864  0.725571
H    -1.558064  4.562347  2.135744
H    -2.586093  4.567713  -0.009516
H    -3.904492  4.255954  1.147280
H    -3.173240  2.902958  0.222795
Cd    1.016999  1.678518  4.000957
