35
Energy: -172331.677445 eV PBE+vdW (tier 2 basis)
C    0.334909  -0.753528  2.432850
C    -1.051930  -0.848918  2.964520
O    -1.293430  -1.091719  4.209906
H    0.416529  -1.094064  1.394785
H    1.007645  -1.374041  3.037606
H    0.666231  0.297097  2.484561
N    -2.162185  -0.700361  2.223063
C    -2.389099  -0.674204  0.759558
C    -2.008998  -2.053000  0.123831
O    -0.819972  -2.360455  0.035530
H    -3.013754  -0.762081  2.784464
H    -3.478154  -0.549761  0.677591
C    -1.671777  0.497254  0.050380
C    -2.046215  0.750115  -1.427387
C    -3.458137  1.325217  -1.676084
C    -3.584484  2.293943  -2.853413
N    -3.405423  1.648923  -4.225579
H    -0.589738  0.324314  0.087635
H    -1.873778  1.405918  0.636967
H    -1.878826  -0.164452  -2.017904
H    -1.296326  1.473714  -1.783848
H    -3.770059  1.928179  -0.808553
H    -4.214991  0.529958  -1.766981
H    -2.837135  3.096064  -2.802676
H    -4.579330  2.754644  -2.875253
H    -3.516122  2.352615  -4.972404
H    -2.473077  1.228975  -4.346134
H    -4.107026  0.914859  -4.399895
N    -3.018992  -2.837174  -0.303920
C    -2.802851  -4.175340  -0.847338
H    -3.975354  -2.564558  -0.088171
H    -2.815164  -4.931570  -0.046789
H    -1.825468  -4.210283  -1.341033
H    -3.609500  -4.405987  -1.551997
Cd    -0.071011  -0.813950  5.946575
