35
Energy: -172331.804750 eV PBE+vdW (tier 2 basis)
C    -0.040529  -0.015555  0.640133
C    0.174273  0.448219  2.038265
O    1.088794  -0.024068  2.807200
H    0.921954  -0.271752  0.177583
H    -0.540829  0.723821  0.006088
H    -0.644660  -0.937671  0.649445
N    -0.626506  1.358969  2.618229
C    -1.921599  1.824813  2.130321
C    -1.808975  3.226820  1.383558
O    -2.380887  3.230247  0.292973
H    -0.349394  1.622610  3.567404
H    -2.241850  1.149052  1.332057
C    -3.015337  1.849303  3.226385
C    -4.405124  2.229017  2.679347
C    -5.517096  2.105912  3.742494
C    -6.875326  2.490537  3.152577
N    -7.996653  2.377065  4.176527
H    -2.727475  2.528767  4.042439
H    -3.047848  0.833999  3.653123
H    -4.647386  1.583600  1.820935
H    -4.387506  3.259234  2.293406
H    -5.286059  2.757357  4.600580
H    -5.556003  1.072330  4.121944
H    -7.163034  1.838658  2.318186
H    -6.894595  3.529218  2.799553
H    -8.904559  2.638175  3.761798
H    -7.844302  2.996200  4.986491
H    -8.093762  1.416480  4.537703
N    -1.198019  4.286584  1.921306
C    -0.480920  4.419255  3.189012
H    -1.210646  5.109004  1.316112
H    -0.427880  5.485575  3.432681
H    0.547931  4.041512  3.116488
H    -1.013611  3.930276  4.012683
Cd    3.043490  -0.880299  2.396699
