35
Energy: -172331.840366 eV PBE+vdW (tier 2 basis)
C    -1.544191  -2.389869  0.435456
C    -1.656198  -1.205603  1.345369
O    -2.594252  -1.067727  2.146426
H    -2.521732  -2.577164  -0.027247
H    -1.315826  -3.272333  1.053479
H    -0.777231  -2.283183  -0.338411
N    -0.655709  -0.254843  1.269669
C    -0.598771  1.050062  1.904483
C    -0.583418  0.989879  3.467297
O    0.378963  1.677563  3.967610
H    0.080692  -0.438663  0.589158
H    0.401169  1.432313  1.657818
C    -1.573725  2.152456  1.336346
C    -3.086313  2.006920  1.548943
C    -3.960394  2.774910  0.525055
C    -3.927283  4.298376  0.654886
N    -4.920811  4.947360  -0.301577
H    -1.341472  2.165433  0.259903
H    -1.199920  3.104288  1.743632
H    -3.364742  2.304705  2.571237
H    -3.384964  0.954602  1.453099
H    -4.995434  2.426908  0.665718
H    -3.667010  2.481134  -0.495633
H    -2.950335  4.732605  0.409214
H    -4.216171  4.633485  1.659147
H    -5.887030  4.636808  -0.116880
H    -4.712533  4.721844  -1.286076
H    -4.910792  5.975401  -0.216644
N    -1.482316  0.301915  4.128333
C    -1.548430  0.142296  5.574918
H    -2.132701  -0.247776  3.509280
H    -2.365145  -0.550121  5.811485
H    -1.769283  1.095777  6.077510
H    -0.629570  -0.326756  5.973983
Cd    1.182367  1.839561  5.968388
