35
Energy: -172331.750943 eV PBE+vdW (tier 2 basis)
C    0.082328  0.659889  -0.764156
C    0.122343  0.420558  0.702033
O    1.136118  0.753340  1.426152
H    -0.770569  0.195091  -1.265278
H    0.075526  1.743662  -0.955695
H    1.003019  0.258686  -1.215547
N    -0.883776  -0.122119  1.406493
C    -2.317985  -0.326824  1.074684
C    -2.421489  -1.536285  0.070935
O    -2.526259  -1.324386  -1.131456
H    -0.640872  -0.268811  2.389572
H    -2.764085  -0.631524  2.031878
C    -3.023222  0.936255  0.547391
C    -4.561072  0.876226  0.407519
C    -5.359699  0.840993  1.728368
C    -6.730302  1.519288  1.690667
N    -7.761985  0.809176  0.817236
H    -2.617601  1.176972  -0.443196
H    -2.756024  1.764225  1.221459
H    -4.840030  0.040746  -0.252596
H    -4.825499  1.791439  -0.145105
H    -4.814494  1.397569  2.507234
H    -5.463681  -0.184106  2.118448
H    -6.666720  2.543394  1.301282
H    -7.174687  1.560967  2.692210
H    -8.663482  1.310707  0.842600
H    -7.944377  -0.151539  1.141738
H    -7.474958  0.758790  -0.170295
N    -2.367463  -2.774106  0.618377
C    -2.522764  -3.988640  -0.171947
H    -2.391791  -2.864529  1.632124
H    -1.973794  -4.800379  0.320154
H    -2.147605  -3.806996  -1.185624
H    -3.580991  -4.287341  -0.245245
Cd    3.249275  0.934822  1.011575
