35
Energy: -172332.844682 eV PBE+vdW (tier 2 basis)
C    0.070033  1.857870  0.353721
C    -0.364648  0.465603  0.666479
O    0.350660  -0.482060  0.183876
H    0.129778  1.967854  -0.739867
H    1.088370  2.015248  0.737388
H    -0.600181  2.625854  0.755216
N    -1.471822  0.295931  1.408407
C    -2.323178  -0.894548  1.695614
C    -1.683767  -1.816574  2.756908
O    -0.819627  -2.727498  2.459369
H    -1.885817  1.173988  1.714996
H    -3.205916  -0.449278  2.170484
C    -2.823485  -1.626745  0.424231
C    -4.200388  -2.309629  0.590972
C    -4.735388  -2.824010  -0.764344
C    -6.231208  -3.140266  -0.856719
N    -6.634776  -4.508352  -0.311849
H    -2.086457  -2.362306  0.062679
H    -2.900198  -0.864937  -0.364873
H    -4.908515  -1.568309  0.995258
H    -4.135430  -3.124821  1.329652
H    -4.144645  -3.681955  -1.124162
H    -4.581266  -2.037473  -1.519261
H    -6.549532  -3.150059  -1.905934
H    -6.850324  -2.407199  -0.324326
H    -6.444722  -4.615021  0.693674
H    -6.150596  -5.272597  -0.806064
H    -7.647079  -4.663010  -0.443658
N    -2.055051  -1.723655  4.018167
C    -3.046277  -0.829987  4.640676
H    -1.570554  -2.370433  4.646903
H    -4.050491  -1.004014  4.235962
H    -2.757602  0.220986  4.518682
H    -3.067069  -1.054587  5.710971
Cd    0.616166  -2.418014  0.942777
