35
Energy: -172332.011557 eV PBE+vdW (tier 2 basis)
C    -0.390769  1.019333  -0.533183
C    -0.172328  1.028152  0.940018
O    0.940189  1.439282  1.462316
H    0.438615  0.490547  -1.022954
H    -0.394526  2.057279  -0.903872
H    -1.330161  0.554402  -0.843574
N    -1.069462  0.590270  1.815930
C    -2.372988  -0.038774  1.595821
C    -3.183465  0.336052  2.875275
O    -2.586191  0.444963  3.944117
H    -0.839645  0.699597  2.814476
H    -2.835001  0.404183  0.703905
C    -2.320121  -1.586740  1.402975
C    -1.815838  -2.436663  2.591770
C    -2.909528  -3.030282  3.509373
C    -3.556317  -4.339821  3.048573
N    -2.719579  -5.568312  3.397217
H    -1.681564  -1.753310  0.522527
H    -3.327677  -1.901066  1.090173
H    -1.126633  -1.851063  3.215820
H    -1.188176  -3.242616  2.179581
H    -3.733138  -2.312813  3.633957
H    -2.509939  -3.161478  4.526944
H    -3.720539  -4.384430  1.964281
H    -4.520193  -4.501791  3.544911
H    -3.180242  -6.433516  3.075010
H    -2.590966  -5.657082  4.416573
H    -1.783078  -5.547092  2.969930
N    -4.520034  0.496103  2.729376
C    -5.378409  0.969683  3.805998
H    -4.916268  0.472180  1.790775
H    -4.931817  0.703414  4.769727
H    -5.490543  2.066440  3.766674
H    -6.375458  0.527693  3.684852
Cd    2.388602  2.871884  0.828460
