35
Energy: -172332.071655 eV PBE+vdW (tier 2 basis)
C    -0.354330  -0.420765  -0.521489
C    0.009637  -0.482880  0.922048
O    1.210946  -0.785437  1.309093
H    0.161961  0.433885  -0.988192
H    -1.425211  -0.301940  -0.706263
H    -0.014864  -1.336262  -1.024595
N    -0.854945  -0.272099  1.904006
C    -2.288219  0.031885  1.850674
C    -2.521148  0.904568  3.119240
O    -1.798290  0.720717  4.099691
H    -0.484993  -0.265199  2.866826
H    -2.493044  0.605712  0.939365
C    -3.225314  -1.211145  1.875766
C    -3.178433  -2.094959  3.133364
C    -4.251052  -3.205572  3.090159
C    -4.245359  -4.041116  4.370710
N    -5.321925  -5.118529  4.349887
H    -2.993483  -1.805950  0.978006
H    -4.247688  -0.831468  1.725096
H    -3.334618  -1.480743  4.033727
H    -2.181851  -2.549705  3.242195
H    -4.078617  -3.856994  2.218471
H    -5.243830  -2.746490  2.955303
H    -4.446355  -3.433460  5.261946
H    -3.294813  -4.567960  4.520790
H    -5.310327  -5.673228  5.219622
H    -5.193849  -5.777568  3.567700
H    -6.267002  -4.716581  4.259816
N    -3.524763  1.817911  3.136659
C    -4.351681  2.317832  2.053503
H    -3.554567  2.345824  4.014200
H    -5.347775  2.551896  2.454693
H    -4.452722  1.586602  1.246834
H    -3.940044  3.257211  1.646421
Cd    3.120829  -0.499273  0.409323
