35
Energy: -172332.282285 eV PBE+vdW (tier 2 basis)
C    -0.075148  1.046683  -0.857504
C    0.000567  0.430783  0.487749
O    1.138823  0.362911  1.075241
H    0.656942  0.523437  -1.497196
H    0.261880  2.093216  -0.827637
H    -1.064352  0.964796  -1.316697
N    -1.085063  -0.106242  1.106880
C    -2.378811  0.553893  1.319302
C    -2.182259  1.551623  2.498517
O    -1.220775  1.398990  3.348286
H    -0.847216  -0.765728  1.851693
H    -2.634360  1.116846  0.410535
C    -3.472569  -0.494990  1.655051
C    -3.761426  -1.515875  0.529010
C    -4.835453  -1.103725  -0.504468
C    -6.285603  -1.471867  -0.171057
N    -6.623184  -2.923262  -0.502518
H    -4.388953  0.037974  1.946123
H    -3.149683  -1.028674  2.562688
H    -4.039706  -2.464197  1.013384
H    -2.826271  -1.744376  -0.001679
H    -4.580366  -1.515194  -1.493303
H    -4.827445  -0.013533  -0.656009
H    -6.990343  -0.873456  -0.760262
H    -6.530740  -1.340527  0.890623
H    -7.605558  -3.135642  -0.267500
H    -6.038636  -3.598746  0.010202
H    -6.507465  -3.117455  -1.508960
N    -3.023487  2.544445  2.701732
C    -4.241600  2.910812  1.974240
H    -2.807223  3.118064  3.522664
H    -4.260532  4.001404  1.863924
H    -5.127503  2.602668  2.545249
H    -4.259445  2.457106  0.979847
Cd    0.861478  0.927365  3.133322
