35
Energy: -172332.516150 eV PBE+vdW (tier 2 basis)
C    -1.848611  0.249752  -0.439956
C    -1.032201  0.257096  0.796546
O    0.083389  -0.376613  0.807385
H    -1.998160  -0.805275  -0.727647
H    -1.293891  0.701273  -1.275667
H    -2.826448  0.723805  -0.316708
N    -1.441954  0.877389  1.935609
C    -1.897540  2.269328  2.039586
C    -0.622037  3.162791  1.999352
O    0.540526  2.683194  2.301852
H    -0.950956  0.557768  2.773816
H    -2.514331  2.497317  1.158736
C    -2.706363  2.507355  3.337454
C    -4.107993  1.862288  3.368366
C    -4.871788  2.284520  4.642820
C    -6.373144  1.989474  4.693259
N    -6.726311  0.561288  5.101687
H    -2.814033  3.593187  3.471491
H    -2.102402  2.167512  4.195049
H    -4.018114  0.766667  3.298985
H    -4.675522  2.190010  2.482653
H    -4.805711  3.378825  4.743336
H    -4.378831  1.889265  5.546058
H    -6.871453  2.161932  3.730958
H    -6.858531  2.625129  5.443291
H    -7.750444  0.443215  5.153782
H    -6.351576  0.330517  6.033981
H    -6.376412  -0.144326  4.439775
N    -0.698170  4.445080  1.710420
C    -1.868713  5.281066  1.425343
H    0.201074  4.935718  1.734297
H    -1.621511  5.940480  0.584970
H    -2.106122  5.903563  2.298443
H    -2.735624  4.672938  1.154111
Cd    1.559229  0.883398  1.741206
