35
Energy: -172331.628276 eV PBE+vdW (tier 2 basis)
C    -0.176182  -1.059075  1.378750
C    -0.693907  -0.461898  2.636848
O    0.088775  -0.005127  3.557032
H    0.373521  -0.293462  0.811382
H    0.542136  -1.854553  1.631611
H    -0.955076  -1.498294  0.750283
N    -1.995198  -0.311881  2.915839
C    -3.206746  -0.383140  2.060231
C    -3.506695  -1.891914  1.744940
O    -3.114130  -2.364249  0.679582
H    -2.155671  0.061307  3.855276
H    -4.003589  0.001345  2.709203
C    -3.176202  0.491593  0.790484
C    -4.584059  0.689519  0.158750
C    -4.893083  -0.147135  -1.105125
C    -4.513171  0.478477  -2.447879
N    -5.539567  1.499652  -2.935433
H    -2.479504  0.069835  0.054422
H    -2.776392  1.466970  1.099252
H    -4.705140  1.763137  -0.050478
H    -5.356603  0.478588  0.912756
H    -5.961763  -0.412176  -1.125596
H    -4.368232  -1.111195  -1.056641
H    -4.465949  -0.279598  -3.238396
H    -3.551273  1.006124  -2.421832
H    -5.259269  1.905922  -3.841169
H    -5.665612  2.282303  -2.278121
H    -6.463738  1.063598  -3.074015
N    -4.184965  -2.635251  2.653523
C    -4.910729  -2.233430  3.850548
H    -4.367793  -3.586444  2.321343
H    -4.878406  -3.068017  4.563912
H    -5.970645  -2.033698  3.627001
H    -4.464737  -1.354953  4.324727
Cd    2.082682  -0.508512  4.196700
