35
Energy: -172331.839016 eV PBE+vdW (tier 2 basis)
C    0.051461  -0.777673  0.743115
C    -0.073753  0.429234  1.607016
O    0.936029  0.903564  2.266535
H    -0.900710  -1.154105  0.359618
H    0.542511  -1.582828  1.306600
H    0.686501  -0.534494  -0.124660
N    -1.214914  1.083284  1.791044
C    -2.562054  0.783992  1.302064
C    -3.241689  2.185700  1.213024
O    -2.928146  3.048977  2.030065
H    -1.174225  1.943882  2.356142
H    -2.485065  0.329395  0.305818
C    -3.384585  -0.176908  2.216978
C    -3.727529  0.313684  3.642103
C    -5.115842  0.972699  3.814712
C    -6.301465  0.028420  4.034596
N    -6.432210  -0.429450  5.485232
H    -2.799624  -1.107384  2.269650
H    -4.295861  -0.441939  1.659065
H    -2.965559  1.021519  3.996498
H    -3.630725  -0.549132  4.320113
H    -5.366534  1.572310  2.927999
H    -5.079567  1.706550  4.634826
H    -6.243335  -0.887719  3.432933
H    -7.251627  0.525134  3.806135
H    -7.234219  -1.068029  5.601586
H    -6.589403  0.369728  6.117756
H    -5.597057  -0.928363  5.822420
N    -4.167708  2.356966  0.240278
C    -4.787992  3.644555  -0.039028
H    -4.300120  1.614654  -0.445207
H    -5.802341  3.473518  -0.420855
H    -4.225649  4.193084  -0.813512
H    -4.795473  4.249013  0.874067
Cd    3.037148  0.880357  1.896920
