35
Energy: -172333.051903 eV PBE+vdW (tier 2 basis)
C    1.178549  1.058365  1.012607
C    0.646105  0.174311  2.088092
O    1.496475  -0.512980  2.751520
H    0.401849  1.645330  0.510634
H    1.721284  0.449770  0.275486
H    1.918632  1.741657  1.456257
N    -0.681352  0.157677  2.314864
C    -1.400975  -0.397167  3.477861
C    -1.754706  -1.889017  3.254534
O    -0.889868  -2.805448  3.518146
H    -1.230225  0.723717  1.671447
H    -0.677879  -0.417661  4.310084
C    -2.515128  0.569580  3.973701
C    -3.663764  0.979344  3.025178
C    -4.392992  2.289686  3.419468
C    -5.266729  2.186398  4.672663
N    -6.068758  3.462780  4.891028
H    -1.974602  1.476902  4.284643
H    -2.916036  0.128285  4.897961
H    -4.422969  0.184481  2.942229
H    -3.295174  1.145502  2.001105
H    -5.026698  2.573470  2.565137
H    -3.652231  3.095660  3.542447
H    -4.687592  2.037304  5.592197
H    -6.006700  1.379584  4.593515
H    -5.462297  4.287818  5.014838
H    -6.660421  3.392989  5.733822
H    -6.697027  3.662931  4.097338
N    -2.931932  -2.259576  2.802253
C    -3.324628  -3.657700  2.551503
H    -3.621579  -1.535740  2.621268
H    -2.616876  -4.126445  1.858120
H    -4.325131  -3.658728  2.112010
H    -3.334160  -4.219826  3.493268
Cd    1.172010  -2.361732  3.723767
