35
Energy: -172331.449431 eV PBE+vdW (tier 2 basis)
C    0.338628  0.603247  0.410808
C    0.054326  0.090758  1.779466
O    0.934484  -0.490285  2.512706
H    1.376817  0.955441  0.347961
H    -0.320271  1.422458  0.104366
H    0.235369  -0.217828  -0.318029
N    -1.176736  0.146346  2.319949
C    -2.423383  0.401743  1.604463
C    -3.019446  1.865328  1.784398
O    -3.736280  2.183199  0.836025
H    -1.231850  -0.213356  3.275440
H    -2.191110  0.378555  0.535564
C    -3.536376  -0.653708  1.843188
C    -4.268184  -0.624444  3.195097
C    -5.397033  -1.675003  3.334881
C    -6.662448  -1.341702  2.540884
N    -7.776568  -2.337580  2.836274
H    -3.084428  -1.642805  1.670359
H    -4.244351  -0.488773  1.019024
H    -4.686251  0.377541  3.381072
H    -3.563549  -0.821510  4.017547
H    -5.654162  -1.739176  4.403269
H    -5.019126  -2.667843  3.043077
H    -6.515218  -1.375406  1.454677
H    -7.065201  -0.355532  2.804494
H    -7.510654  -3.301615  2.585472
H    -8.631940  -2.110325  2.306150
H    -8.031258  -2.341693  3.835680
N    -2.789892  2.655527  2.840680
C    -2.079701  2.398668  4.092748
H    -3.240340  3.567950  2.753366
H    -0.990642  2.412598  3.959656
H    -2.400772  1.459580  4.560070
H    -2.338128  3.205816  4.786139
Cd    3.104597  -0.345674  2.573806
