35
Energy: -172331.616842 eV PBE+vdW (tier 2 basis)
C    0.153114  -0.143041  -0.081039
C    -0.157853  0.409370  1.273204
O    0.685558  0.803700  2.074352
H    0.866648  0.511539  -0.597798
H    -0.733397  -0.296719  -0.705856
H    0.663339  -1.109446  0.061645
N    -1.519722  0.476574  1.634174
C    -1.941503  1.069607  2.876976
C    -3.067159  0.181516  3.521589
O    -3.683582  0.699751  4.510509
H    -2.165747  0.536308  0.843047
H    -1.087651  0.979390  3.568550
C    -2.378618  2.551742  2.764258
C    -1.274579  3.549385  2.353000
C    -0.416046  4.188687  3.465235
C    0.769651  3.444841  4.079093
N    1.926795  3.241049  3.110769
H    -2.811347  2.841958  3.733561
H    -3.197945  2.610784  2.031492
H    -1.803851  4.383354  1.868507
H    -0.649716  3.139542  1.543895
H    -1.064453  4.464159  4.311184
H    -0.047799  5.156393  3.086556
H    0.525881  2.444812  4.457130
H    1.174681  4.029259  4.913961
H    2.782458  2.963428  3.613660
H    2.148652  4.104262  2.593596
H    1.713530  2.485194  2.436833
N    -3.267507  -1.031514  3.043650
C    -4.222290  -2.016267  3.541815
H    -2.647247  -1.306388  2.279258
H    -4.063626  -2.961831  3.008869
H    -5.259043  -1.706409  3.339893
H    -4.048192  -2.238225  4.610271
Cd    -5.288319  0.013686  5.797985
