35
Energy: -172330.969730 eV PBE+vdW (tier 2 basis)
C    -2.273728  1.273431  -1.472794
C    -2.170278  1.394155  -0.004449
O    -2.561335  2.383875  0.622226
H    -2.534897  0.256509  -1.795281
H    -1.272444  1.488211  -1.896063
H    -2.972235  2.014519  -1.876086
N    -1.524964  0.346795  0.808185
C    -2.317338  -0.910596  1.053873
C    -3.190584  -0.772654  2.329057
O    -2.911027  0.050095  3.271476
H    -0.632925  0.084693  0.373916
H    -3.002893  -1.062084  0.206174
C    -1.392686  -2.160460  1.125309
C    -0.398693  -2.227840  2.301322
C    0.253383  -3.614050  2.532792
C    1.307864  -4.023801  1.501445
N    1.995629  -5.321118  1.907729
H    -0.878274  -2.229536  0.153513
H    -2.058974  -3.034663  1.162367
H    -0.922785  -1.983927  3.237066
H    0.394027  -1.470301  2.193271
H    -0.533872  -4.382831  2.588437
H    0.725503  -3.581173  3.526789
H    2.108100  -3.278004  1.411683
H    0.890884  -4.208542  0.503848
H    2.708647  -5.601751  1.216292
H    1.329854  -6.104496  1.990450
H    2.475367  -5.232747  2.816978
N    -4.236476  -1.561357  2.492697
C    -4.803890  -2.600136  1.625903
H    -4.722267  -1.416442  3.382694
H    -4.546085  -3.596404  2.007988
H    -4.460487  -2.498314  0.592830
H    -5.895091  -2.494705  1.639724
Cd    -1.910216  1.845791  2.710201
