35
Energy: -172332.984524 eV PBE+vdW (tier 2 basis)
C    -1.682148  1.698307  3.492043
C    -1.172826  0.448535  2.855367
O    -0.134695  0.563898  2.113578
H    -1.844102  2.451980  2.706919
H    -0.906683  2.107440  4.156139
H    -2.611460  1.556486  4.054386
N    -1.834287  -0.698623  3.089370
C    -1.777679  -2.050148  2.462877
C    -0.567751  -2.885776  2.943888
O    0.627995  -2.721693  2.496360
H    -2.596234  -0.588126  3.754902
H    -2.668246  -2.547997  2.871425
C    -1.924948  -2.046027  0.919978
C    -3.255810  -1.437590  0.407718
C    -4.417884  -2.417224  0.104573
C    -4.362883  -2.985061  -1.317146
N    -5.634667  -3.743093  -1.677506
H    -1.803623  -3.086673  0.583068
H    -1.092000  -1.492485  0.461660
H    -3.042836  -0.849721  -0.495807
H    -3.621536  -0.699138  1.134358
H    -5.358357  -1.857925  0.223481
H    -4.450165  -3.235638  0.841755
H    -3.536769  -3.690220  -1.471802
H    -4.276243  -2.185327  -2.063516
H    -5.590045  -4.107362  -2.642176
H    -6.468074  -3.137296  -1.623418
H    -5.802480  -4.549017  -1.057246
N    -0.797002  -3.849898  3.812285
C    0.206065  -4.762766  4.377513
H    -1.758763  -3.999207  4.113858
H    0.078910  -5.761531  3.939565
H    0.049037  -4.825031  5.460537
H    1.209325  -4.391527  4.159886
Cd    1.341863  -0.887523  1.751125
