35
Energy: -172332.012510 eV PBE+vdW (tier 2 basis)
C    -2.584122  2.637266  2.003519
C    -1.792711  1.610504  2.755740
O    -0.579910  1.432812  2.588757
H    -2.093892  2.841314  1.046156
H    -2.565208  3.571832  2.589493
H    -3.630820  2.352937  1.847157
N    -2.480228  0.848760  3.690727
C    -1.965583  -0.322831  4.365870
C    -0.862445  0.042949  5.427288
O    -1.142280  -0.387299  6.600960
H    -3.476778  1.034670  3.793766
H    -2.798167  -0.718891  4.962259
C    -1.458291  -1.480093  3.440326
C    -2.611141  -2.061108  2.601628
C    -2.296355  -3.366227  1.832710
C    -1.466278  -3.178118  0.561813
N    -1.395639  -4.472440  -0.239654
H    -1.041907  -2.258644  4.097252
H    -0.636999  -1.100600  2.816944
H    -2.985483  -1.301847  1.897692
H    -3.453887  -2.294391  3.269320
H    -3.267393  -3.807583  1.557902
H    -1.805803  -4.090038  2.502650
H    -0.426524  -2.890272  0.759229
H    -1.910742  -2.435001  -0.112362
H    -0.960526  -5.237386  0.297430
H    -0.842734  -4.352660  -1.102203
H    -2.333354  -4.795812  -0.522974
N    0.205713  0.706952  5.057831
C    1.301211  1.128023  5.923599
H    0.191959  1.001919  4.052585
H    2.033039  1.671923  5.314641
H    1.827395  0.262694  6.357041
H    0.956738  1.832525  6.699619
Cd    -0.176538  -0.169007  8.523159
