15
Energy: -164977.15623 eV PBE+vdW (tier 2 basis)
N    0.077209  -0.563024  0.028468
C    0.051445  -0.095010  1.467726
C    1.408871  -0.417819  2.126072
O    1.524953  -0.205082  3.370942
H    -0.226077  -1.561949  0.052301
H    1.016872  -0.505982  -0.391308
H    -0.077348  0.996150  1.498213
C    -1.113280  -0.820349  2.154359
O    -0.905464  -2.186134  1.820647
H    -2.066140  -0.428167  1.757172
H    -1.080525  -0.624715  3.236000
H    -1.653673  -2.736022  2.111216
O    2.360319  -0.852724  1.403067
H    -0.584234  -0.031256  -0.555662
Cd    3.632067  -0.887917  3.274786
