15
Energy: -164976.862518 eV PBE+vdW (tier 2 basis)
N    -0.084214  -0.070471  -0.027418
C    -0.018937  -0.088712  1.486379
C    1.458814  -0.060840  1.932413
O    2.336342  0.213370  1.058617
H    -0.992707  0.289446  -0.358810
H    0.045346  -1.010671  -0.433666
H    0.669223  0.526975  -0.408944
H    -0.457230  0.858078  1.843013
C    -0.840710  -1.250229  2.070178
O    -1.033181  -0.934302  3.417700
H    -0.333475  -2.218944  1.913400
H    -1.807376  -1.286298  1.523451
H    -1.246937  -1.731348  3.935938
O    1.715293  -0.268641  3.155523
Cd    3.887422  0.090220  2.772695
