15
Energy: -164976.479876 eV PBE+vdW (tier 2 basis)
N    -0.027059  -1.099766  -0.234609
C    -0.106018  -0.180864  0.964339
C    1.365719  0.162918  1.281942
O    2.246776  -0.442723  0.698109
H    -0.048004  -0.545487  -1.101149
H    0.929616  -1.524832  -0.202083
H    -0.662983  0.722228  0.679777
C    -0.760568  -0.848154  2.181214
O    -2.060327  -1.407298  1.768396
H    -0.944764  -0.084757  2.948187
H    -0.138249  -1.653980  2.597366
H    -2.583400  -1.693528  2.544273
O    1.484772  1.094948  2.200999
H    2.429133  1.303485  2.384686
Cd    -1.780944  -2.446149  -0.169434
