15
Energy: -164976.729571 eV PBE+vdW (tier 2 basis)
N    -0.293571  -1.291407  0.247645
C    -0.049200  -0.396327  1.457373
C    1.471424  -0.224642  1.666956
O    2.066059  -0.443973  2.722994
H    -1.272878  -1.209928  -0.069851
H    0.311885  -1.046793  -0.552704
H    -0.444319  0.597397  1.190730
C    -0.799219  -0.951931  2.679453
O    -0.324718  -2.207615  3.107095
H    -1.865520  -1.096505  2.414119
H    -0.810194  -0.165551  3.453197
H    -0.134175  -2.282889  0.496048
O    2.052436  0.224455  0.574035
H    3.018961  0.370709  0.696726
Cd    1.376411  -2.087536  4.264989
