15
Energy: -164976.4627 eV PBE+vdW (tier 2 basis)
N    -0.415506  -0.223190  0.278345
C    -0.183060  -0.214029  1.773421
C    1.364411  -0.223486  1.937647
O    2.065136  -0.347205  0.956162
H    0.494482  -0.512065  -0.154415
H    -1.178565  -0.856801  0.005219
H    -0.597351  0.714381  2.187404
C    -0.827269  -1.434301  2.464326
O    -2.217752  -1.305597  2.188761
H    -0.580192  -1.351476  3.532801
H    -0.407965  -2.373806  2.066704
H    -0.639975  0.714337  -0.083413
O    1.720081  -0.087723  3.198920
H    2.699764  -0.078213  3.285255
Cd    -3.673242  -2.413828  3.099864
