15
Energy: -164976.268837 eV PBE+vdW (tier 2 basis)
N    -0.020930  -0.539491  -0.383186
C    -0.657621  -0.573931  0.988741
C    0.545769  -0.476609  1.959280
O    1.656337  -0.272133  1.514306
H    0.987183  -0.289143  -0.179127
H    -0.439033  0.161400  -1.008348
H    -1.263884  0.336612  1.103350
C    -1.588919  -1.810387  1.201112
O    -2.623723  -1.316543  2.034242
H    -1.022544  -2.634795  1.660084
H    -1.974994  -2.133921  0.219253
H    -0.028478  -1.448148  -0.866093
O    0.187989  -0.619941  3.223369
H    0.973215  -0.510513  3.804210
Cd    -4.084367  -2.432456  2.890805
