15
Energy: -164975.455331 eV PBE+vdW (tier 2 basis)
N    0.087962  0.273233  -0.056602
C    0.014641  0.119694  1.315930
C    1.422804  0.034911  1.973412
O    2.451275  0.127002  1.375640
H    -0.598892  0.822007  -0.571679
H    0.881272  -0.099759  -0.583321
H    -0.613511  0.894230  1.778275
C    -0.738038  -1.322707  1.644510
O    -1.081378  -1.348630  3.028741
H    -0.054496  -2.132439  1.356139
H    -1.662537  -1.346091  1.061257
H    -0.242090  -1.141978  3.529364
O    1.275310  -0.191330  3.310548
H    2.159743  -0.202136  3.739046
Cd    -2.386992  -2.849343  4.307072
