15
Energy: -164977.368022 eV PBE+vdW (tier 2 basis)
N    -0.722078  -0.894046  0.145400
C    0.026110  -0.183205  1.221115
C    1.445822  -0.777093  1.298954
O    1.675142  -1.987175  1.101321
H    -1.708041  -0.608145  0.131294
H    -0.339462  -0.692374  -0.786131
H    0.102342  0.896783  1.026319
C    -0.697631  -0.391052  2.569984
O    -0.824833  -1.825868  2.781948
H    -1.691546  0.078937  2.535118
H    -0.112276  0.053908  3.386131
H    -1.301363  -2.027862  3.608176
O    2.351191  0.093432  1.627448
H    3.248350  -0.305228  1.723703
Cd    -0.296833  -3.012967  0.893088
