15
Energy: -164976.367969 eV PBE+vdW (tier 2 basis)
N    0.522378  -1.415138  0.104959
C    -0.298764  -0.306221  0.719753
C    0.431016  -0.008561  2.054762
O    1.466208  -0.583310  2.319061
H    0.834710  -1.210491  -0.852687
H    1.357530  -1.485889  0.754265
H    -0.216527  0.585625  0.078867
C    -1.800871  -0.625508  0.839922
O    -1.906575  -1.763143  1.697455
H    -2.226103  -0.821921  -0.156843
H    -2.265833  0.280336  1.257173
H    0.037404  -2.321627  0.108568
O    -0.193881  0.916498  2.764133
H    0.333442  1.142180  3.561592
Cd    -3.653132  -2.411832  2.498019
