15
Energy: -164977.099337 eV PBE+vdW (tier 2 basis)
N    0.030005  -1.031325  0.367208
C    0.107458  -0.190472  1.620566
C    1.546028  0.036431  2.080174
O    2.503187  -0.477868  1.421927
H    0.709791  -1.806004  0.366066
H    -0.941075  -1.425199  0.384514
H    -0.326185  0.790100  1.373249
C    -0.769901  -0.869835  2.698902
O    -1.944234  -1.217199  1.991643
H    -0.949314  -0.137917  3.502721
H    -0.262788  -1.752172  3.127766
H    -2.527869  -1.784864  2.525601
O    1.714509  0.747551  3.120281
H    0.167370  -0.487664  -0.495515
Cd    3.912017  0.501437  2.913894
