15
Energy: -164976.40521 eV PBE+vdW (tier 2 basis)
N    0.059660  1.099003  2.064360
C    0.542311  0.497594  3.299633
C    1.843675  1.272290  3.657295
O    2.655393  0.998957  4.592261
H    -0.909974  1.417150  2.088191
H    0.234157  0.564953  1.210182
H    -0.171066  0.716947  4.112435
C    0.702684  -1.026948  3.188456
O    0.934502  -1.601993  4.537421
H    1.528671  -1.318848  2.524647
H    -0.236263  -1.459977  2.819122
H    0.648356  -2.537518  4.556218
O    2.063525  2.297188  2.932941
H    1.273817  2.266883  2.251605
Cd    2.573169  -0.754481  5.773926
