15
Energy: -164976.380208 eV PBE+vdW (tier 2 basis)
N    -0.497380  1.169082  -0.546612
C    -0.436213  0.764605  0.785969
C    1.126621  0.469297  1.228675
O    1.807071  1.423464  1.650041
H    -0.396468  2.151518  -0.787280
H    -0.423139  0.508422  -1.315547
H    -0.761706  1.571965  1.455308
C    -1.244190  -0.497131  1.119267
O    -0.574077  -1.638376  0.427586
H    -2.258529  -0.426583  0.711970
H    -1.261157  -0.695367  2.198127
H    -0.946953  -2.513191  0.670696
O    1.568796  -0.710625  1.065342
H    0.479640  -1.509139  0.677504
Cd    3.789770  0.400212  1.849328
