15
Energy: -164976.793007 eV PBE+vdW (tier 2 basis)
N    -0.114168  -0.697508  -0.426667
C    0.068885  -1.208212  0.993492
C    0.186039  -0.054116  1.984697
O    0.456243  -0.224135  3.176338
H    -0.335113  -1.479103  -1.064719
H    -0.882051  -0.009958  -0.495870
H    -0.837177  -1.782949  1.240311
C    1.296873  -2.183147  1.082452
O    1.227364  -3.033763  2.181462
H    2.239116  -1.607654  1.010882
H    1.261283  -2.848479  0.195787
H    0.734556  -0.233443  -0.788870
O    -0.024110  1.130201  1.444914
H    0.045519  1.855884  2.107683
Cd    1.331740  -2.203620  4.057110
