15
Energy: -164976.470391 eV PBE+vdW (tier 2 basis)
N    0.340968  1.076109  1.911954
C    0.414364  0.654040  3.368793
C    1.696227  1.365943  3.925360
O    2.189376  0.963369  5.075064
H    -0.623388  1.198750  1.571458
H    0.829536  0.431156  1.274254
H    -0.431858  1.152445  3.867723
C    0.260600  -0.843252  3.615949
O    1.560611  -1.535263  3.568359
H    -0.394178  -1.308737  2.865549
H    -0.200525  -0.997014  4.599865
H    1.427696  -2.461399  3.286961
O    2.105323  2.329049  3.308529
H    0.848660  1.992679  1.871516
Cd    2.943590  -0.932874  5.343667
