15
Energy: -164976.030859 eV PBE+vdW (tier 2 basis)
N    -0.181260  -0.065442  -0.073727
C    -0.082803  -0.004334  1.315960
C    1.341017  0.119395  1.852205
O    1.599481  -0.197086  3.050211
H    -0.917443  0.438171  -0.560798
H    0.334874  -0.749852  -0.621385
H    -0.617744  0.883511  1.694810
C    -0.789529  -1.291434  2.024409
O    -0.593690  -1.154344  3.417804
H    -0.327817  -2.202569  1.613411
H    -1.847637  -1.236514  1.742221
H    0.697972  -0.661938  3.457161
O    2.236059  0.580380  1.051793
H    3.124170  0.671212  1.473610
Cd    -1.483449  -2.314951  4.982094
