15
Energy: -164976.410771 eV PBE+vdW (tier 2 basis)
N    0.586539  -0.670670  -0.348174
C    -0.445854  -0.430562  0.737696
C    0.366818  -0.340045  2.035841
O    1.565225  -0.299025  2.060307
H    0.365739  -0.164988  -1.218259
H    1.512382  -0.353651  0.010997
H    -0.904137  0.551108  0.543790
C    -1.564359  -1.511926  0.712511
O    -2.742470  -1.106187  1.331604
H    -1.175123  -2.485100  1.064685
H    -1.864165  -1.659735  -0.347436
H    0.686286  -1.671292  -0.581901
O    -0.410161  -0.294603  3.170864
H    0.203938  -0.188243  3.934874
Cd    -2.899658  -0.889082  3.357600
