25
Energy: -105801.1095825  eV PBE+vdW (tier 2 basis)
 C    0.65631    0.87742   -0.18665
 C   -0.02402   -0.31744    0.40463
 O    0.26083   -1.47232    0.00893
 H    1.74395    0.74654   -0.11284
 H    0.40820    0.92380   -1.25651
 H    0.36910    1.82204    0.28756
 N   -0.94154   -0.09293    1.37900
 C   -1.77799   -1.02630    2.15183
 C   -0.93568   -2.15557    2.80264
 O   -0.40258   -3.05040    2.10675
 H   -1.04011    0.88224    1.65081
 H   -2.17905   -0.40587    2.96351
 C   -3.03897   -1.56701    1.40475
 C   -2.72966   -2.60378    0.36533
 O   -2.69822   -3.84696    0.64438
 O   -2.33163   -2.29956   -0.80369
 H   -3.55281   -0.71505    0.93692
 H   -3.71381   -2.00733    2.15367
 N   -0.82459   -2.12823    4.13334
 C   -0.13061   -3.13285    4.93108
 H   -1.30413   -1.38667    4.64021
 H    0.56787   -3.68448    4.29687
 H   -0.85499   -3.83466    5.37142
 H    0.40482   -2.62990    5.74498
Sr   -0.34068   -3.77575   -0.26291
