25
Energy: -105800.5465638  eV PBE+vdW (tier 2 basis)
 C    0.57340   -1.60159    2.78968
 C   -0.00802   -0.25353    2.92839
 O    0.59923    0.81201    2.78213
 H    1.49025   -1.58238    2.19162
 H    0.82949   -1.95307    3.80649
 H   -0.14871   -2.32831    2.39325
 N   -1.37941   -0.12807    3.30033
 C   -2.47260   -0.43247    2.38370
 C   -2.01141   -0.41266    0.89533
 O   -1.19359    0.45634    0.50999
 H   -1.54478    0.73723    3.84624
 H   -2.87914   -1.43339    2.62111
 C   -3.59378    0.64410    2.57279
 C   -2.93716    1.98048    2.28980
 O   -2.06292    2.39413    3.14154
 O   -3.02765    2.59212    1.19066
 H   -3.96059    0.59840    3.60722
 H   -4.42868    0.45870    1.88727
 N   -2.57646   -1.30542    0.08642
 C   -2.40561   -1.34005   -1.36428
 H   -3.23199   -1.97135    0.49267
 H   -2.36929   -2.38637   -1.68917
 H   -3.25629   -0.84920   -1.85916
 H   -1.47925   -0.82719   -1.63467
Sr   -0.47705    2.68953    1.26765
