25
Energy: -105800.5513703  eV PBE+vdW (tier 2 basis)
 C    0.88717    0.06636    0.30641
 C   -0.18448   -0.14095    1.35018
 O   -1.35138    0.20358    1.13405
 H    1.33552    1.05909    0.46049
 H    0.43601    0.04393   -0.69005
 H    1.66730   -0.70262    0.38984
 N    0.18300   -0.70659    2.54112
 C   -0.62099   -0.70906    3.75675
 C   -1.46260   -1.97951    4.05965
 O   -1.83439   -2.10182    5.26827
 H    1.18183   -0.85515    2.66781
 H    0.10424   -0.70028    4.58319
 C   -1.48792    0.58262    3.90582
 C   -2.14167    0.61854    5.25569
 O   -3.39391    0.43167    5.38884
 O   -1.43247    0.68773    6.31371
 H   -2.25738    0.61486    3.11518
 H   -0.83255    1.45757    3.79252
 N   -1.78350   -2.92123    3.18399
 C   -1.60322   -3.02458    1.73084
 H   -2.30014   -3.68843    3.61556
 H   -1.98031   -2.12908    1.22570
 H   -2.19533   -3.87924    1.39229
 H   -0.55444   -3.20552    1.47254
Sr   -2.82438   -1.10688    7.19661
