25
Energy: -105800.5466192  eV PBE+vdW (tier 2 basis)
 C    0.68559   -1.59010    1.10589
 C    0.33266   -0.17496    1.32309
 O    0.78528    0.78604    0.69298
 H   -0.15897   -2.26493    1.30128
 H    1.10164   -1.74995    0.10586
 H    1.46049   -1.85160    1.85037
 N   -0.57903    0.15648    2.36904
 C   -2.00930   -0.11552    2.28004
 C   -2.47677   -0.31903    0.80742
 O   -1.99264    0.39520   -0.10243
 H   -0.37414    1.09173    2.76589
 H   -2.24363   -1.02726    2.86085
 C   -2.78506    1.10248    2.88545
 C   -2.35941    2.30961    2.07372
 O   -3.03746    2.79932    1.12985
 O   -1.14202    2.70855    2.21412
 H   -2.49964    1.21806    3.93989
 H   -3.86757    0.94280    2.82188
 N   -3.43433   -1.22121    0.60779
 C   -4.12153   -1.43886   -0.66320
 H   -3.76565   -1.75263    1.41155
 H   -5.08255   -0.90421   -0.67244
 H   -4.31776   -2.51128   -0.77749
 H   -3.49473   -1.07916   -1.48297
Sr   -0.89447    2.59745   -0.24344
