25
Energy: -105801.0803092  eV PBE+vdW (tier 2 basis)
 C   -1.82734    1.04632    1.00179
 C   -1.60111    0.15965    2.18252
 O   -2.55882   -0.33327    2.82849
 H   -2.53394    0.56046    0.31680
 H   -0.90987    1.30121    0.46195
 H   -2.30326    1.97406    1.35226
 N   -0.31640   -0.08227    2.54874
 C    0.11220   -0.85599    3.71587
 C   -0.50731   -2.27347    3.74470
 O   -1.53391   -2.53069    4.43053
 H    0.40680    0.41523    2.03515
 H    1.19592   -1.00969    3.56662
 C    0.07571   -0.11550    5.06551
 C   -1.31343    0.76193    5.29500
 O   -1.14984    1.88968    4.85352
 O   -2.23295    0.11576    5.84582
 H    0.87149    0.63251    5.11564
 H    0.12844   -0.80187    5.91931
 N    0.10223   -3.22870    3.05026
 C    1.30942   -3.14332    2.21979
 H   -0.32145   -4.15189    3.15200
 H    1.24448   -2.31360    1.50675
 H    1.38863   -4.07099    1.64582
 H    2.21184   -3.04725    2.83827
Sr   -3.59953   -1.43729    4.65087
