25
Energy: -105800.4982806  eV PBE+vdW (tier 2 basis)
 C   -0.08552   -1.13693    0.49668
 C   -0.26865    0.25496    0.96803
 O    0.52636    1.17986    0.68501
 H   -0.87812   -1.80958    0.84658
 H    0.00146   -1.17106   -0.59748
 H    0.87540   -1.49240    0.90375
 N   -1.34312    0.60433    1.77915
 C   -2.74109    0.37052    1.48788
 C   -3.30913   -0.98723    2.09870
 O   -2.65839   -2.01760    2.03316
 H   -1.18281    1.49903    2.24453
 H   -3.27249    1.19804    1.97266
 C   -3.08970    0.35855   -0.03207
 C   -2.26527    1.47213   -0.70855
 O   -1.56648    1.13994   -1.71549
 O   -2.18144    2.61834   -0.16534
 H   -4.16298    0.55049   -0.16852
 H   -2.85109   -0.59993   -0.50440
 N   -4.54098   -0.88937    2.64182
 C   -5.15449   -1.99241    3.37033
 H   -4.96198    0.03291    2.73610
 H   -6.24285   -1.86294    3.33202
 H   -4.84417   -1.99966    4.42758
 H   -4.84383   -2.93850    2.91091
Sr    0.03491    2.85766   -1.08278
