25
Energy: -105800.4983475  eV PBE+vdW (tier 2 basis)
 C    0.63662    0.56996    0.91802
 C   -0.21331    0.75247    2.11715
 O    0.03027    1.60538    3.00073
 H    0.71881    1.50803    0.35210
 H    1.65060    0.32269    1.27261
 H    0.28539   -0.24414    0.27196
 N   -1.33491   -0.04139    2.33194
 C   -2.43262   -0.23203    1.40852
 C   -2.26943   -1.50502    0.46467
 O   -1.19273   -1.76614   -0.04701
 H   -1.64336    0.00560    3.30429
 H   -3.30948   -0.40261    2.04426
 C   -2.70697    0.98592    0.47394
 C   -2.52470    2.26774    1.31183
 O   -3.02146    2.33780    2.47973
 O   -1.73841    3.15052    0.84830
 H   -3.73395    0.93373    0.08670
 H   -2.02126    1.01646   -0.37909
 N   -3.40243   -2.21374    0.27349
 C   -3.40876   -3.48307   -0.44219
 H   -4.22690   -1.97475    0.82113
 H   -3.17086   -4.32490    0.22784
 H   -4.41527   -3.64064   -0.84838
 H   -2.65330   -3.44765   -1.23635
Sr   -1.19358    3.76576    3.13681
