25
Energy: -105801.1692438  eV PBE+vdW (tier 2 basis)
 C    1.17972   -1.90346    1.88434
 C   -0.10940   -1.15174    1.91536
 O   -0.93775   -1.29626    2.84845
 H    1.84640   -1.59980    1.07098
 H    0.95409   -2.97481    1.77896
 H    1.69311   -1.77598    2.84631
 N   -0.37291   -0.30897    0.88260
 C   -1.60816    0.45409    0.69880
 C   -1.96261    1.31129    1.94240
 O   -2.80243    0.93788    2.79952
 H    0.29553   -0.29817    0.11570
 H   -1.37587    1.17850   -0.10332
 C   -2.79928   -0.32324    0.10000
 C   -2.98823   -1.81112    0.76614
 O   -2.30620   -2.62504    0.15625
 O   -3.75807   -1.83830    1.75692
 H   -2.63172   -0.51582   -0.96348
 H   -3.75055    0.20095    0.25208
 N   -1.35286    2.49267    2.01523
 C   -1.58957    3.49059    3.05724
 H   -0.67112    2.72937    1.29729
 H   -0.80880    3.42931    3.82855
 H   -2.56895    3.31690    3.51069
 H   -1.56035    4.48756    2.60498
Sr   -3.05403   -1.13037    3.91000
