25
Energy: -105800.5767760  eV PBE+vdW (tier 2 basis)
 C   -0.07228    0.46502    0.07003
 C   -0.57813   -0.16296    1.34135
 O   -1.75130   -0.54143    1.46348
 H    1.00707    0.30781   -0.05253
 H   -0.27468    1.54574    0.11401
 H   -0.61765    0.05305   -0.78484
 N    0.28541   -0.31483    2.38902
 C   -0.18897   -0.66603    3.72268
 C   -1.14366   -1.88629    3.72214
 O   -2.14014   -1.92998    4.49112
 H    1.22295    0.07107    2.29989
 H    0.69454   -0.98125    4.30243
 C   -0.80544    0.59464    4.39850
 C   -1.43978    0.30640    5.72638
 O   -2.62170    0.71900    5.97044
 O   -0.89616   -0.46086    6.59051
 H   -1.56684    1.03633    3.74307
 H   -0.00544    1.33708    4.53814
 N   -0.86171   -2.96937    2.97795
 C    0.29126   -3.29527    2.15051
 H   -1.58589   -3.68716    3.03719
 H    0.10633   -3.03009    1.09804
 H    0.44793   -4.37899    2.20050
 H    1.19381   -2.78822    2.50179
Sr   -3.08353   -1.54243    6.67420
