25
Energy: -105801.1009971  eV PBE+vdW (tier 2 basis)
 C    0.50557   -0.54096    0.85739
 C   -0.06052   -0.18346    2.19321
 O    0.32715   -0.75084    3.24863
 H    0.34242   -1.61422    0.68452
 H    1.59194   -0.37857    0.86533
 H    0.06620    0.02497    0.02987
 N   -1.01159    0.77950    2.22422
 C   -1.76775    1.22853    3.37418
 C   -3.02911    1.94479    2.81079
 O   -3.02140    2.39558    1.67454
 H   -1.26854    1.23286    1.34384
 H   -2.04373    0.36562    3.99693
 C   -1.02703    2.27891    4.26690
 C    0.01315    1.52103    5.07354
 O   -0.36188    0.62322    5.89647
 O    1.23975    1.70319    4.82107
 H   -1.72228    2.75212    4.97692
 H   -0.57662    3.05655    3.63883
 N   -4.09317    2.05527    3.65603
 C   -5.35869    2.61258    3.23313
 H   -4.06238    1.55618    4.54529
 H   -5.86701    3.03796    4.10834
 H   -6.02102    1.83277    2.81195
 H   -5.18011    3.35794    2.44798
Sr    1.51065   -0.74152    5.28409
