25
Energy: -105800.5157185  eV PBE+vdW (tier 2 basis)
 C    0.35984   -1.16553    0.43545
 C   -0.07071   -0.53110    1.71051
 O    0.67473   -0.49066    2.72827
 H   -0.23277   -0.84113   -0.42611
 H    0.29574   -2.26064    0.52861
 H    1.41653   -0.92398    0.26379
 N   -1.31119    0.02106    1.83780
 C   -2.55728   -0.53603    1.33562
 C   -3.66484    0.37561    1.91705
 O   -3.45688    0.95864    2.98084
 H   -1.46281    0.52393    2.72023
 H   -2.56744   -0.55302    0.24011
 C   -2.82194   -2.00019    1.88101
 C   -2.02580   -2.22788    3.14786
 O   -1.09183   -3.08919    3.14865
 O   -2.16540   -1.47320    4.16772
 H   -2.48577   -2.72031    1.12305
 H   -3.89150   -2.17681    2.06384
 N   -4.85898    0.48309    1.27733
 C   -5.20878    0.09528   -0.07509
 H   -5.50714    1.11409    1.75835
 H   -4.97316    0.89891   -0.79508
 H   -6.29451   -0.06487   -0.11278
 H   -4.69396   -0.82234   -0.37676
Sr    0.23984   -1.74176    4.72975
