25
Energy: -105800.8084720  eV PBE+vdW (tier 2 basis)
 C   -0.19093    0.92441    0.02670
 C   -0.99096    0.73910    1.28330
 O   -1.64927    1.63491    1.80631
 H   -0.76227    0.47719   -0.80325
 H   -0.06219    1.99130   -0.17646
 H    0.78692    0.42908    0.08462
 N   -0.98740   -0.51782    1.88102
 C   -1.84011   -0.81023    2.99860
 C   -1.24556   -0.49019    4.40997
 O   -2.00378   -0.56371    5.41391
 H   -0.41140   -1.25065    1.46798
 H   -2.70051   -0.11680    2.92565
 C   -2.34765   -2.27634    2.94643
 C   -3.45036   -2.39615    3.97060
 O   -3.41370   -3.24717    4.90599
 O   -4.37955   -1.51018    3.98916
 H   -1.55497   -3.00654    3.14812
 H   -2.76945   -2.46798    1.94888
 N    0.02802   -0.14875    4.49540
 C    0.72706    0.18455    5.73902
 H    0.56300   -0.13202    3.63066
 H    1.15306   -0.71836    6.19519
 H    1.53630    0.88322    5.50537
 H    0.02817    0.65443    6.43653
Sr   -4.06948   -1.37531    6.36531
