25
Energy: -105800.4962584  eV PBE+vdW (tier 2 basis)
 C    0.09865   -0.18145   -0.32752
 C   -0.07809    0.36947    1.03477
 O    0.67367    1.23912    1.52769
 H    0.34274    0.60978   -1.04557
 H    0.97073   -0.85762   -0.28236
 H   -0.76056   -0.76904   -0.67353
 N   -1.09487   -0.09109    1.86798
 C   -2.51611   -0.11727    1.53963
 C   -2.89534   -1.54850    0.94864
 O   -2.68351   -1.78304   -0.23280
 H   -0.91181    0.13799    2.84647
 H   -3.03139   -0.00546    2.50145
 C   -2.97375    0.99779    0.56746
 C   -2.23204    2.28088    0.91781
 O   -1.57822    2.87966    0.00510
 O   -2.13688    2.65662    2.13463
 H   -4.05751    1.14812    0.67674
 H   -2.77520    0.72781   -0.47528
 N   -3.42406   -2.42362    1.82578
 C   -3.97548   -3.70621    1.40594
 H   -3.63614   -2.10056    2.76758
 H   -5.02874   -3.60895    1.09742
 H   -3.92748   -4.39511    2.25764
 H   -3.39712   -4.07987    0.55239
Sr    0.01203    3.64413    1.66137
