25
Energy: -105800.6147684  eV PBE+vdW (tier 2 basis)
 C    0.44966    0.49177    0.05075
 C    0.28427    0.06704    1.47784
 O    1.21281   -0.16864    2.24473
 H   -0.24679   -0.02806   -0.61990
 H    1.48125    0.32219   -0.27068
 H    0.23782    1.57268   -0.00334
 N   -1.01581   -0.07134    1.96927
 C   -1.24625   -0.37968    3.34518
 C   -1.02292   -1.85127    3.84498
 O   -0.84473   -1.99457    5.08614
 H   -1.79093   -0.04982    1.30796
 H   -0.46170    0.16161    3.90987
 C   -2.64381    0.11620    3.81037
 C   -2.59251    0.13102    5.32260
 O   -3.38325   -0.55331    6.03110
 O   -1.61041    0.72892    5.89496
 H   -3.46450   -0.51602    3.45305
 H   -2.79212    1.14489    3.45067
 N   -1.02877   -2.90409    3.03900
 C   -1.28298   -3.02443    1.59989
 H   -0.82273   -3.77734    3.52553
 H   -1.45859   -4.08426    1.38937
 H   -0.41711   -2.70212    1.00909
 H   -2.18523   -2.47977    1.30390
Sr   -1.35667   -1.19360    7.30167
