25
Energy: -105800.5860946  eV PBE+vdW (tier 2 basis)
 C   -1.30360   -1.09368   -0.51586
 C   -0.82066   -0.96611    0.88784
 O   -0.11663   -1.84001    1.43675
 H   -2.19093   -1.74652   -0.53961
 H   -0.52367   -1.58529   -1.10972
 H   -1.56626   -0.13630   -0.97844
 N   -1.17276    0.13828    1.64901
 C   -2.54217    0.63476    1.68237
 C   -2.54910    2.19312    1.82853
 O   -3.32759    2.73751    2.59518
 H   -0.69622    0.15396    2.55652
 H   -3.02210    0.38840    0.72581
 C   -3.35516   -0.00108    2.85923
 C   -2.82501   -1.39823    3.10090
 O   -3.05418   -2.33924    2.27052
 O   -2.00982   -1.59169    4.06483
 H   -4.42098   -0.02043    2.60238
 H   -3.21850    0.60768    3.76333
 N   -1.66726    2.88005    1.04923
 C   -1.66071    4.32617    0.97463
 H   -1.14331    2.35607    0.34937
 H   -1.95807    4.73921    1.94674
 H   -2.37894    4.69394    0.21908
 H   -0.65947    4.65725    0.67143
Sr   -1.03591   -3.51784    2.99294
