25
Energy: -105800.6770612  eV PBE+vdW (tier 2 basis)
 C    0.84903   -0.66886    0.57585
 C    0.44340    0.12628    1.77169
 O    1.26629    0.55808    2.60641
 H    0.03372   -0.84551   -0.13339
 H    1.22011   -1.64396    0.92979
 H    1.68354   -0.17670    0.06159
 N   -0.89878    0.38192    1.92772
 C   -1.48167    0.97184    3.10008
 C   -2.85956    0.23794    3.44182
 O   -2.73659   -0.46725    4.44246
 H   -1.50047    0.11420    1.15154
 H   -0.83913    0.72109    3.95415
 C   -1.65679    2.51451    3.09548
 C   -0.20907    3.02856    3.30481
 O    0.42786    3.39009    2.27410
 O    0.29159    2.90287    4.46160
 H   -2.26445    2.83380    3.95205
 H   -2.07530    2.89478    2.15991
 N   -3.96330    0.37067    2.71230
 C   -4.24967    1.23676    1.56424
 H   -4.75342   -0.16458    3.07707
 H   -5.00744    0.73909    0.95009
 H   -4.64248    2.20770    1.89189
 H   -3.36634    1.39481    0.93758
Sr    2.41092    2.51088    3.47418
