25
Energy: -105801.1074457  eV PBE+vdW (tier 2 basis)
 C    1.02601   -2.27126    1.54271
 C   -0.23391   -1.47150    1.65753
 O   -1.05361   -1.70326    2.57728
 H    1.71623   -1.89141    0.78178
 H    0.75470   -3.30716    1.29192
 H    1.52998   -2.29628    2.51726
 N   -0.43910   -0.49831    0.73432
 C   -1.55630    0.44459    0.55684
 C   -1.87664    1.21558    1.86468
 O   -2.40274    0.63906    2.84468
 H    0.32368   -0.37446    0.07287
 H   -1.17051    1.17246   -0.16838
 C   -2.83151   -0.15157   -0.12004
 C   -3.63755   -1.04054    0.78025
 O   -3.33635   -2.25932    0.98413
 O   -4.57737   -0.58449    1.51045
 H   -2.51644   -0.71490   -1.01020
 H   -3.46449    0.68592   -0.44886
 N   -1.57685    2.51723    1.87903
 C   -1.85234    3.42769    2.98395
 H   -1.16180    2.92244    1.04199
 H   -0.94183    3.99571    3.21563
 H   -2.17678    2.85634    3.85599
 H   -2.63891    4.13964    2.69397
Sr   -3.28758   -1.59819    3.43424
