25
Energy: -105801.0041633  eV PBE+vdW (tier 2 basis)
 C   -0.21806    0.25934    0.15668
 C   -0.07168   -0.34780    1.51781
 O    1.02072   -0.85003    1.87235
 H   -0.06369   -0.52927   -0.59342
 H    0.57283    1.00643    0.00820
 H   -1.19584    0.72448   -0.00965
 N   -1.15715   -0.31843    2.33100
 C   -1.35648   -0.81755    3.70210
 C   -0.24742   -0.32149    4.66048
 O    0.92085   -0.77257    4.57261
 H   -1.96572    0.15626    1.93732
 H   -2.29958   -0.35602    4.01472
 C   -1.60590   -2.35431    3.82805
 C   -0.38036   -3.18913    3.60069
 O    0.05384   -3.45855    2.43590
 O    0.38003   -3.54697    4.55886
 H   -2.38226   -2.63381    3.10144
 H   -1.99165   -2.55721    4.83784
 N   -0.55239    0.57928    5.59868
 C   -1.83880    1.21039    5.89792
 H    0.22964    0.81387    6.21335
 H   -2.55392    0.48473    6.31175
 H   -2.26435    1.68939    5.00728
 H   -1.66608    1.98324    6.65258
Sr    2.21943   -2.40627    3.25146
