25
Energy: -105800.8051809  eV PBE+vdW (tier 2 basis)
 C   -1.80412    2.42390    0.22317
 C   -1.21911    1.85347    1.47719
 O   -0.00536    1.72698    1.67003
 H   -2.73523    2.97430    0.40734
 H   -2.02873    1.57918   -0.44876
 H   -1.07257    3.06735   -0.27511
 N   -2.08761    1.46288    2.48393
 C   -1.73344    0.68370    3.64853
 C   -0.88337    1.39025    4.74640
 O   -0.79704    0.84857    5.87867
 H   -3.05089    1.78757    2.41623
 H   -2.68539    0.45977    4.15604
 C   -1.07852   -0.68704    3.28008
 C   -1.10349   -1.53070    4.53005
 O   -0.03872   -1.99179    5.04258
 O   -2.19901   -1.65499    5.18723
 H   -0.05771   -0.57786    2.90316
 H   -1.69982   -1.16611    2.51018
 N   -0.26499    2.53301    4.45727
 C    0.63370    3.23846    5.36239
 H   -0.29247    2.85253    3.49094
 H    1.67703    2.94108    5.17867
 H    0.36737    3.00612    6.39700
 H    0.54144    4.31431    5.17650
Sr   -0.92896   -1.21695    7.17130
