25
Energy: -105800.6522260  eV PBE+vdW (tier 2 basis)
 C   -0.18231   -1.75437   -0.02177
 C    0.13654   -0.66282    0.95234
 O    1.22903   -0.52926    1.48209
 H   -0.73087   -2.55934    0.49138
 H   -0.78521   -1.37895   -0.85959
 H    0.75477   -2.17689   -0.39809
 N   -0.85018    0.27599    1.32167
 C   -2.26768    0.03110    1.33121
 C   -3.04710    0.97327    0.33874
 O   -4.28654    0.81222    0.20613
 H   -0.49152    0.92705    2.02804
 H   -2.47019   -0.98011    0.94396
 C   -2.85618    0.13596    2.76802
 C   -4.31557   -0.24116    2.72120
 O   -5.21889    0.55907    3.11122
 O   -4.65939   -1.32684    2.13098
 H   -2.74040    1.14561    3.18161
 H   -2.31930   -0.57603    3.41178
 N   -2.35264    1.87991   -0.32436
 C   -2.91242    2.83833   -1.28104
 H   -1.35270    1.91708   -0.13189
 H   -2.12793    3.11528   -1.99193
 H   -3.74771    2.37956   -1.81827
 H   -3.25862    3.74108   -0.76122
Sr   -6.40599   -0.05175    1.09477
