25
Energy: -105800.5484403  eV PBE+vdW (tier 2 basis)
 C   -0.27779   -1.44441   -0.14045
 C   -0.52247   -1.46116    1.32397
 O   -0.34396   -2.46434    2.04461
 H   -0.25634   -0.43214   -0.55944
 H   -1.04161   -2.04316   -0.66089
 H    0.68624   -1.93856   -0.32776
 N   -0.99322   -0.31250    1.95539
 C   -2.14755    0.37421    1.44545
 C   -1.83048    1.94579    1.23552
 O   -1.31135    2.17722    0.15166
 H   -0.91051   -0.34727    2.97627
 H   -2.33919    0.02726    0.42564
 C   -3.40735    0.10675    2.31484
 C   -3.31895   -1.40138    2.66578
 O   -3.46495   -2.26357    1.74979
 O   -2.93114   -1.68424    3.84416
 H   -4.31242    0.33986    1.74106
 H   -3.41538    0.65886    3.26182
 N   -2.12582    2.82214    2.18962
 C   -1.73109    4.23460    2.11114
 H   -2.53309    2.48575    3.05732
 H   -1.73401    4.54501    1.06044
 H   -0.72692    4.38584    2.52944
 H   -2.45394    4.82158    2.68758
Sr   -2.14270   -3.83112    3.06504
