25
Energy: -105800.9708167  eV PBE+vdW (tier 2 basis)
 C    0.17300   -0.32990    0.20513
 C   -0.01594   -0.00922    1.65208
 O    0.96631    0.18639    2.41859
 H   -0.76680   -0.45819   -0.34112
 H    0.76086   -1.25572    0.12677
 H    0.76086    0.46514   -0.27266
 N   -1.28474    0.05913    2.11167
 C   -1.70193    0.26229    3.48656
 C   -3.17331   -0.20820    3.57140
 O   -3.85684   -0.25312    2.55526
 H   -2.04942   -0.07788    1.44683
 H   -1.05505   -0.32245    4.15355
 C   -1.68665    1.75955    3.94570
 C   -0.24993    2.12622    4.24610
 O    0.39615    1.47416    5.13399
 O    0.34727    2.98654    3.53517
 H   -2.27157    1.89265    4.86808
 H   -2.11817    2.39712    3.16509
 N   -3.70531   -0.52814    4.79011
 C   -3.02379   -0.84898    6.02554
 H   -4.68918   -0.80850    4.72178
 H   -3.68412   -0.57411    6.86120
 H   -2.07064   -0.31914    6.11503
 H   -2.84534   -1.93660    6.10698
Sr    2.36372    1.53598    3.73142
