25
Energy: -105800.3230077  eV PBE+vdW (tier 2 basis)
 C    0.09896    0.40444   -0.29332
 C    0.14389    0.11291    1.16175
 O    1.21186    0.02885    1.81045
 H   -0.18499    1.45415   -0.46643
 H    1.09306    0.24859   -0.72436
 H   -0.63766   -0.22461   -0.80847
 N   -1.02047   -0.08545    1.89339
 C   -2.18719    0.79577    1.91020
 C   -3.14098    0.42258    0.70913
 O   -3.08246    1.07055   -0.32749
 H   -0.81780   -0.49851    2.80517
 H   -2.70461    0.56498    2.84759
 C   -1.84884    2.31306    1.86386
 C   -0.53635    2.55779    2.58177
 O    0.42528    3.09643    1.94282
 O   -0.33513    2.09543    3.75482
 H   -2.65631    2.87841    2.35057
 H   -1.77661    2.65936    0.82575
 N   -3.99225   -0.62572    0.86168
 C   -4.36929   -1.33295    2.07490
 H   -4.62585   -0.73160    0.06423
 H   -4.79999   -2.29723    1.77465
 H   -5.14557   -0.78906    2.63821
 H   -3.50417   -1.52249    2.71648
Sr    2.03346    1.85870    3.26761
