25
Energy: -105800.8079717  eV PBE+vdW (tier 2 basis)
 C    0.53455    0.63355    0.76702
 C   -0.17989    0.99211    2.03769
 O   -0.03654    2.06741    2.61478
 H   -0.15908    0.82399   -0.06839
 H    0.83149   -0.42262    0.74250
 H    1.41005    1.27688    0.63943
 N   -1.05445    0.05718    2.58256
 C   -1.88361    0.38348    3.70885
 C   -1.24406    0.13984    5.11566
 O   -1.85072    0.56545    6.13503
 H   -1.14534   -0.84813    2.12279
 H   -2.02775    1.48103    3.68528
 C   -3.26230   -0.32340    3.61167
 C   -4.15146    0.30130    4.65960
 O   -4.71624   -0.38316    5.56128
 O   -4.21609    1.58132    4.73660
 H   -3.19393   -1.40728    3.76276
 H   -3.69155   -0.12380    2.61891
 N   -0.08823   -0.49686    5.18161
 C    0.63880   -0.79253    6.41863
 H    0.31642   -0.81599    4.30486
 H    1.70719   -0.84624    6.18809
 H    0.31282   -1.75353    6.83701
 H    0.46178    0.00447    7.14653
Sr   -3.91386    1.35751    7.10725
