25
Energy: -105800.8723568  eV PBE+vdW (tier 2 basis)
 C   -1.46267   -0.39248   -0.64723
 C   -0.93667   -0.39719    0.75754
 O    0.26424   -0.56329    1.01756
 H   -2.51096   -0.71132   -0.69304
 H   -1.38888    0.64015   -1.02388
 H   -0.83928   -1.02894   -1.28305
 N   -1.80278   -0.18041    1.79647
 C   -1.31022   -0.05345    3.15675
 C   -0.93325   -1.45486    3.74903
 O   -1.80180   -2.23648    4.21298
 H   -2.81462   -0.19999    1.65108
 H   -0.36897    0.51791    3.09707
 C   -2.30419    0.72003    4.04392
 C   -3.53295   -0.10930    4.32366
 O   -4.13917   -0.69278    3.35306
 O   -3.87811   -0.38154    5.51491
 H   -2.58405    1.65245    3.53177
 H   -1.82647    0.99130    4.99305
 N    0.36288   -1.75750    3.70228
 C    0.95134   -3.02443    4.11418
 H    0.97807   -1.08296    3.24643
 H    1.18465   -3.63927    3.23189
 H    1.88678   -2.82072    4.64957
 H    0.25246   -3.56228    4.75945
Sr   -4.13437   -2.64861    4.81153
