25
Energy: -105800.4963856  eV PBE+vdW (tier 2 basis)
 C   -0.29405    1.23663    0.11856
 C   -0.17666    0.94172    1.56428
 O    0.42058    1.68685    2.37187
 H    0.69903    1.04142   -0.32352
 H   -0.51884    2.29569   -0.05214
 H   -1.02002    0.59653   -0.39790
 N   -0.70842   -0.22792    2.10255
 C   -2.09477   -0.66429    1.98286
 C   -2.23461   -1.65182    0.73796
 O   -2.33658   -1.18313   -0.38715
 H   -0.29494   -0.44601    3.01085
 H   -2.28883   -1.24535    2.89280
 C   -3.12531    0.48535    1.86567
 C   -2.69582    1.61700    2.79035
 O   -2.32813    1.36459    3.98703
 O   -2.55736    2.78513    2.30539
 H   -4.11588    0.11208    2.16296
 H   -3.19994    0.85554    0.83764
 N   -2.21787   -2.96669    1.02789
 C   -2.50524   -3.98659    0.02612
 H   -2.21278   -3.24916    2.00578
 H   -2.01486   -4.91747    0.33481
 H   -2.13699   -3.64240   -0.94767
 H   -3.58752   -4.17502   -0.05627
Sr   -0.80217    3.23033    3.91026
