17
Energy: -604087.380961 eV PBE+vdW (tier 2 basis)
N    -0.534146  -1.456698  0.803513
C    0.192284  -0.324531  1.301841
C    1.546880  -0.938822  1.647695
O    1.800714  -1.586987  2.728338
H    -0.910169  -1.402984  -0.135911
H    -1.060447  -2.042810  1.439356
H    0.392432  0.352960  0.461104
C    -0.475394  0.550954  2.394493
C    -0.916447  -0.079869  3.683389
O    -1.895892  0.425006  4.329477
O    -0.312417  -1.109713  4.196580
H    -1.355071  1.038097  1.950757
H    0.201342  1.378329  2.680779
O    2.451543  -0.871990  0.734183
H    3.257521  -1.397669  0.946914
H    1.026260  -1.524774  3.382487
Pb    -1.755993  -0.977499  6.123006
