17
Energy: -604088.255476 eV PBE+vdW (tier 2 basis)
N    0.473002  0.425336  -0.702768
C    0.543793  -0.312001  0.627377
C    1.224351  0.564806  1.697988
O    1.712837  0.080307  2.686397
H    1.394232  0.481526  -1.163797
H    0.160535  1.398055  -0.543729
H    -0.499952  -0.455325  0.947861
C    1.250188  -1.663448  0.479298
C    1.196292  -2.478450  1.758500
O    2.233494  -3.133161  2.119154
O    0.108917  -2.554863  2.433627
H    2.304362  -1.545296  0.195292
H    0.754515  -2.272388  -0.295204
O    1.146343  1.865409  1.378295
H    1.542330  2.418703  2.086008
H    -0.180902  -0.024391  -1.360744
Pb    1.172661  -3.882820  4.019444
