17
Energy: -604088.267379 eV PBE+vdW (tier 2 basis)
N    0.805680  -0.593520  0.198878
C    0.512983  -0.340834  1.636015
C    1.819535  -0.533677  2.432995
O    2.713856  -1.291933  2.026852
H    -0.065634  -0.710694  -0.329794
H    1.269133  0.225080  -0.212859
H    0.169634  0.697087  1.776479
C    -0.615471  -1.257521  2.176844
C    -0.437724  -2.761245  2.020330
O    0.487626  -3.299466  1.386711
O    -1.319787  -3.559860  2.560622
H    -1.560732  -0.980790  1.678455
H    -0.781175  -1.035343  3.242947
O    1.996408  0.070614  3.576397
H    1.308391  0.724755  3.815366
H    -2.036906  -3.115537  3.057793
Pb    2.331213  -2.621629  0.135022
