17
Energy: -604087.446092 eV PBE+vdW (tier 2 basis)
N    0.012213  -0.233940  0.101198
C    -0.414556  -0.083744  1.498840
C    0.784782  -0.430714  2.370709
O    1.243357  -1.608050  2.534550
H    0.809055  0.369974  -0.116832
H    -0.743258  0.081859  -0.513207
H    -0.708965  0.937717  1.796570
C    -1.637855  -1.002964  1.745761
C    -1.511115  -2.389324  1.167457
O    -2.458615  -2.888797  0.478883
O    -0.463515  -3.128106  1.390914
H    -2.519593  -0.531651  1.292800
H    -1.861743  -1.102531  2.821573
O    1.368633  0.564397  2.941195
H    2.156591  0.300686  3.473606
H    0.658925  -2.313490  2.051921
Pb    -1.434407  -4.907682  0.124456
