17
Energy: -604088.57013 eV PBE+vdW (tier 2 basis)
N    -0.780331  0.678162  0.567358
C    -0.248685  -0.131196  1.699245
C    1.191638  -0.539276  1.363077
O    1.617403  -0.610709  0.196852
H    -1.800020  0.764911  0.638738
H    -0.420047  1.638096  0.625829
H    -0.207362  0.466003  2.622879
C    -1.128164  -1.366344  2.009633
C    -1.372156  -2.342614  0.871915
O    -1.003022  -2.157156  -0.304047
O    -2.022682  -3.449827  1.111820
H    -2.110238  -1.020306  2.375836
H    -0.682626  -1.910184  2.857882
O    1.906712  -0.813204  2.417769
H    2.822252  -1.092811  2.185607
H    -2.293137  -3.577042  2.044538
Pb    0.007466  -0.461506  -1.536932
