17
Energy: -604086.43386 eV PBE+vdW (tier 2 basis)
N    -0.505419  0.427342  0.191537
C    -0.087558  -0.043257  1.454271
C    1.398170  0.263440  1.687489
O    2.051335  0.938074  0.828170
H    -0.162856  -0.061993  -0.631125
H    -1.488765  0.669141  0.112703
H    -0.615942  0.539588  2.228638
C    -0.403508  -1.608679  1.742345
C    -0.816750  -1.904080  3.119555
O    -1.759662  -2.027002  3.777296
O    0.682588  -2.054042  4.045391
H    0.432737  -2.254003  1.447355
H    -1.275521  -1.857192  1.122249
O    2.003649  -0.118299  2.769549
H    1.289647  -1.296177  3.801190
H    0.483199  -2.048871  5.004950
Pb    3.974400  1.056395  2.055987
