17
Energy: -604087.395862 eV PBE+vdW (tier 2 basis)
N    0.200674  -0.128537  -0.015765
C    0.359429  -0.226527  1.389705
C    1.637470  -0.998567  1.739146
O    2.482778  -1.306573  0.842393
H    -0.107746  -0.965877  -0.503351
H    -0.294729  0.696742  -0.339852
H    0.553856  0.790560  1.778248
C    -0.908248  -0.799007  2.172308
C    -1.032372  -0.438858  3.610910
O    -0.077146  -0.539736  4.463753
O    -2.169902  0.022101  4.005974
H    -0.928643  -1.899146  2.100380
H    -1.801583  -0.431568  1.654372
O    1.897989  -1.326031  2.972211
H    0.768711  -0.893947  4.014444
H    -2.188304  0.231005  4.969371
Pb    4.022970  -2.201913  2.278830
