17
Energy: -604086.716481 eV PBE+vdW (tier 2 basis)
N    0.534604  0.513837  0.820178
C    0.114210  -0.233829  1.913994
C    1.232341  -1.215780  2.341118
O    1.978818  -1.811104  1.642564
H    -0.142498  1.044965  0.281285
H    1.482697  0.877562  0.787655
H    -0.094104  0.418352  2.875205
C    -1.205560  -0.982960  1.589740
C    -1.989333  -1.573374  2.737348
O    -1.787144  -1.304386  3.946122
O    -2.969914  -2.395296  2.497611
H    -0.984246  -1.770031  0.851428
H    -1.885871  -0.276802  1.081061
O    1.263480  -1.353708  3.759787
H    1.969002  -2.000940  3.990160
H    -3.114469  -2.600593  1.550047
Pb    -0.304846  -0.081116  5.151630
