17
Energy: -604087.40023 eV PBE+vdW (tier 2 basis)
N    0.508040  -0.064171  0.049626
C    0.008920  0.013006  1.387736
C    1.163657  -0.199405  2.376171
O    1.252618  0.375520  3.496481
H    -0.011196  0.492242  -0.624061
H    0.691301  -0.998386  -0.310159
H    -0.340325  1.043789  1.550751
C    -1.182370  -0.957350  1.727150
C    -2.039932  -0.633441  2.921973
O    -1.769368  0.259526  3.767951
O    -3.156179  -1.274705  3.127512
H    -0.825295  -1.996571  1.833732
H    -1.833748  -0.965341  0.836923
O    2.069715  -1.039120  1.982768
H    2.806931  -1.133525  2.627902
H    -3.365032  -1.950591  2.448848
Pb    -0.220736  1.493523  4.834696
