17
Energy: -604087.367389 eV PBE+vdW (tier 2 basis)
N    -0.655420  0.378737  0.336759
C    0.012323  -0.192650  1.476988
C    1.517289  -0.179806  1.290127
O    2.059843  0.629843  0.472475
H    -1.589251  0.721095  0.560807
H    -0.128526  1.130214  -0.106152
H    -0.110236  0.394032  2.420991
C    -0.597320  -1.615316  1.714134
C    -0.332524  -2.293642  3.019229
O    0.811722  -2.336141  3.593083
O    -1.331243  -2.886476  3.574124
H    -0.264994  -2.300237  0.914660
H    -1.684851  -1.533634  1.598507
O    2.292401  -0.953171  1.993395
H    1.514600  -1.841069  3.035443
H    -1.089466  -3.358970  4.405473
Pb    4.222040  -0.008485  0.922194
