17
Energy: -604088.199244 eV PBE+vdW (tier 2 basis)
N    -0.017038  -0.183511  0.053347
C    0.239451  0.035016  1.536838
C    1.751467  -0.092455  1.751789
O    2.208317  0.183714  2.896921
H    -0.931848  -0.607943  -0.153358
H    0.031660  0.706375  -0.466248
H    -0.113247  1.042021  1.789945
C    -0.489921  -0.985003  2.446583
C    0.159335  -2.352989  2.711817
O    1.376003  -2.576478  2.696072
O    -0.628007  -3.349219  3.047707
H    -1.529715  -1.110803  2.110325
H    -0.562791  -0.510892  3.440650
O    2.425076  -0.667600  0.837283
H    0.751315  -0.785576  -0.309541
H    -1.581867  -3.133902  3.065604
Pb    3.630309  -1.691415  2.677053
