17
Energy: -604086.495364 eV PBE+vdW (tier 2 basis)
N    -0.317357  0.125254  0.083596
C    -0.109172  0.031294  1.466038
C    1.309700  0.484869  1.836728
O    2.162336  0.833946  1.084851
H    0.491534  0.135859  -0.532623
H    -1.149271  0.584209  -0.267975
H    -0.835180  0.651348  2.012769
C    -0.320115  -1.515134  1.960655
C    -0.732708  -1.702214  3.360092
O    -1.743784  -2.387479  3.703354
O    -0.091723  -1.120447  4.373905
H    0.631100  -2.044850  1.790258
H    -1.074338  -1.968729  1.308824
O    1.517963  0.421567  3.226531
H    2.437568  0.703856  3.423587
H    0.670725  -0.474933  4.042581
Pb    -1.825456  -2.335617  5.967015
