17
Energy: -604088.449386 eV PBE+vdW (tier 2 basis)
N    0.034909  -1.385109  0.199442
C    -0.185931  -0.191317  1.114968
C    1.151000  0.533310  1.265405
O    1.143577  1.659621  1.841817
H    -0.067277  -1.116966  -0.791620
H    -0.621433  -2.159190  0.376895
H    -0.944335  0.449355  0.649941
C    -0.670930  -0.594071  2.527537
C    0.357424  -1.064592  3.558308
O    -0.114392  -2.064653  4.265760
O    1.470398  -0.560202  3.782335
H    -1.479673  -1.334618  2.471326
H    -1.125421  0.310244  2.966227
O    2.209813  -0.129728  1.021344
H    1.013299  -1.712266  0.322803
H    0.495406  -2.309926  4.997691
Pb    3.124563  1.038106  2.940819
