17
Energy: -604086.494483 eV PBE+vdW (tier 2 basis)
N    0.437596  -0.297926  -0.078092
C    0.001800  0.019699  1.225934
C    1.206953  0.353651  2.119388
O    2.352939  0.301666  1.794083
H    -0.007270  0.157306  -0.867161
H    1.427199  -0.506073  -0.199438
H    -0.677665  0.886162  1.213769
C    -0.814867  -1.231743  1.843947
C    -1.810300  -0.925017  2.901660
O    -2.986047  -1.439959  2.835012
O    -1.571486  -0.128378  3.894038
H    -0.080050  -1.943464  2.256233
H    -1.320344  -1.739430  1.015824
O    0.795380  0.715175  3.397613
H    1.583396  0.917675  3.946565
H    -0.617316  0.256697  3.847293
Pb    -4.758514  -1.507969  4.125997
