17
Energy: -604088.235294 eV PBE+vdW (tier 2 basis)
N    0.919647  0.608687  -0.747470
C    0.685656  -0.445830  0.323735
C    1.134349  0.066484  1.711527
O    1.038720  -0.595687  2.731531
H    1.924301  0.793913  -0.896412
H    0.484179  1.511035  -0.498314
H    -0.404423  -0.586943  0.383859
C    1.345628  -1.781402  -0.094060
C    1.145639  -2.749205  1.059270
O    2.155079  -3.119620  1.742129
O    -0.050436  -3.017743  1.424556
H    2.419388  -1.665151  -0.289950
H    0.846309  -2.171645  -0.992730
O    1.598693  1.309033  1.651406
H    1.855950  1.638522  2.541623
H    0.520928  0.304997  -1.650029
Pb    0.761391  -3.179447  3.599328
