17
Energy: -604088.409831 eV PBE+vdW (tier 2 basis)
N    0.059301  2.324143  1.232662
C    0.105045  1.095696  2.124412
C    1.485732  0.454237  2.006220
O    1.959301  -0.120867  3.027409
H    -0.904098  2.648092  1.054688
H    0.511921  2.107021  0.325877
H    -0.097088  1.416382  3.152525
C    -0.945508  0.065838  1.625938
C    -0.709288  -1.397667  2.010109
O    -1.782797  -1.927521  2.540712
O    0.323017  -2.050744  1.785152
H    -0.952066  0.059478  0.522323
H    -1.945823  0.352050  1.971807
O    1.966275  0.331449  0.833360
H    0.574026  3.113172  1.655020
H    -1.664282  -2.887902  2.718217
Pb    2.741332  -1.827857  1.590571
