17
Energy: -604088.092651 eV PBE+vdW (tier 2 basis)
N    0.425751  -1.137244  -0.142421
C    0.223250  -0.232152  1.062721
C    1.542864  -0.054356  1.852568
O    1.553360  0.348180  2.981150
H    1.228894  -0.805913  -0.700146
H    0.641638  -2.106334  0.134373
H    -0.020510  0.755111  0.641411
C    -0.897325  -0.709675  1.986567
C    -2.294378  -0.621086  1.432938
O    -3.286535  -0.624760  2.242425
O    -2.506210  -0.558955  0.163840
H    -0.842828  -0.109943  2.908201
H    -0.736557  -1.747862  2.328162
O    2.596620  -0.368675  1.073407
H    3.431923  -0.201620  1.561359
H    -0.424506  -1.142964  -0.728219
Pb    -4.847452  -0.440751  0.586662
