17
Energy: -604088.261606 eV PBE+vdW (tier 2 basis)
N    1.752158  0.746397  0.394694
C    1.023033  -0.315855  1.191198
C    0.524572  0.460687  2.433664
O    0.631137  1.667419  2.485530
H    2.776615  0.666456  0.451576
H    1.484406  0.769443  -0.597208
H    0.142980  -0.620463  0.606670
C    1.903456  -1.536604  1.494567
C    1.128306  -2.780444  1.879600
O    1.700886  -3.653937  2.620302
O    -0.052110  -2.988175  1.427712
H    2.646716  -1.333730  2.277555
H    2.465178  -1.827505  0.589153
O    -0.005719  -0.339301  3.351309
H    -0.325380  0.203494  4.105073
H    1.473102  1.649407  0.871090
Pb    -0.102335  -5.080289  2.470514
