17
Energy: -604087.912618 eV PBE+vdW (tier 2 basis)
N    -0.444952  -1.533695  0.738609
C    -0.185528  -0.124127  1.235537
C    0.885415  -0.170178  2.349999
O    0.767320  0.365977  3.454922
H    -0.925064  -1.522028  -0.172492
H    0.414295  -2.092048  0.636598
H    0.240040  0.461031  0.406234
C    -1.504937  0.477512  1.731838
C    -1.958206  -0.335607  2.945043
O    -2.232025  0.341770  4.048535
O    -1.972826  -1.562984  2.882873
H    -2.268779  0.423150  0.941411
H    -1.370461  1.539347  1.962196
O    1.954861  -0.827690  1.959105
H    2.661356  -0.841896  2.643474
H    -1.102580  -1.952848  1.475264
Pb    -0.714929  1.037311  5.375855
