17
Energy: -604087.428541 eV PBE+vdW (tier 2 basis)
N    0.358472  0.224048  0.211115
C    -0.112028  0.124690  1.541325
C    0.989486  -0.398031  2.486303
O    1.058448  -0.038870  3.685367
H    1.170035  0.817213  0.052850
H    -0.346970  0.363986  -0.508305
H    -0.420108  1.110617  2.019548
C    -1.347605  -0.817173  1.571338
C    -2.165946  -0.877435  2.838716
O    -1.992455  -0.138395  3.836115
O    -3.148205  -1.729486  2.929619
H    -1.038380  -1.836615  1.289539
H    -2.033768  -0.484659  0.772226
O    1.821233  -1.241784  1.958963
H    2.499448  -1.548880  2.604475
H    -3.277501  -2.292825  2.138115
Pb    -0.506155  1.340597  4.715689
