17
Energy: -604087.89705 eV PBE+vdW (tier 2 basis)
N    -1.702662  0.572901  1.759286
C    -0.782346  -0.495694  2.258403
C    0.604811  -0.425136  1.606597
O    1.570207  -1.009980  1.971243
H    -2.654155  0.403909  2.106665
H    -1.426644  1.477473  2.161140
H    -0.592044  -0.351297  3.333661
C    -1.371011  -1.914087  2.103497
C    -1.686796  -2.361135  0.691611
O    -1.664897  -1.599666  -0.302319
O    -2.017762  -3.599587  0.460253
H    -2.293089  -2.003052  2.704069
H    -0.661296  -2.626029  2.554907
O    0.620881  0.421518  0.466301
H    1.541534  0.437653  0.116725
H    -2.000702  -4.185530  1.245716
Pb    -1.530028  0.654739  -0.723758
