17
Energy: -604087.873709 eV PBE+vdW (tier 2 basis)
N    -0.220333  -0.093232  -0.096609
C    0.024376  0.143369  1.378702
C    1.563189  0.375800  1.454540
O    2.247757  -0.042217  0.541825
H    0.745870  -0.299692  -0.471258
H    -0.590076  0.742356  -0.569963
H    -0.549897  1.026666  1.685550
C    -0.395426  -1.052441  2.262557
C    0.352440  -2.347002  2.003892
O    0.910645  -2.958816  2.976012
O    0.404978  -2.836761  0.816614
H    -1.471565  -1.253277  2.130294
H    -0.261076  -0.778689  3.316490
O    2.080678  0.937556  2.532505
H    1.427307  1.320399  3.149611
H    -0.841215  -0.887847  -0.293936
Pb    1.654348  -4.671171  1.616176
