17
Energy: -604087.522784 eV PBE+vdW (tier 2 basis)
N    -0.545391  0.506311  0.407900
C    -0.281393  -0.448284  1.535994
C    1.197955  -0.187023  1.945062
O    1.910296  0.493176  1.238063
H    -0.961606  1.357665  0.807927
H    0.424352  0.809644  0.135455
H    -0.939522  -0.200986  2.379594
C    -0.434965  -1.950434  1.179890
C    -1.831744  -2.347965  0.777330
O    -2.418158  -1.825127  -0.210229
O    -2.509832  -3.253441  1.414338
H    -0.095419  -2.531175  2.047352
H    0.236395  -2.215766  0.345196
O    1.508285  -0.797891  3.076705
H    2.443888  -0.619621  3.318646
H    -2.033634  -3.665618  2.165397
Pb    -1.896092  -0.093540  -1.541516
