17
Energy: -604088.26949 eV PBE+vdW (tier 2 basis)
N    0.120732  0.081795  0.084476
C    0.123056  -0.163250  1.568209
C    1.531807  -0.149090  2.150776
O    1.672165  -0.275559  3.414450
H    0.824208  -0.481210  -0.410915
H    0.276658  1.066790  -0.159798
H    -0.421778  0.677019  2.026871
C    -0.629950  -1.475244  1.888009
C    -1.981731  -1.537801  1.182943
O    -2.840815  -2.311064  1.806958
O    -2.207686  -0.943777  0.125781
H    -0.767352  -1.567093  2.971802
H    -0.052469  -2.356246  1.562854
O    2.545435  -0.006610  1.385937
H    -0.898259  -0.239915  -0.201011
H    -3.680558  -2.372591  1.299326
Pb    3.978539  -0.063155  3.268335
