17
Energy: -604087.441948 eV PBE+vdW (tier 2 basis)
N    0.605947  -0.957026  -0.340517
C    0.022512  -0.285582  0.870316
C    1.107316  0.212173  1.869881
O    0.870738  0.369060  3.036260
H    1.424027  -0.404596  -0.638398
H    0.999785  -1.870618  -0.076985
H    -0.477020  0.634716  0.521397
C    -0.986958  -1.156195  1.624832
C    -2.261395  -1.476135  0.896480
O    -2.399861  -1.371286  -0.355171
O    -3.303685  -1.914538  1.534934
H    -1.210512  -0.642895  2.574705
H    -0.534463  -2.117737  1.932623
O    2.255168  0.462997  1.219971
H    2.919765  0.827006  1.844474
H    -3.197988  -1.955079  2.509448
Pb    -1.066839  -1.156353  -2.146659
