17
Energy: -604088.21649 eV PBE+vdW (tier 2 basis)
N    1.034682  0.241250  0.634944
C    -0.379178  0.083694  1.171565
C    -0.322089  -0.585708  2.571960
O    0.187961  -1.685197  2.800741
H    1.698860  0.616064  1.327328
H    1.339600  -0.711195  0.304483
H    -0.814512  1.083561  1.276820
C    -1.196772  -0.766125  0.165754
C    -0.658668  -2.179531  0.226212
O    -1.377407  -3.118078  0.686098
O    0.605272  -2.360096  0.018255
H    -1.103770  -0.342177  -0.845582
H    -2.257796  -0.748154  0.440321
O    -0.905175  0.174891  3.467097
H    -0.920534  -0.247989  4.356135
H    1.041349  0.880857  -0.174063
Pb    0.479177  -4.052067  1.696932
