17
Energy: -604087.337255 eV PBE+vdW (tier 2 basis)
N    -0.152469  -0.662355  0.052793
C    0.269521  -0.448697  1.413055
C    1.425142  -1.368872  1.759477
O    1.873524  -1.533182  2.947701
H    0.606735  -0.591848  -0.624678
H    -0.881197  -0.005929  -0.225897
H    0.695549  0.562235  1.634443
C    -0.979605  -0.656137  2.323700
C    -0.915328  -0.238657  3.763968
O    -1.969475  0.179454  4.349047
O    0.178517  -0.319726  4.461297
H    -1.290996  -1.715796  2.298714
H    -1.814438  -0.105731  1.869639
O    2.015097  -1.960088  0.783702
H    2.788766  -2.501009  1.068529
H    1.307531  -1.033970  3.642888
Pb    -1.018873  0.453309  6.407623
