18
Energy: -564313.635804 eV PBE+vdW (tier 2 basis)
N    0.472661  -0.099973  0.050758
C    0.298047  0.018707  1.527782
C    1.557641  0.387928  2.330427
O    2.702897  0.519686  1.872544
H    0.015852  0.676852  -0.441344
H    -0.405984  0.850284  1.709469
C    -0.296992  -1.341903  1.972926
C    -1.032854  -1.822375  0.715413
C    -0.072035  -1.442911  -0.412147
H    -0.949359  -1.200112  2.842069
H    0.499513  -2.042220  2.265576
H    -1.999782  -1.313562  0.599143
H    -1.218003  -2.903693  0.719775
H    -0.514103  -1.314077  -1.406456
H    0.752344  -2.164406  -0.476927
O    1.270872  0.529932  3.592534
H    2.058233  0.760004  4.139526
Hg    2.699052  0.308838  -0.447067
