18
Energy: -564313.350104 eV PBE+vdW (tier 2 basis)
N    0.329667  -0.118367  -0.090635
C    0.226245  0.022531  1.390437
C    1.558548  0.276631  2.141136
O    2.672378  0.331417  1.598211
H    -0.125184  0.668075  -0.568421
H    -0.390655  0.917369  1.584879
C    -0.463638  -1.286360  1.869563
C    -1.243623  -1.749775  0.630786
C    -0.278730  -1.445031  -0.513673
H    -1.115131  -1.090015  2.730459
H    0.283356  -2.033803  2.174820
H    -2.182322  -1.190200  0.516925
H    -1.489013  -2.818467  0.663898
H    -0.728429  -1.322271  -1.505288
H    0.512323  -2.203733  -0.568884
O    1.511393  0.425557  3.432319
H    0.616634  0.368978  3.828862
Hg    2.551182  0.197460  -0.694394
