16
Energy: -13946.0252735 eV PBE+vdW (tier 2 basis)
N    0.031462  -1.885998  0.161960
C    0.195159  -0.912384  1.235113
C    1.183714  0.221273  0.849461
O    1.272071  1.253173  1.702197
H    0.724405  1.063263  2.513799
H    0.884412  -1.872169  -0.406197
H    -0.779870  -0.450174  1.452802
C    0.654259  -1.649555  2.521232
C    0.340521  -0.931334  3.816519
O    0.342484  -1.683634  4.941147
O    0.088953  0.257538  3.909751
H    1.739650  -1.844399  2.490094
H    0.164289  -2.634620  2.510273
O    1.846378  0.170389  -0.165091
H    -0.711579  -1.581298  -0.465977
H    0.532691  -2.612071  4.718918
