16
Energy: -13946.0934592 eV PBE+vdW (tier 2 basis)
N    0.601721  -0.474641  -0.322145
C    0.261697  -0.033350  1.017994
C    1.466862  0.172075  1.952223
O    2.569890  -0.301597  1.787877
H    1.048432  -1.392598  -0.289641
H    1.280420  0.162381  -0.739538
H    -0.249610  0.938618  0.943655
C    -0.753558  -0.998888  1.688912
C    -0.137700  -2.293622  2.176155
O    0.045252  -2.590712  3.336583
O    0.218248  -3.114694  1.143252
H    -1.527980  -1.215912  0.941248
H    -1.206571  -0.514213  2.558976
O    1.141752  0.961443  3.011893
H    1.935103  1.000340  3.581215
H    0.641442  -3.893243  1.555657
