16
Energy: -13945.9804155 eV PBE+vdW (tier 2 basis)
N    -0.252531  0.584128  -0.530818
C    -0.088378  0.009877  0.810153
C    1.401172  -0.313552  0.968305
O    2.220941  0.394045  1.500268
H    -0.212053  -0.142902  -1.246081
H    -1.155165  1.050385  -0.614634
H    -0.278887  0.808509  1.538045
C    -1.012757  -1.186170  1.098531
C    -0.865627  -1.767030  2.485797
O    -0.012275  -1.467940  3.293403
O    -1.827086  -2.701086  2.737008
H    -0.828504  -1.996068  0.375784
H    -2.061249  -0.884706  0.955359
O    1.716985  -1.498217  0.360881
H    2.681967  -1.602876  0.468816
H    -1.649555  -3.032399  3.639183
