16
Energy: -13946.0177575 eV PBE+vdW (tier 2 basis)
N    -0.757893  -1.388232  3.158479
C    -0.731678  -1.486602  1.702686
C    0.685129  -1.493611  1.129284
O    0.940666  -1.364637  -0.047914
H    -1.696001  -1.573196  3.512167
H    -0.120202  -2.055961  3.587969
H    -1.156041  -2.435538  1.308949
C    -1.569539  -0.353090  1.082647
C    -1.274250  1.003312  1.689668
O    -2.095554  1.730863  2.204520
O    0.039096  1.339551  1.567338
H    -2.636597  -0.547334  1.238248
H    -1.375876  -0.320461  0.001261
O    1.632098  -1.747832  2.070318
H    2.482128  -1.775372  1.589763
H    0.136514  2.204140  2.010615
