16
Energy: -13946.1091607 eV PBE+vdW (tier 2 basis)
N    0.353838  -0.570753  -0.129994
C    0.015476  -0.204505  1.253052
C    1.274709  0.172582  2.032305
O    2.016600  -0.603727  2.599892
H    0.674753  0.243410  -0.653393
H    1.105352  -1.262920  -0.143332
H    -0.654124  0.663949  1.210378
C    -0.714712  -1.365229  1.927729
C    -2.084638  -1.566570  1.315663
O    -2.861570  -0.681488  1.028110
O    -2.376037  -2.886703  1.154575
H    -0.864979  -1.145941  2.996295
H    -0.124600  -2.287743  1.873097
O    1.528951  1.509891  1.949040
H    2.382972  1.652728  2.403013
H    -3.281992  -2.916983  0.788569
