16
Energy: -13946.1931202 eV PBE+vdW (tier 2 basis)
N    -0.499694  -0.962861  -0.936028
C    -0.076870  -0.647453  0.423011
C    1.468622  -0.595790  0.569908
O    2.210458  -0.975248  -0.310298
H    -0.426821  -0.126183  -1.515095
H    0.177312  -1.618284  -1.337695
H    -0.472548  0.345664  0.686895
C    -0.706342  -1.675485  1.393848
C    -0.838054  -1.208491  2.818135
O    -0.252423  -0.256216  3.318630
O    -1.704870  -1.960364  3.526617
H    -0.136000  -2.619074  1.398250
H    -1.703854  -1.933149  1.013691
O    1.943606  -0.109533  1.731026
H    1.187820  0.052705  2.356487
H    -1.709345  -1.602236  4.436619
