16
Energy: -13945.7484627 eV PBE+vdW (tier 2 basis)
N    -0.309694  -1.393521  0.435335
C    0.448353  -0.519846  1.310025
C    1.769864  -0.174412  0.612222
O    2.207719  1.110224  0.742798
H    1.516527  1.645799  1.170131
H    -1.133520  -1.756075  0.912856
H    -0.147364  0.393128  1.476053
C    0.817876  -1.098207  2.702574
C    -0.409072  -1.377970  3.559102
O    -0.167960  -2.037814  4.729580
O    -1.536685  -1.051560  3.275540
H    1.466474  -0.398520  3.259243
H    1.399141  -2.024123  2.564413
O    2.436961  -0.989889  0.023963
H    0.274499  -2.165564  0.112170
H    0.780882  -2.240650  4.807995
