16
Energy: -13946.2845458 eV PBE+vdW (tier 2 basis)
N    0.359949  -0.052018  0.082909
C    0.181840  0.047070  1.537314
C    1.572471  0.002873  2.224096
O    1.720343  -0.191799  3.410318
H    0.363138  -1.035480  -0.197499
H    -0.369680  0.438950  -0.429303
H    -0.195180  1.059130  1.755576
C    -0.783735  -0.947004  2.197350
C    -0.425726  -2.393896  1.947072
O    0.319079  -2.800957  1.074074
O    -1.064348  -3.223376  2.807718
H    -1.808403  -0.790330  1.824780
H    -0.811186  -0.775590  3.280871
O    2.581438  0.252321  1.375914
H    2.127419  0.313040  0.487359
H    -0.793421  -4.130935  2.565451
