16
Energy: -13946.0586131 eV PBE+vdW (tier 2 basis)
N    -0.425266  -1.044363  0.323532
C    -0.602204  -0.269972  1.563017
C    0.799497  0.012072  2.162083
O    1.348208  1.069152  1.927318
H    -1.286913  -1.028189  -0.225085
H    0.294774  -0.610035  -0.255566
H    -1.010147  0.741536  1.394703
C    -1.614105  -1.001583  2.474627
C    -1.353822  -2.484510  2.585196
O    -0.316519  -2.989668  2.991974
O    -2.406681  -3.233439  2.202508
H    -2.627279  -0.847142  2.083335
H    -1.584732  -0.573166  3.487570
O    1.387421  -0.933908  2.904977
H    0.821411  -1.756064  2.968853
H    -2.137487  -4.168342  2.307216
