16
Energy: -13946.0748078 eV PBE+vdW (tier 2 basis)
N    1.086733  -1.992982  1.874071
C    0.969694  -0.583898  1.520633
C    0.816653  0.437120  2.664394
O    0.469560  1.590132  2.517619
H    0.284973  -2.279927  2.436417
H    1.915225  -2.148881  2.446347
H    1.921862  -0.292751  1.042778
C    -0.113486  -0.354882  0.456638
C    -1.543276  -0.690018  0.825668
O    -2.467802  -0.702416  0.045043
O    -1.705479  -0.969977  2.155898
H    0.126994  -0.945511  -0.436053
H    -0.119240  0.701594  0.153910
O    1.174032  -0.076003  3.872855
H    1.077764  0.659596  4.508657
H    -2.660209  -1.138197  2.277123
