16
Energy: -13946.1784607 eV PBE+vdW (tier 2 basis)
N    -0.598232  0.708669  0.250299
C    -0.026927  -0.124146  1.317868
C    1.367952  -0.625418  0.879947
O    1.923482  -1.570785  1.391489
H    -1.128405  0.150491  -0.420099
H    -1.223192  1.422459  0.620385
H    0.161124  0.529395  2.185251
C    -0.890700  -1.296824  1.803856
C    -0.433697  -1.805904  3.157346
O    -0.083078  -1.096431  4.076746
O    -0.521667  -3.156440  3.246331
H    -0.905795  -2.117569  1.075971
H    -1.925073  -0.943862  1.939262
O    1.912371  0.110718  -0.107339
H    1.192097  0.753668  -0.350073
H    -0.220262  -3.388021  4.146760
