16
Energy: -13946.0441338 eV PBE+vdW (tier 2 basis)
N    1.624646  -2.630753  0.987294
C    1.194400  -1.242095  1.058082
C    0.956330  -0.649041  2.456357
O    1.221694  0.490092  2.773604
H    2.450326  -2.782150  1.565624
H    0.894588  -3.260205  1.321667
H    1.988632  -0.615753  0.627801
C    -0.062333  -0.996388  0.181487
C    -1.344878  -1.579047  0.736271
O    -2.262302  -0.941425  1.204550
O    -1.366332  -2.944537  0.658267
H    0.145065  -1.440431  -0.801592
H    -0.222093  0.081070  0.071432
O    0.396200  -1.548779  3.313442
H    0.235294  -1.061932  4.145062
H    -2.213237  -3.218628  1.061651
