16
Energy: -13946.0614007 eV PBE+vdW (tier 2 basis)
N    0.751191  -1.461224  2.881306
C    0.503299  -0.507668  1.813424
C    1.193223  0.825395  2.081813
O    1.700723  1.526524  1.235170
H    0.475982  -1.066669  3.781374
H    0.181027  -2.296213  2.734084
H    0.961452  -0.885050  0.888248
C    -1.002228  -0.184145  1.496052
C    -1.699673  -1.415921  0.978900
O    -1.889828  -2.435392  1.615041
O    -2.067893  -1.287757  -0.325353
H    -1.066547  0.623597  0.757311
H    -1.497288  0.131981  2.424273
O    1.125866  1.177621  3.395998
H    1.569320  2.045040  3.466640
H    -2.479627  -2.139118  -0.574280
