16
Energy: -13946.0703924 eV PBE+vdW (tier 2 basis)
N    0.309021  -1.381550  0.122467
C    0.124706  -0.709833  1.416086
C    1.203910  0.388839  1.591881
O    1.175573  1.200571  2.490141
H    -0.289481  -0.965940  -0.590527
H    0.047659  -2.369433  0.194787
H    -0.851525  -0.205480  1.506438
C    0.283551  -1.696859  2.593162
C    -0.808350  -2.753548  2.586198
O    -0.945383  -3.557933  1.689812
O    -1.672912  -2.759621  3.636624
H    0.311810  -1.114353  3.522910
H    1.247543  -2.218635  2.494114
O    2.172882  0.316511  0.667955
H    1.880171  -0.451283  0.090890
H    -1.431177  -2.058451  4.266062
