16
Energy: -13945.9852563 eV PBE+vdW (tier 2 basis)
N    0.192002  -0.175716  0.105353
C    0.080929  0.198403  1.507960
C    1.461835  0.538386  2.049406
O    2.442720  0.739128  1.365925
H    -0.649646  0.095515  -0.399400
H    0.997209  0.291749  -0.312041
H    -0.519575  1.117903  1.667406
C    -0.602745  -0.918654  2.310538
C    -2.062923  -1.070227  1.907593
O    -2.688851  -0.260083  1.266680
O    -2.678547  -2.205355  2.351155
H    -0.572951  -0.701856  3.389591
H    -0.066148  -1.864551  2.139866
O    1.475031  0.642861  3.407164
H    2.383318  0.911341  3.645735
H    -2.037658  -2.761843  2.827070
