16
Energy: -13946.1342746 eV PBE+vdW (tier 2 basis)
N    -0.815255  -2.221385  3.267767
C    -0.739447  -1.698837  1.915199
C    0.592829  -0.979871  1.747693
O    1.183602  -0.397602  2.630912
H    -1.744255  -2.598447  3.447900
H    -0.600980  -1.491827  3.948155
H    -0.764387  -2.541813  1.209442
C    -1.848037  -0.697509  1.497773
C    -3.227949  -1.314539  1.508323
O    -3.496810  -2.468547  1.772596
O    -4.176589  -0.397498  1.172791
H    -1.668453  -0.302420  0.485100
H    -1.852216  0.173635  2.171262
O    1.030190  -1.019545  0.459424
H    1.854195  -0.494349  0.436832
H    -5.031438  -0.870444  1.200830
