16
Energy: -13946.0693077 eV PBE+vdW (tier 2 basis)
N    -0.550790  -0.450508  3.915574
C    -0.974293  -1.182518  2.735352
C    0.071916  -0.960139  1.648747
O    0.704664  0.063113  1.503706
H    -0.229154  0.481898  3.649808
H    -1.309863  -0.354742  4.588127
H    -1.017708  -2.257247  2.961167
C    -2.373201  -0.748544  2.174654
C    -2.839293  -1.557300  0.986645
O    -2.880140  -1.171704  -0.161985
O    -3.201126  -2.820349  1.357378
H    -2.335934  0.306337  1.879352
H    -3.096955  -0.869903  2.992502
O    0.179762  -2.034415  0.828139
H    0.794922  -1.775545  0.113934
H    -3.442808  -3.283435  0.531900
