16
Energy: -13945.9999884 eV PBE+vdW (tier 2 basis)
N    -0.392431  0.790210  0.387244
C    0.236936  -0.242860  1.201457
C    1.466524  -0.886344  0.509867
O    1.672096  -0.796618  -0.677903
H    -0.464132  0.450250  -0.575790
H    0.223313  1.602537  0.334003
H    0.570227  0.225395  2.139860
C    -0.828046  -1.309468  1.539699
C    -0.570530  -2.284436  2.663505
O    -1.219742  -3.276586  2.888453
O    0.484402  -1.911919  3.476538
H    -1.086771  -1.903750  0.651883
H    -1.745639  -0.764605  1.811889
O    2.318741  -1.573925  1.311896
H    1.960927  -1.593014  2.224584
H    0.531703  -2.594044  4.175461
