16
Energy: -13946.0948674 eV PBE+vdW (tier 2 basis)
N    -0.625205  -2.670375  2.479828
C    -0.764532  -1.724266  1.381715
C    0.550975  -1.022187  1.062576
O    0.866887  -0.617539  -0.035547
H    -1.510849  -3.156163  2.620223
H    -0.372254  -2.199728  3.348641
H    -1.017955  -2.294783  0.477866
C    -1.837421  -0.619201  1.553169
C    -3.237421  -1.181354  1.643836
O    -3.553046  -2.344173  1.494507
O    -4.143588  -0.202850  1.916274
H    -1.814673  0.081448  0.702869
H    -1.641893  -0.016806  2.453501
O    1.320208  -0.835089  2.169660
H    2.116813  -0.358471  1.865269
H    -5.016046  -0.642463  1.944614
