16
Energy: -13945.584646 eV PBE+vdW (tier 2 basis)
N    -0.375108  -1.179503  0.717879
C    0.631838  -0.560084  1.555685
C    1.897037  -0.334172  0.701236
O    3.038321  -0.008956  1.363197
H    2.894878  -0.048834  2.325082
H    -0.206825  -0.936341  -0.259051
H    0.363721  0.474620  1.885337
C    0.895102  -1.428008  2.806815
C    -0.349982  -1.712484  3.645755
O    -1.152764  -0.635020  3.921132
O    -0.631897  -2.797093  4.082348
H    1.618591  -0.951704  3.494442
H    1.298880  -2.401084  2.506444
O    1.888826  -0.390184  -0.503383
H    -1.321979  -0.914805  0.978745
H    -0.781640  0.172652  3.522338
