16
Energy: -13946.0603697 eV PBE+vdW (tier 2 basis)
N    -0.321117  -0.427839  3.756250
C    -0.784108  -1.208686  2.603180
C    0.093099  -0.777642  1.424835
O    -0.090166  0.233692  0.777755
H    -0.549374  0.559861  3.633084
H    -0.775172  -0.746338  4.611701
H    -0.576551  -2.266478  2.808678
C    -2.269410  -1.022694  2.257009
C    -2.746007  -1.921085  1.139965
O    -2.046592  -2.660318  0.479263
O    -4.089929  -1.807452  0.946401
H    -2.454605  0.019896  1.954234
H    -2.890935  -1.204966  3.145959
O    1.128937  -1.620432  1.220347
H    1.646600  -1.243086  0.482048
H    -4.305670  -2.404433  0.203291
