16
Energy: -13945.9118216 eV PBE+vdW (tier 2 basis)
N    0.122966  -0.812682  -0.054891
C    0.044602  -0.171185  1.262698
C    1.412558  0.293863  1.822216
O    1.727382  1.462889  1.833326
H    0.752945  -1.615587  -0.047007
H    0.486641  -0.152711  -0.742089
H    -0.491163  0.775559  1.117955
C    -0.830011  -0.997590  2.231529
C    -0.645953  -2.496849  2.307725
O    -1.508683  -3.296250  2.571985
O    0.655979  -2.902064  2.072924
H    -1.883405  -0.854485  1.963802
H    -0.715124  -0.614210  3.259188
O    2.283819  -0.654987  2.250994
H    1.869850  -1.543930  2.202671
H    0.669874  -3.872899  2.185100
