16
Energy: -13946.2025866 eV PBE+vdW (tier 2 basis)
N    0.003462  -0.753209  -0.038966
C    0.016025  -0.364273  1.377206
C    1.483745  -0.344414  1.866459
O    1.801618  -0.430958  3.039892
H    -0.770889  -0.321276  -0.539788
H    -0.099931  -1.765913  -0.141180
H    -0.302892  0.689885  1.428658
C    -0.896391  -1.168226  2.327095
C    -0.527372  -2.647961  2.372275
O    -1.108631  -3.492386  1.724658
O    0.525002  -2.972744  3.158852
H    -1.931475  -1.096664  1.974905
H    -0.835447  -0.724905  3.330039
O    2.364971  -0.199790  0.876331
H    1.800719  -0.275155  0.052141
H    0.956115  -2.149816  3.487426
