16
Energy: -13946.068039 eV PBE+vdW (tier 2 basis)
N    0.920679  1.867961  2.055046
C    0.268787  0.593186  2.293530
C    1.305056  -0.503765  2.075493
O    2.193117  -0.455511  1.251760
H    1.470300  1.826014  1.195341
H    0.242717  2.623934  1.974329
H    -0.081226  0.543804  3.334266
C    -0.962471  0.308726  1.365345
C    -1.747260  -0.910623  1.790893
O    -2.435135  -0.981212  2.787283
O    -1.577147  -1.955804  0.931588
H    -0.626986  0.222041  0.324753
H    -1.635626  1.171365  1.455856
O    1.091546  -1.570699  2.885540
H    1.754078  -2.243336  2.631953
H    -2.091427  -2.697081  1.308023
