16
Energy: -13946.1269638 eV PBE+vdW (tier 2 basis)
N    -0.142268  1.271497  2.618862
C    0.310078  -0.027937  2.150866
C    1.736259  -0.030001  1.585038
O    2.327016  0.946139  1.175740
H    0.391690  1.560733  3.438131
H    0.029432  1.979322  1.901679
H    0.283040  -0.734186  2.992301
C    -0.645893  -0.549286  1.056220
C    -2.082346  -0.623417  1.529394
O    -3.032339  -0.133449  0.960824
O    -2.199586  -1.355896  2.673170
H    -0.331838  -1.552821  0.733929
H    -0.624876  0.112996  0.181834
O    2.273089  -1.282364  1.576361
H    3.160331  -1.198148  1.174939
H    -3.148790  -1.341181  2.901712
