16
Energy: -13945.9771197 eV PBE+vdW (tier 2 basis)
N    -0.096216  -0.807682  0.382770
C    -0.039167  0.150463  1.517743
C    1.423801  0.383529  1.955369
O    2.178930  -0.704923  2.238533
H    1.646776  -1.530299  2.220608
H    0.626612  -0.605050  -0.309054
H    -0.391592  1.152053  1.233955
C    -0.927750  -0.369049  2.668464
C    -0.614387  -1.771527  3.204424
O    -0.077456  -2.636760  2.296423
O    -0.818974  -2.098055  4.346920
H    -1.975533  -0.380385  2.324377
H    -0.890516  0.321901  3.518490
O    1.886702  1.496059  2.034791
H    -0.996046  -0.728738  -0.094483
H    -0.090216  -2.178011  1.389090
