16
Energy: -13946.050151 eV PBE+vdW (tier 2 basis)
N    0.192823  0.981797  2.910448
C    0.290740  -0.259512  2.140107
C    1.686322  -0.455603  1.554194
O    1.937904  -1.055384  0.531630
H    -0.630860  0.941488  3.510697
H    1.004807  1.089340  3.516725
H    0.142472  -1.169114  2.761707
C    -0.741323  -0.287138  1.008987
C    -2.192753  -0.353312  1.422926
O    -3.129498  -0.119505  0.692630
O    -2.364739  -0.738113  2.727397
H    -0.554419  -1.157542  0.362299
H    -0.630018  0.601661  0.374453
O    2.654232  0.071175  2.354445
H    3.504111  -0.137610  1.920523
H    -3.331798  -0.772628  2.862831
