16
Energy: -13946.103266 eV PBE+vdW (tier 2 basis)
N    -0.956395  0.631557  3.326761
C    -1.078561  -0.541438  2.472298
C    0.045397  -0.654898  1.433574
O    0.661489  0.283109  0.975112
H    -0.163847  0.519047  3.959664
H    -0.739258  1.448180  2.750019
H    -1.060582  -1.442493  3.100036
C    -2.443355  -0.488452  1.736969
C    -2.775777  -1.729052  0.939366
O    -2.878004  -1.789754  -0.266760
O    -2.961927  -2.808787  1.752316
H    -2.465949  0.367441  1.051749
H    -3.206308  -0.339934  2.512499
O    0.260729  -1.944845  1.061451
H    0.932320  -1.920697  0.351243
H    -3.146972  -3.561984  1.158704
