16
Energy: -13946.2877752 eV PBE+vdW (tier 2 basis)
N    2.732103  -0.887944  0.167966
C    2.998476  -1.946526  1.154098
C    4.525721  -2.099437  1.346996
O    5.036895  -3.043988  1.906039
H    1.842323  -0.431491  0.365408
H    2.670669  -1.271020  -0.776937
H    2.623672  -1.576655  2.121852
C    2.349041  -3.302532  0.885210
C    0.847137  -3.263872  1.032876
O    0.277787  -4.434644  0.641167
O    0.198477  -2.324083  1.449007
H    2.754434  -4.048160  1.586251
H    2.602569  -3.678989  -0.118126
O    5.220594  -1.054508  0.864988
H    4.518410  -0.477907  0.449654
H    -0.683308  -4.332243  0.785550
