16
Energy: -13946.2482439 eV PBE+vdW (tier 2 basis)
N    2.508842  -0.772621  1.010169
C    2.979543  -2.061444  1.540189
C    4.519097  -2.148082  1.385668
O    5.192809  -2.993957  1.928619
H    2.490202  -0.067096  1.746439
H    1.550890  -0.865650  0.660996
H    2.763528  -2.198254  2.612501
C    2.377069  -3.248238  0.761541
C    0.874965  -3.339630  0.899808
O    0.466069  -4.577133  1.271439
O    0.096102  -2.424717  0.697575
H    2.851479  -4.175901  1.096648
H    2.596656  -3.121912  -0.311244
O    5.011225  -1.207031  0.562454
H    4.199576  -0.674165  0.311899
H    -0.510758  -4.543767  1.312264
