16
Energy: -13946.0811676 eV PBE+vdW (tier 2 basis)
N    0.988050  -0.299926  0.769061
C    0.554965  -1.158627  1.876736
C    1.727627  -1.851835  2.570914
O    2.152318  -1.580500  3.673462
H    1.538773  0.485530  1.114587
H    1.570484  -0.820258  0.111359
H    0.088549  -0.517886  2.635191
C    -0.490950  -2.160332  1.374121
C    -1.773255  -1.446150  0.996519
O    -2.311249  -0.579739  1.650432
O    -2.287688  -1.920264  -0.171811
H    -0.741903  -2.875619  2.173138
H    -0.110713  -2.740047  0.524598
O    2.306573  -2.799723  1.771532
H    3.071310  -3.143557  2.272531
H    -3.117346  -1.424390  -0.318509
