16
Energy: -13946.1078072 eV PBE+vdW (tier 2 basis)
N    -1.545812  -0.622126  0.392414
C    -0.509886  -0.357816  1.380654
C    0.630399  0.519342  0.844812
O    0.825069  0.768125  -0.326292
H    -2.075513  0.231110  0.212296
H    -1.111999  -0.865389  -0.501302
H    -0.960106  0.158057  2.241526
C    0.075941  -1.685763  1.909507
C    0.629581  -1.584239  3.314098
O    0.154694  -0.922621  4.211520
O    1.725054  -2.377117  3.479117
H    0.829553  -2.105004  1.230619
H    -0.760538  -2.400328  1.947573
O    1.435253  0.973889  1.842424
H    2.146970  1.485316  1.409520
H    1.980973  -2.286476  4.418127
