16
Energy: -13946.0681754 eV PBE+vdW (tier 2 basis)
N    -0.037057  -0.936456  3.664671
C    -0.622427  -1.387316  2.416657
C    0.503342  -1.688339  1.430938
O    1.633626  -1.262639  1.523534
H    0.830134  -0.431233  3.474853
H    -0.664891  -0.317564  4.173752
H    -1.168216  -2.332056  2.576302
C    -1.663849  -0.423915  1.750922
C    -1.051683  0.876293  1.287923
O    -0.536772  1.063958  0.206273
O    -1.110260  1.838780  2.254979
H    -2.456469  -0.231167  2.485150
H    -2.101661  -0.920719  0.877087
O    0.080047  -2.484216  0.417306
H    0.834410  -2.567785  -0.197607
H    -0.656273  2.620376  1.882259
