16
Energy: -13946.140199 eV PBE+vdW (tier 2 basis)
N    -1.123819  -0.076147  0.172668
C    -0.879484  -0.685646  1.480626
C    0.607561  -0.884490  1.751046
O    1.086600  -1.771190  2.425078
H    -0.515328  0.730309  0.038225
H    -2.087477  0.260399  0.149486
H    -1.219304  -0.045385  2.324916
C    -1.609420  -2.023175  1.597405
C    -3.107619  -1.858466  1.652228
O    -3.713545  -0.804077  1.649954
O    -3.736956  -3.062655  1.711149
H    -1.281938  -2.564701  2.496141
H    -1.360167  -2.664897  0.739677
O    1.360803  0.103916  1.194920
H    2.283533  -0.084027  1.454284
H    -4.693442  -2.865768  1.743197
