16
Energy: -13946.1079069 eV PBE+vdW (tier 2 basis)
N    -0.424622  -0.276051  0.786107
C    0.693173  -0.230793  1.737918
C    2.028451  -0.147334  0.962249
O    1.865891  0.230706  -0.316690
H    0.874231  0.293326  -0.419524
H    -0.642815  -1.237490  0.518107
H    0.610323  0.728802  2.273137
C    0.746427  -1.343660  2.785855
C    -0.390208  -1.250458  3.790369
O    -0.413036  -2.223861  4.746305
O    -1.245047  -0.395457  3.785850
H    1.713883  -1.289942  3.310155
H    0.720858  -2.332772  2.297242
O    3.108409  -0.366741  1.464972
H    -1.265490  0.111901  1.213250
H    0.350572  -2.817174  4.634698
