16
Energy: -13946.0973041 eV PBE+vdW (tier 2 basis)
N    -0.137260  -0.180580  -0.050607
C    0.032810  -0.277263  1.395885
C    1.472877  -0.280397  1.932376
O    1.839276  -0.790071  2.970822
H    0.400663  -0.905029  -0.528035
H    0.202658  0.714843  -0.397898
H    -0.432327  0.621931  1.838130
C    -0.734588  -1.483035  1.940119
C    -2.223249  -1.223155  1.961479
O    -2.748934  -0.152176  2.178067
O    -2.934738  -2.364743  1.749098
H    -0.417610  -1.686012  2.974247
H    -0.518641  -2.388157  1.357372
O    2.321314  0.407318  1.116435
H    3.189364  0.389735  1.564316
H    -3.875451  -2.110630  1.823707
