16
Energy: -13946.225169 eV PBE+vdW (tier 2 basis)
N    -0.947289  -0.034807  0.179213
C    0.036966  -0.128924  1.268382
C    1.392008  -0.454214  0.640550
O    1.632985  -0.354244  -0.544442
H    -0.475008  0.253713  -0.680790
H    -1.684681  0.632683  0.397396
H    0.192780  0.839924  1.779959
C    -0.412726  -1.149141  2.335379
C    -0.675977  -2.577047  1.835611
O    -0.440200  -3.549747  2.517182
O    -1.217896  -2.673003  0.606433
H    -1.350852  -0.783791  2.783385
H    0.322887  -1.212159  3.142947
O    2.304490  -0.824333  1.565856
H    3.137394  -0.995319  1.084491
H    -1.304882  -1.738590  0.233450
