16
Energy: -13945.9350891 eV PBE+vdW (tier 2 basis)
N    -0.556450  0.224436  -0.179457
C    -0.534171  0.186003  1.273888
C    0.919524  0.423882  1.727464
O    1.873155  0.218098  1.014115
H    -1.282119  -0.374637  -0.568098
H    0.352215  -0.082629  -0.533943
H    -1.153455  1.007752  1.672313
C    -1.071762  -1.149947  1.858012
C    -1.309521  -1.263425  3.348315
O    -1.384269  -2.296774  3.967423
O    -1.480361  -0.036770  3.959120
H    -0.426553  -1.988928  1.565459
H    -2.055272  -1.339894  1.396072
O    1.082694  0.866487  2.996564
H    0.208516  0.927499  3.434556
H    -1.657242  -0.233834  4.900668
