16
Energy: -13945.9045166 eV PBE+vdW (tier 2 basis)
N    -0.622312  0.269637  0.211366
C    -0.077914  -0.048857  1.521798
C    1.473802  -0.032260  1.572627
O    2.160894  0.437685  0.702753
H    -0.306151  -0.442680  -0.451378
H    -0.213180  1.145987  -0.115097
H    -0.386468  0.756292  2.213183
C    -0.712079  -1.342646  2.061666
C    -0.267965  -2.599341  1.343684
O    0.301788  -2.640831  0.273977
O    -0.606330  -3.713523  2.047667
H    -1.801834  -1.259369  1.928133
H    -0.565391  -1.478958  3.143835
O    2.059217  -0.517018  2.712938
H    1.381331  -0.861448  3.319406
H    -0.317634  -4.475156  1.507247
