16
Energy: -13946.0533705 eV PBE+vdW (tier 2 basis)
N    -0.894346  0.824962  3.064644
C    -1.032504  -0.517989  2.502451
C    0.089262  -0.930806  1.541452
O    0.742587  -1.948006  1.628887
H    -0.803622  1.516759  2.318839
H    -0.048097  0.886930  3.631213
H    -0.990396  -1.240891  3.327066
C    -2.410428  -0.633868  1.810673
C    -2.671297  -2.010517  1.240661
O    -2.643749  -2.304142  0.064861
O    -2.931004  -2.917278  2.224960
H    -2.477945  0.085905  0.986462
H    -3.168427  -0.389950  2.565986
O    0.282932  -0.004378  0.559880
H    0.987146  -0.360282  -0.015416
H    -3.039111  -3.778449  1.776379
