16
Energy: -13946.0086427 eV PBE+vdW (tier 2 basis)
N    0.940785  1.611683  2.446235
C    0.251849  0.316424  2.364282
C    1.199021  -0.743707  1.809654
O    0.922586  -1.567350  0.966910
H    0.377953  2.268845  2.987137
H    1.829041  1.505398  2.935953
H    -0.062210  -0.078988  3.351737
C    -0.988056  0.452913  1.474992
C    -1.890862  -0.756804  1.369772
O    -2.556125  -1.042451  0.400190
O    -1.936543  -1.476120  2.531633
H    -0.702059  0.744978  0.458781
H    -1.610156  1.269010  1.878237
O    2.417314  -0.687821  2.419071
H    2.951274  -1.402811  2.021839
H    -2.550812  -2.215199  2.356576
