16
Energy: -13946.1168008 eV PBE+vdW (tier 2 basis)
N    -0.658801  -2.466093  2.975421
C    -0.684824  -1.565850  1.841044
C    0.527891  -0.646509  1.915152
O    1.068303  -0.297485  2.942082
H    -1.591037  -2.839588  3.159213
H    -0.348500  -1.957541  3.805401
H    -0.612423  -2.139088  0.903417
C    -1.948821  -0.637535  1.723585
C    -3.185767  -1.477912  1.539891
O    -3.689132  -2.182620  2.393921
O    -3.671049  -1.405996  0.269431
H    -1.833801  0.053031  0.879962
H    -2.049600  -0.068001  2.656833
O    0.916220  -0.221963  0.684229
H    1.661474  0.393044  0.830573
H    -4.441135  -2.007894  0.240843
