16
Energy: -13946.0941479 eV PBE+vdW (tier 2 basis)
N    -0.585869  0.256919  0.028672
C    -0.017695  0.167290  1.368198
C    1.503051  0.192742  1.271238
O    2.129003  0.450201  0.264894
H    -1.411803  0.850520  0.022616
H    0.106753  0.648733  -0.610708
H    -0.271396  1.037969  2.003803
C    -0.507052  -1.101124  2.093636
C    -2.005589  -1.187547  2.279255
O    -2.633420  -2.217909  2.376608
O    -2.598544  0.042408  2.375712
H    -0.059845  -1.165782  3.097546
H    -0.204851  -1.997539  1.538803
O    2.099376  -0.078047  2.462896
H    3.060845  -0.010993  2.304473
H    -3.546963  -0.136841  2.526359
