16
Energy: -13946.223909 eV PBE+vdW (tier 2 basis)
N    -0.658345  -0.817142  0.140533
C    0.137042  -0.482495  1.332393
C    1.472325  0.182017  0.896171
O    2.376800  0.418221  1.664417
H    -0.608004  -1.814738  -0.071340
H    -1.643615  -0.595387  0.267312
H    -0.398107  0.296497  1.897535
C    0.438985  -1.661889  2.281256
C    -0.835583  -2.256401  2.824309
O    -1.485256  -3.129398  2.283455
O    -1.224161  -1.661194  3.986314
H    1.085589  -1.297709  3.087220
H    0.971599  -2.447648  1.729000
O    1.496874  0.486725  -0.410363
H    0.617618  0.140053  -0.742974
H    -2.068761  -2.083513  4.238760
