16
Energy: -13946.0080802 eV PBE+vdW (tier 2 basis)
N    0.508341  -0.547591  0.042962
C    0.034438  -0.163114  1.371067
C    1.237389  0.229061  2.264144
O    1.408482  1.367666  2.635338
H    0.958815  -1.462389  0.038331
H    -0.256726  -0.567698  -0.630083
H    -0.508519  0.782748  1.255176
C    -0.956697  -1.143693  2.061686
C    -0.521412  -2.585587  2.092982
O    0.634450  -2.988170  2.047535
O    -1.563608  -3.437786  2.176149
H    -1.934008  -1.095253  1.561689
H    -1.137832  -0.834417  3.105693
O    2.095092  -0.756452  2.603593
H    1.728956  -1.636125  2.328383
H    -1.187572  -4.339725  2.224027
