16
Energy: -13946.1680249 eV PBE+vdW (tier 2 basis)
N    0.581537  -0.975260  -0.053771
C    0.116716  -0.206199  1.093042
C    1.319340  0.325105  1.859947
O    2.455691  0.344692  1.437356
H    -0.080152  -0.894799  -0.823275
H    1.490342  -0.623766  -0.356587
H    -0.451712  0.702696  0.804579
C    -0.807816  -1.053618  1.977963
C    -2.097706  -1.391474  1.266756
O    -2.496572  -0.890174  0.234883
O    -2.803041  -2.337483  1.944060
H    -1.070569  -0.524889  2.906110
H    -0.306612  -1.987541  2.266799
O    0.976332  0.832315  3.075674
H    1.801857  1.184999  3.460451
H    -3.622710  -2.480677  1.431767
