16
Energy: -13946.0455868 eV PBE+vdW (tier 2 basis)
N    -0.576462  -0.936490  3.693951
C    -0.107335  -1.406663  2.390908
C    1.296245  -0.830152  2.171727
O    1.550193  0.151396  1.504623
H    -1.325431  -1.534780  4.038645
H    -0.953947  0.008849  3.594171
H    0.005685  -2.498248  2.451853
C    -1.002748  -1.088303  1.170354
C    -1.262487  0.389652  0.971467
O    -1.573456  1.176826  1.846120
O    -1.168253  0.749473  -0.333719
H    -1.980542  -1.567397  1.332434
H    -0.575641  -1.511506  0.252584
O    2.241468  -1.547013  2.828497
H    3.087274  -1.080432  2.680685
H    -1.359565  1.707789  -0.361300
