16
Energy: -13946.0725794 eV PBE+vdW (tier 2 basis)
N    1.225724  -1.591436  2.397309
C    0.883939  -0.421061  1.603891
C    0.590365  0.816599  2.458658
O    0.144797  1.848944  1.997272
H    0.427477  -1.885867  2.960563
H    1.488034  -2.368471  1.792115
H    1.786951  -0.136432  1.035869
C    -0.243751  -0.586528  0.561717
C    -1.575488  -0.933301  1.183151
O    -1.815362  -0.969990  2.373627
O    -2.513405  -1.207285  0.236463
H    0.021711  -1.367484  -0.165347
H    -0.374405  0.343306  -0.011902
O    0.910187  0.667347  3.763136
H    0.681365  1.519754  4.183125
H    -3.339140  -1.400095  0.722352
