16
Energy: -13946.0129725 eV PBE+vdW (tier 2 basis)
N    1.900298  -2.438411  1.127072
C    1.296597  -1.118683  1.058962
C    1.081081  -0.527519  2.450390
O    1.169369  0.650413  2.715790
H    2.071928  -2.798518  0.188491
H    1.286438  -3.103046  1.597769
H    2.009709  -0.441000  0.570513
C    -0.040758  -0.973336  0.242574
C    -1.213687  -1.703318  0.848829
O    -2.091432  -1.201484  1.517662
O    -1.171545  -3.044819  0.580302
H    0.151559  -1.354730  -0.769120
H    -0.305535  0.088730  0.181826
O    0.721485  -1.474743  3.356385
H    0.540632  -0.998654  4.189974
H    -1.946137  -3.428881  1.036579
