16
Energy: -13946.155293 eV PBE+vdW (tier 2 basis)
N    -0.271070  -2.006567  3.550664
C    -0.912007  -1.847113  2.235895
C    0.050925  -1.190851  1.243270
O    0.209153  0.005540  1.105543
H    0.090199  -1.108477  3.879108
H    0.525589  -2.640383  3.480386
H    -1.164017  -2.847054  1.860575
C    -2.182187  -1.018266  2.387624
C    -3.007534  -0.976279  1.125083
O    -2.752252  -1.557370  0.090442
O    -4.112033  -0.195653  1.279624
H    -1.939911  0.016427  2.673716
H    -2.792058  -1.435196  3.201647
O    0.799568  -2.118452  0.587988
H    1.424249  -1.617593  0.027558
H    -4.582614  -0.224712  0.423878
