16
Energy: -13945.9118086 eV PBE+vdW (tier 2 basis)
N    -0.312081  0.529258  0.317836
C    -0.169376  0.233088  1.725954
C    1.293509  0.386982  2.121716
O    2.234084  0.232027  1.374985
H    0.483954  0.146653  -0.195303
H    -1.166738  0.112580  -0.054455
H    -0.751745  0.954836  2.321725
C    -0.612984  -1.209305  2.171098
C    -2.098128  -1.384766  1.917036
O    -2.578815  -1.529665  0.816554
O    -2.917014  -1.308183  3.008959
H    -0.355311  -1.367003  3.228683
H    -0.069348  -1.945112  1.564663
O    1.427742  0.680631  3.443662
H    2.388516  0.717590  3.618454
H    -2.381264  -1.200610  3.813434
