16
Energy: -13946.0767383 eV PBE+vdW (tier 2 basis)
N    -0.587759  -0.496113  1.044832
C    0.714694  -0.382487  1.714977
C    1.875949  -0.407410  0.706477
O    3.072357  0.071577  1.140530
H    2.994904  0.407997  2.051049
H    -0.490079  -1.147856  0.259764
H    0.728980  0.571399  2.267180
C    0.887096  -1.545560  2.721876
C    -0.178486  -1.607286  3.828572
O    -1.433112  -1.319620  3.443995
O    0.101386  -1.921321  4.964339
H    1.861939  -1.502901  3.221127
H    0.855270  -2.497641  2.166700
O    1.764326  -0.856286  -0.409237
H    -0.861601  0.398807  0.638382
H    -1.398864  -1.040300  2.472437
