23
Energy: -238631.20628 eV PBE+vdW (tier 2 basis)
C    0.157095  0.342854  0.314242
C    -0.258420  -0.549421  1.434269
O    0.369365  -1.690344  1.590849
H    -0.238353  1.357945  0.411028
H    -0.202658  -0.076877  -0.637021
H    1.251573  0.385207  0.261207
N    -1.220201  -0.257327  2.263726
C    -2.088594  0.919956  2.376321
C    -2.692429  0.710393  3.804692
O    -2.483923  -0.377196  4.368599
H    -1.465999  -0.870073  3.089306
H    -1.476382  1.834152  2.362874
C    -3.169967  0.961119  1.290341
H    -3.815919  1.836535  1.427211
H    -3.799975  0.064228  1.333661
H    -2.728705  1.036504  0.289137
N    -3.407114  1.716411  4.311253
C    -4.072517  1.668584  5.613089
H    -3.506229  2.565948  3.764095
H    -3.829645  0.717086  6.092380
H    -5.159069  1.745361  5.485844
H    -3.722929  2.495422  6.242148
Ba    1.442996  -3.667467  1.930749
