23
Energy: -238632.226818 eV PBE+vdW (tier 2 basis)
C    0.453085  -1.073660  0.099292
C    0.071203  -0.590802  1.459362
O    0.898510  0.040046  2.185318
H    0.714501  -0.204545  -0.521224
H    -0.339598  -1.640293  -0.399894
H    1.353902  -1.697019  0.171294
N    -1.174449  -0.826124  1.901658
C    -1.726330  -0.277432  3.149759
C    -1.137420  -1.007682  4.381547
O    -0.166671  -0.441585  4.982810
H    -1.818324  -1.299383  1.271877
H    -1.319567  0.739424  3.249066
C    -3.248285  -0.166089  3.074611
H    -3.656292  0.152870  4.041239
H    -3.737160  -1.105078  2.793627
H    -3.519082  0.594461  2.332223
N    -1.585122  -2.174024  4.821454
C    -2.639229  -3.050689  4.300270
H    -1.114126  -2.497580  5.667020
H    -3.628103  -2.735633  4.654530
H    -2.443169  -4.062134  4.668496
H    -2.622637  -3.081292  3.207047
Ba    1.866361  0.739242  4.305620
