23
Energy: -238631.766555 eV PBE+vdW (tier 2 basis)
C    -0.022235  0.619060  -0.337766
C    0.180445  0.240541  1.093326
O    1.341523  0.029721  1.557600
H    0.787934  0.183181  -0.932702
H    0.039549  1.712909  -0.456265
H    -0.988823  0.285402  -0.730155
N    -0.881775  0.140061  1.926122
C    -1.989059  1.093527  1.937193
C    -1.409034  2.482684  2.321616
O    -0.223149  2.564960  2.787686
H    -0.660729  -0.262031  2.837569
H    -2.414149  1.157099  0.924954
C    -3.065296  0.622129  2.921784
H    -3.924471  1.299728  2.937375
H    -2.668984  0.562487  3.944878
H    -3.424533  -0.369733  2.623720
N    -2.141514  3.573449  2.169074
C    -3.499123  3.715110  1.633497
H    -1.697253  4.432091  2.496006
H    -4.231833  3.768206  2.448783
H    -3.750341  2.883258  0.969819
H    -3.546582  4.644246  1.056076
Ba    2.098432  1.768915  3.141807
