23
Energy: -238631.12311 eV PBE+vdW (tier 2 basis)
C    0.071206  -0.145827  -0.059526
C    -0.000959  0.395721  1.327750
O    1.119410  0.697021  1.939895
H    0.771502  0.453279  -0.654279
H    -0.900857  -0.164962  -0.559999
H    0.463017  -1.173272  -0.027563
N    -1.120109  0.579481  1.968839
C    -2.518250  0.357090  1.579043
C    -3.265870  1.163360  2.687958
O    -2.601753  1.525435  3.676293
H    -1.163084  1.003740  2.936529
H    -2.702408  0.798174  0.589120
C    -2.892662  -1.130511  1.607064
H    -2.297546  -1.702104  0.884631
H    -3.947328  -1.268097  1.345442
H    -2.732013  -1.549970  2.607763
N    -4.571182  1.413654  2.551688
C    -5.468808  1.074666  1.450828
H    -4.979599  1.894586  3.351369
H    -6.192811  1.886570  1.324724
H    -6.018067  0.144753  1.650693
H    -4.918353  0.973433  0.509913
Ba    3.016523  1.267781  3.058825
