23
Energy: -238632.420806 eV PBE+vdW (tier 2 basis)
C    -1.512947  1.428151  -0.024342
C    -1.045131  0.132318  0.553789
O    0.023811  -0.413926  0.142821
H    -2.475959  1.762223  0.375347
H    -1.583665  1.342245  -1.116162
H    -0.754816  2.196106  0.187288
N    -1.774202  -0.431892  1.527863
C    -1.385468  -1.599548  2.339237
C    -1.652988  -2.908468  1.559413
O    -0.832882  -3.260966  0.655560
H    -2.615668  0.060812  1.819124
H    -0.291365  -1.558593  2.452651
C    -2.033323  -1.501480  3.717743
H    -1.746822  -2.353202  4.345946
H    -3.131978  -1.454464  3.668265
H    -1.692724  -0.590839  4.225286
N    -2.723905  -3.620897  1.860938
C    -3.124324  -4.877400  1.227258
H    -3.314414  -3.277732  2.615310
H    -3.266213  -5.643059  1.998713
H    -2.344778  -5.195596  0.532260
H    -4.068162  -4.736171  0.686245
Ba    1.065922  -2.445623  -0.657552
