23
Energy: -238632.347328 eV PBE+vdW (tier 2 basis)
C    0.373597  1.522479  0.125556
C    -0.485846  0.520889  0.828781
O    -0.138666  -0.696966  0.877940
H    1.394838  1.473032  0.524611
H    0.004987  2.550501  0.202543
H    0.431644  1.245403  -0.936979
N    -1.623629  0.956827  1.392192
C    -2.722527  0.174392  2.004173
C    -2.302663  -0.472569  3.339395
O    -1.554617  -1.495289  3.364686
H    -1.804344  1.952257  1.294851
H    -3.487920  0.927772  2.233040
C    -3.355058  -0.842297  1.049654
H    -3.731801  -0.329686  0.156978
H    -4.201281  -1.341206  1.537801
H    -2.646009  -1.608139  0.714412
N    -2.793975  0.064924  4.446349
C    -2.559870  -0.425136  5.805138
H    -3.386370  0.886169  4.351058
H    -3.502559  -0.394447  6.361756
H    -1.822547  0.208460  6.314590
H    -2.193343  -1.453262  5.760888
Ba    0.042958  -2.795111  2.052590
