21
Energy: -102125.858168 eV PBE+vdW (tier 2 basis)
N    -0.505445  1.219838  0.578280
C    -0.069446  0.248638  1.662738
C    1.057264  -0.596168  1.025627
O    0.989647  -0.745998  -0.245059
H    -1.488289  1.511454  0.658446
H    -0.329165  0.728458  -0.325699
H    0.072046  2.072892  0.581794
H    0.294305  0.834684  2.513232
C    -1.246240  -0.691908  2.121411
C    -1.266261  -1.984450  1.369342
N    -1.843167  -2.203033  0.131087
C    -0.420526  -3.059179  1.548834
C    -1.302785  -3.328584  -0.405821
N    -0.400587  -3.861658  0.419436
H    -2.202442  -0.148723  2.080373
H    -1.074939  -0.909913  3.182911
H    -2.607970  -1.675879  -0.282920
H    0.161227  -3.292475  2.437854
H    -1.601769  -3.732175  -1.368342
O    1.873511  -1.200265  1.762348
Sr    2.043544  -2.970478  0.063210
