21
Energy: -102125.122180 eV PBE+vdW (tier 2 basis)
N    0.413205  -0.674778  0.011092
C    -0.171039  -0.421196  1.297255
C    0.848054  -0.622516  2.415693
O    0.631773  -0.306729  3.612347
H    -0.261782  -0.587386  -0.746481
H    1.218426  -0.088661  -0.203153
H    -0.554555  0.609769  1.473076
C    -1.396384  -1.406058  1.462901
C    -2.151975  -1.190413  2.720399
N    -3.015951  -0.135694  2.932871
C    -1.999427  -1.767069  3.966851
C    -3.317429  -0.067422  4.257146
N    -2.695751  -1.039807  4.929300
H    -1.029944  -2.438146  1.402064
H    -2.034384  -1.243760  0.582569
H    -1.485111  -2.696716  4.206787
H    -3.998497  0.665110  4.680810
H    -3.406848  0.467959  2.211520
O    1.986401  -1.137524  2.029228
H    2.622409  -1.210661  2.772391
Sr    -0.445189  -0.249303  5.696335
