21
Energy: -102124.935666 eV PBE+vdW (tier 2 basis)
N    -0.725597  -2.549148  3.166722
C    0.056079  -1.383917  2.811710
C    1.594839  -1.509515  2.899211
O    2.120451  -2.667648  3.022386
H    -2.415965  0.735756  1.506109
H    -0.469231  -2.923821  4.081260
H    -0.124199  -1.165407  1.744004
C    -0.436702  -0.164792  3.632289
C    -1.903293  0.019581  3.490925
N    -2.727719  0.286814  4.475248
C    -2.756613  0.007667  2.264076
C    -4.063643  0.455631  3.957034
N    -4.106607  0.304738  2.694611
H    0.062794  0.753562  3.280391
H    -0.173000  -0.281354  4.693822
H    -2.728749  -0.979631  1.769344
H    -4.888389  0.683844  4.629732
H    -2.470595  0.364333  5.461522
O    2.323006  -0.458041  2.796892
H    -0.612081  -3.307932  2.495441
Sr    4.273215  -1.769723  2.803270
