21
Energy: -102124.120184 eV PBE+vdW (tier 2 basis)
N    -0.400680  0.860665  0.790694
C    -0.105474  0.094368  1.958689
C    1.378324  -0.274464  2.204573
O    1.882501  -0.438048  3.343189
H    -0.209428  0.394234  -0.094081
H    0.000887  1.795469  0.783822
H    -0.385097  0.689664  2.843007
C    -0.996594  -1.197100  1.967724
C    -0.740697  -2.044551  3.165642
N    -0.174989  -3.299954  3.123002
C    -0.757582  -1.720672  4.510312
C    0.166494  -3.680309  4.383940
N    -0.154812  -2.727841  5.261038
H    -0.825106  -1.764902  1.042388
H    -2.035840  -0.843203  1.934279
H    -1.237186  -0.862417  4.980066
H    0.614083  -4.641056  4.620814
H    -0.075298  -3.876300  2.288893
O    2.093660  -0.387534  1.112363
H    3.034751  -0.580938  1.311987
Sr    1.721458  -1.101846  5.598976
