21
Energy: -102124.460849 eV PBE+vdW (tier 2 basis)
N    -0.262816  0.592802  0.112362
C    -0.044594  0.197572  1.558834
C    0.936829  -0.984599  1.638929
O    0.923516  -1.798340  2.524249
H    0.612749  0.508887  -0.420563
H    -0.613921  1.553528  0.029876
H    0.446039  1.040763  2.067926
C    -1.389911  -0.113635  2.227888
C    -2.150888  -1.193163  1.517977
N    -2.151556  -1.247446  0.133859
C    -2.925194  -2.223321  1.994283
C    -2.909027  -2.284440  -0.194321
N    -3.424774  -2.931614  0.897617
H    -1.985171  0.812736  2.272309
H    -1.185965  -0.404123  3.265043
H    -3.137905  -2.501356  3.024161
H    -3.102358  -2.590005  -1.219034
H    -1.016982  -0.104943  -0.258822
O    1.824410  -0.935574  0.616741
H    2.485355  -1.648238  0.734779
Sr    -4.842837  -4.711491  1.208908
