21
Energy: -102124.473941 eV PBE+vdW (tier 2 basis)
N    0.857368  0.945745  1.794280
C    0.450630  -0.498224  1.818637
C    1.683218  -1.391207  1.494507
O    2.835126  -0.879448  1.817174
H    0.156073  1.499371  2.296380
H    0.794984  1.281049  0.825238
H    0.165086  -0.720747  2.860240
C    -0.725531  -0.801166  0.868061
C    -1.438491  -2.152308  1.121945
N    -2.132370  -2.651809  -0.068675
C    -0.626890  -3.384418  1.441873
C    -1.759205  -3.897400  -0.288664
N    -0.872525  -4.381924  0.622292
H    -0.345480  -0.809946  -0.163681
H    -1.476721  -0.002603  0.943496
H    -0.078326  -3.539076  2.366744
H    -2.145801  -4.491144  -1.117148
H    -2.818109  -2.134054  -0.615227
O    1.515603  -2.495002  0.985122
H    -2.181132  -2.041818  1.936532
Sr    3.437491  1.111127  2.479874
