21
Energy: -102125.681062 eV PBE+vdW (tier 2 basis)
N    -0.538207  0.343974  0.101919
C    -0.396950  0.350941  1.607296
C    1.135863  0.083045  1.820470
O    1.630311  0.428109  2.958745
H    -1.386305  -0.119156  -0.246177
H    -0.499126  1.286894  -0.305372
H    -0.673310  1.340865  1.986040
C    -1.312380  -0.751288  2.228996
C    -0.804235  -1.183659  3.566231
N    -0.114073  -2.361820  3.758610
C    -0.613219  -0.470730  4.731512
C    0.486484  -2.324759  4.974053
N    0.225099  -1.165836  5.589762
H    -1.339557  -1.621666  1.556044
H    -2.340308  -0.370881  2.304251
H    -1.029071  0.497755  4.997837
H    1.052538  -3.154118  5.387851
H    -0.087066  -3.151918  3.117070
O    1.723273  -0.449205  0.878940
H    0.347369  -0.180950  -0.183030
Sr    2.205051  0.363072  5.118615
