21
Energy: -102125.256901 eV PBE+vdW (tier 2 basis)
N    -0.798781  0.642379  0.104055
C    -0.134181  0.229116  1.328927
C    1.261468  -0.298315  1.023343
O    1.534449  -0.942730  -0.004275
H    -1.676426  1.114832  0.331894
H    -0.243534  1.325539  -0.414211
H    -0.034285  1.024365  2.093661
C    -0.962006  -0.934893  2.013719
C    -1.049749  -2.131862  1.135547
N    -1.901993  -2.248402  0.061025
C    -0.186601  -3.205931  1.010867
C    -1.529555  -3.313742  -0.689746
N    -0.465260  -3.919060  -0.150070
H    -1.952919  -0.519196  2.245228
H    -0.504320  -1.207158  2.973580
H    0.573193  -3.534450  1.718049
H    -2.056582  -3.631723  -1.584473
H    -2.665480  -1.613428  -0.159961
O    2.215438  -0.152191  1.918847
H    1.947435  0.418126  2.668395
Sr    1.615966  -2.969209  -1.166454
