21
Energy: -102124.392251 eV PBE+vdW (tier 2 basis)
N    0.008464  -0.056470  0.032661
C    0.152388  -0.165488  1.520932
C    1.640038  -0.240732  1.850064
O    2.488550  0.143763  1.017342
H    -0.030509  -1.018360  -0.333773
H    -0.956344  0.273220  -0.127508
H    -0.176947  0.801426  1.944113
C    -0.726049  -1.271824  2.149379
C    -2.158613  -1.069563  1.769532
N    -3.073244  -2.096772  1.649711
C    -2.878637  0.075956  1.463361
C    -4.272628  -1.537983  1.296854
N    -4.179561  -0.229372  1.166906
H    -0.610681  -1.239811  3.250691
H    -0.362451  -2.262018  1.826445
H    -2.550175  1.114381  1.484817
H    -5.169204  -2.131755  1.147894
H    -2.913543  -3.081100  1.843302
O    2.062931  -0.654394  3.010963
H    1.341786  -0.958966  3.601676
Sr    2.080420  1.084812  -1.047180
