21
Energy: -102124.419328 eV PBE+vdW (tier 2 basis)
N    0.131595  0.049028  0.368806
C    -0.281885  0.128558  1.804364
C    0.936830  0.433173  2.658319
O    2.091404  0.249842  2.216763
H    -0.518767  -0.652933  -0.043260
H    -0.153110  0.922606  -0.089130
H    -1.032381  0.924245  1.935967
C    -0.910383  -1.219808  2.292791
C    -1.916928  -1.738332  1.318535
N    -2.176313  -3.087465  1.148090
C    -2.785897  -1.104600  0.437805
C    -3.174480  -3.197097  0.218231
N    -3.546412  -2.017713  -0.238696
H    -1.354437  -1.037016  3.284821
H    -0.110687  -1.963270  2.450967
H    -2.927390  -0.038129  0.275087
H    -3.586219  -4.155738  -0.082740
H    -1.788780  -3.853911  1.690473
O    0.813734  0.841933  3.892509
H    -0.111325  0.990168  4.176260
Sr    2.689010  -0.260467  0.057024
