21
Energy: -102124.407529 eV PBE+vdW (tier 2 basis)
N    0.127109  0.208627  0.953619
C    0.178862  -0.494199  2.264783
C    1.594656  -1.062248  2.411923
O    2.282796  -1.310734  1.414092
H    0.625379  1.101069  1.048316
H    -0.841144  0.483762  0.762520
H    -0.025818  0.188709  3.105676
C    -0.888606  -1.649297  2.324970
C    -0.900813  -2.434121  1.054797
N    -1.787369  -2.197370  0.020013
C    0.058400  -3.269509  0.504015
C    -1.329064  -2.834361  -1.098317
N    -0.185421  -3.468054  -0.847292
H    -1.869771  -1.195578  2.521228
H    -0.675489  -2.298737  3.184719
H    0.884749  -3.765611  1.008949
H    -1.862064  -2.834128  -2.045399
H    -2.684085  -1.719937  0.097896
O    2.077283  -1.343071  3.599336
H    1.503008  -1.065636  4.341171
Sr    1.510403  -1.382572  -0.849014
