21
Energy: -102125.015190 eV PBE+vdW (tier 2 basis)
N    -0.828579  0.103671  1.722252
C    0.468048  -0.567480  1.596962
C    1.654346  0.373398  1.304669
O    1.444088  1.617849  1.098643
H    -0.916894  0.558940  2.631889
H    -0.916727  0.848253  1.025876
H    0.707609  -1.036701  2.565082
C    0.430002  -1.689374  0.528146
C    -0.620306  -2.772905  0.864082
N    -1.978236  -2.240622  0.891817
C    -0.817643  -3.889643  -0.114083
C    -2.721186  -2.930791  0.069623
N    -2.043407  -3.969576  -0.548388
H    1.413872  -2.171024  0.466364
H    0.199786  -1.266175  -0.460910
H    -0.048327  -4.600726  -0.418228
H    -3.772980  -2.719355  -0.120153
H    -2.123855  -1.318377  1.357356
O    2.840789  -0.109582  1.290271
H    -0.391046  -3.215915  1.854338
Sr    3.761646  2.020132  0.969392
