21
Energy: -102124.687704 eV PBE+vdW (tier 2 basis)
N    1.209675  0.164075  0.878937
C    0.551376  -0.353247  2.030313
C    1.353452  -1.520535  2.619427
O    2.288974  -2.054017  1.944778
H    1.300062  -0.475134  0.093036
H    0.884156  1.078209  0.577010
H    0.545258  0.432034  2.803141
C    -0.970967  -0.797560  1.808412
C    -1.873136  -0.659056  2.968191
N    -1.568364  -0.960832  4.212113
C    -3.263325  -0.116749  3.022809
C    -2.687232  -0.653285  5.060177
N    -3.671344  -0.171035  4.409757
H    -1.002918  -1.841288  1.453093
H    -1.365061  -0.192858  0.980944
H    -3.961345  -0.687041  2.381530
H    -2.633910  -0.833659  6.132034
H    -0.650317  -1.353476  4.478448
O    1.087341  -1.953455  3.811205
H    -3.318301  0.919432  2.638456
Sr    3.069925  -3.317522  3.722188
