21
Energy: -102124.624525 eV PBE+vdW (tier 2 basis)
N    -0.183961  -0.027275  -0.009198
C    0.033172  -0.503012  1.404160
C    1.551875  -0.665983  1.564092
O    2.286224  -0.715533  0.600780
H    0.575444  -0.431308  -0.588579
H    -1.170290  -0.348426  -0.309756
H    -0.352188  0.262183  2.089232
C    -0.691193  -1.849565  1.628217
C    -2.150203  -1.807242  1.283974
N    -2.572318  -1.181967  0.123042
C    -3.244409  -2.358031  1.909795
C    -3.882506  -1.360812  0.068704
N    -4.370076  -2.081538  1.131378
H    -0.547983  -2.136910  2.676860
H    -0.190323  -2.622578  1.021129
H    -3.297739  -2.916317  2.840627
H    -4.508734  -0.972995  -0.731505
H    -0.103697  0.992869  -0.083015
O    1.900019  -0.776793  2.846107
H    2.869660  -0.910335  2.904070
Sr    -6.489776  -2.906435  1.473886
