21
Energy: -102124.559062 eV PBE+vdW (tier 2 basis)
N    1.239261  0.758364  0.745355
C    0.598661  -0.506177  1.235725
C    1.652327  -1.390774  1.971028
O    2.683884  -0.753413  2.428758
H    0.511953  1.468288  0.611436
H    1.593271  0.588231  -0.204238
H    -0.114740  -0.204057  2.020376
C    -0.152184  -1.247367  0.106239
C    -0.717704  -2.621776  0.513518
N    -1.992341  -2.684455  1.195703
C    -0.921343  -3.674032  -0.491511
C    -2.701523  -3.673953  0.676351
N    -2.072918  -4.296207  -0.359821
H    0.555280  -1.439124  -0.715624
H    -0.952434  -0.615853  -0.303507
H    -0.186907  -3.976408  -1.238525
H    -3.679018  -3.970338  1.054152
H    -2.263638  -2.144544  2.014477
O    1.447556  -2.596046  2.124448
H    0.108897  -2.999804  1.239840
Sr    3.366659  1.318448  2.258820
