21
Energy: -102125.951751 eV PBE+vdW (tier 2 basis)
N    -0.019180  2.377230  1.050616
C    -0.341034  1.240989  2.003165
C    0.643036  0.100307  1.666782
O    0.910660  -0.739889  2.568847
H    0.302523  1.929479  0.166332
H    0.753609  2.962705  1.398861
H    -0.177739  1.596634  3.025815
C    -1.830909  0.759737  1.795883
C    -1.925194  -0.731343  1.822025
N    -2.029581  -1.503955  2.958508
C    -1.574382  -1.620635  0.825741
C    -1.689589  -2.779626  2.646785
N    -1.376896  -2.886745  1.352915
H    -2.184279  1.096181  0.809880
H    -2.473949  1.237522  2.545543
H    -1.479125  -1.417304  -0.238688
H    -1.697363  -3.590831  3.368212
H    -2.303309  -1.182186  3.884130
O    1.022322  0.001717  0.456276
H    -0.820674  2.995912  0.864939
Sr    1.173050  -2.489897  0.926432
