21
Energy: -102124.457110 eV PBE+vdW (tier 2 basis)
N    0.800078  0.922953  1.482354
C    0.473826  -0.514170  1.754485
C    1.781080  -1.358935  1.833460
O    2.828435  -0.684301  2.234575
H    -0.003232  1.511407  1.725164
H    0.907973  1.045893  0.468311
H    0.046078  -0.546049  2.770853
C    -0.567211  -1.070842  0.758647
C    -1.047717  -2.534050  1.022235
N    -2.472585  -2.741050  0.728657
C    -0.486074  -3.624958  0.155675
C    -2.600485  -3.741831  -0.108944
N    -1.400577  -4.298743  -0.486960
H    -0.175766  -1.008002  -0.266947
H    -1.454961  -0.423855  0.795018
H    0.577486  -3.847435  0.090145
H    -3.564535  -4.105136  -0.466216
H    -3.245515  -2.223480  1.145753
O    1.740837  -2.548058  1.576807
H    -0.864092  -2.816620  2.076492
Sr    3.211959  1.426259  2.554437
