21
Energy: -102124.948525 eV PBE+vdW (tier 2 basis)
N    -0.600967  -2.140385  4.504027
C    -0.094659  -1.573532  3.265692
C    1.432978  -1.743399  3.170907
O    2.209127  -0.941015  3.803161
H    -2.805493  -1.210367  4.522356
H    -0.070136  -1.856429  5.327907
H    -0.530244  -2.137259  2.430366
C    -0.467463  -0.058223  3.133139
C    -1.930151  0.148728  3.134370
N    -2.652850  0.583666  2.122180
C    -2.910582  -0.147094  4.210311
C    -4.042022  0.582676  2.494311
N    -4.217617  0.166793  3.686814
H    -0.012839  0.356422  2.223481
H    -0.026127  0.471383  3.991973
H    -2.708628  0.411889  5.141510
H    -4.800172  0.913442  1.786937
H    -2.292012  0.878593  1.212939
O    1.900075  -2.743022  2.522637
H    -0.669715  -3.156436  4.475331
Sr    4.087498  -2.207435  3.149649
