21
Energy: -102124.427738 eV PBE+vdW (tier 2 basis)
N    1.000687  0.625423  1.109152
C    0.509280  -0.384472  2.106830
C    1.693558  -1.338202  2.459885
O    2.825538  -0.719233  2.611996
H    0.311727  1.380830  1.032448
H    1.019074  0.203900  0.174129
H    0.340868  0.184119  3.034801
C    -0.835237  -1.076992  1.788207
C    -0.726824  -2.452350  1.083533
N    -1.901908  -3.290202  1.166996
C    -0.423301  -2.604845  -0.347000
C    -2.130380  -3.833200  -0.013309
N    -1.235884  -3.430072  -0.966281
H    -1.493150  -0.402608  1.223375
H    -1.331910  -1.263756  2.750069
H    0.425389  -2.162669  -0.869365
H    -2.934955  -4.541933  -0.203453
H    -2.424856  -3.489900  2.019156
O    1.523132  -2.548468  2.587031
H    0.145810  -2.927772  1.667567
Sr    3.501344  1.235399  1.893234
