21
Energy: -102124.697862 eV PBE+vdW (tier 2 basis)
N    0.704728  0.376214  0.103874
C    0.488627  0.139403  1.484731
C    1.703036  -0.591788  2.067359
O    2.364116  -1.392759  1.323849
H    0.085407  1.053871  -0.331628
H    0.839358  -0.449652  -0.474782
H    0.397385  1.099779  2.007625
C    -0.864872  -0.722731  1.822143
C    -1.449364  -0.414517  3.129391
N    -2.497145  0.365754  3.330553
C    -0.988501  -0.791064  4.500449
C    -2.732391  0.502689  4.739909
N    -1.884039  -0.144285  5.437145
H    -0.612901  -1.789428  1.753494
H    -1.567485  -0.489112  1.013604
H    -1.003528  -1.886224  4.648385
H    -3.563855  1.104937  5.102075
H    -3.074519  0.786413  2.599892
O    2.064767  -0.368807  3.278199
H    0.059312  -0.483589  4.674306
Sr    4.139271  -1.435892  2.837771
