21
Energy: -102124.458027 eV PBE+vdW (tier 2 basis)
N    0.403144  -0.122908  0.320575
C    -0.024780  0.045451  1.738387
C    1.200499  0.131338  2.621932
O    2.289848  -0.357106  2.248752
H    -0.327873  -0.730602  -0.111532
H    0.307538  0.777643  -0.160476
H    -0.642577  0.948745  1.851280
C    -0.889550  -1.208949  2.199120
C    -1.884757  -1.595540  1.172174
N    -3.128577  -1.017256  0.993847
C    -1.768530  -2.495343  0.117111
C    -3.693612  -1.597233  -0.110399
N    -2.888102  -2.483774  -0.664892
H    -1.345861  -0.973736  3.170556
H    -0.213618  -2.060160  2.370244
H    -0.962990  -3.205649  -0.062297
H    -4.691436  -1.342002  -0.454858
H    -3.595068  -0.366839  1.619466
O    1.140944  0.636588  3.826758
H    0.271489  1.022003  4.055511
Sr    2.823844  -1.055798  0.126960
