21
Energy: -102124.004928 eV PBE+vdW (tier 2 basis)
N    0.417924  0.307897  0.289312
C    0.132605  -0.075049  1.650117
C    1.335331  -0.724364  2.365519
O    2.345035  -1.094503  1.836836
H    0.995715  1.146460  0.245905
H    0.918463  -0.427013  -0.214366
H    -0.136579  0.832621  2.212071
C    -1.096797  -1.049123  1.658057
C    -2.012386  -0.935184  2.826744
N    -1.587431  -0.932294  4.143805
C    -3.380398  -0.820505  2.901494
C    -2.639109  -0.822357  4.962606
N    -3.776762  -0.754283  4.242549
H    -0.753309  -2.091010  1.555853
H    -1.667688  -0.817809  0.750446
H    -4.085212  -0.782619  2.075605
H    -2.559745  -0.789702  6.044008
H    -0.582477  -0.966594  4.389414
O    1.128596  -0.855820  3.734723
H    1.943479  -1.256671  4.102624
Sr    -6.062855  -0.607848  4.782362
