21
Energy: -102124.894496 eV PBE+vdW (tier 2 basis)
N    -0.828192  -2.571334  2.838046
C    0.040828  -1.395093  2.803432
C    1.510340  -1.766554  3.058791
O    1.998269  -1.740898  4.245569
H    -2.205865  1.055648  1.750237
H    -0.720975  -3.113678  3.696662
H    0.001804  -0.982324  1.785443
C    -0.483007  -0.358666  3.818266
C    -1.919477  -0.051921  3.594872
N    -2.816110  0.087024  4.541976
C    -2.654006  0.223947  2.323469
C    -4.087087  0.442157  3.958314
N    -4.020415  0.528944  2.690709
H    0.077077  0.587857  3.718254
H    -0.314620  -0.709874  4.846250
H    -2.628711  -0.650728  1.648840
H    -4.957129  0.600811  4.592907
H    -2.646544  -0.035036  5.542736
O    2.211707  -2.175384  2.067087
H    -0.669608  -3.192122  2.044299
Sr    4.059720  -2.554779  3.433842
