21
Energy: -102125.148265 eV PBE+vdW (tier 2 basis)
N    0.238290  -0.330705  0.011803
C    -0.204334  -0.344655  1.370261
C    0.850807  -0.631625  2.457218
O    0.722724  -0.303180  3.662766
H    0.601599  -1.218798  -0.330176
H    0.895842  0.414748  -0.206543
H    -0.588924  0.657955  1.620936
C    -1.407171  -1.360120  1.506469
C    -2.132767  -1.205880  2.791454
N    -3.042880  -0.198538  3.040776
C    -1.905652  -1.777170  4.028855
C    -3.297038  -0.148336  4.375024
N    -2.600581  -1.087516  5.020429
H    -1.040201  -2.389715  1.399571
H    -2.048323  -1.154522  0.638886
H    -1.339839  -2.682376  4.245288
H    -3.998215  0.547336  4.826877
H    -3.491384  0.383730  2.335035
O    1.917114  -1.253594  2.017346
H    2.579166  -1.394787  2.726946
Sr    -0.359234  -0.239251  5.750779
