21
Energy: -102125.158493 eV PBE+vdW (tier 2 basis)
N    0.152066  -2.434315  2.047605
C    1.384483  -2.348831  1.191768
C    2.208652  -1.130603  1.618600
O    1.917905  -0.527229  2.712051
H    -0.140559  -3.405184  2.235514
H    0.312997  -1.960441  2.949685
H    2.020083  -3.225819  1.383470
C    0.871099  -2.337865  -0.259669
C    -0.554896  -1.726043  -0.215261
N    -1.580694  -2.560363  -0.824347
C    -1.036001  -1.772578  1.271465
C    -2.418779  -3.019600  0.140251
N    -2.174952  -2.631204  1.360614
H    0.811368  -3.367930  -0.631266
H    1.561167  -1.792220  -0.911268
H    -1.189868  -0.798036  1.752427
H    -3.244840  -3.683873  -0.114162
H    -1.731983  -2.651941  -1.822300
O    3.200619  -0.781947  0.904323
H    -0.575039  -0.708805  -0.625142
Sr    3.873172  0.837826  2.476642
