21
Energy: -102125.134295 eV PBE+vdW (tier 2 basis)
N    1.031104  1.796495  2.904420
C    1.494512  0.734476  3.868168
C    2.175683  -0.369889  3.050473
O    2.522808  -0.115033  1.842083
H    1.082409  2.743464  3.299861
H    1.588544  1.748802  2.035805
H    2.279350  1.170002  4.505246
C    0.299158  0.276734  4.750631
C    -0.915513  -0.013679  3.937839
N    -1.273589  -1.267290  3.476713
C    -1.840528  0.847209  3.357094
C    -2.388530  -1.110729  2.689521
N    -2.736896  0.152625  2.583479
H    0.084642  1.081558  5.467839
H    0.631632  -0.583667  5.344824
H    -1.967828  1.914290  3.537482
H    -2.903434  -1.952246  2.235415
H    -0.901932  -2.150759  3.811660
O    2.439429  -1.483181  3.601419
H    0.019011  1.575768  2.678422
Sr    3.678970  -2.204952  1.714608
