21
Energy: -102124.351741 eV PBE+vdW (tier 2 basis)
N    0.277551  -0.470109  0.056521
C    -0.019641  -0.045213  1.432297
C    1.289855  0.454300  2.060798
O    2.244440  -0.252050  2.377306
H    0.772814  0.266249  -0.450382
H    -0.598945  -0.609179  -0.450636
H    -0.730539  0.794745  1.501390
C    -0.647730  -1.225371  2.222176
C    0.022106  -2.550415  2.036696
N    1.392333  -2.700716  2.084455
C    -0.475001  -3.814084  1.830281
C    1.709817  -3.980718  1.910033
N    0.588243  -4.723141  1.752203
H    -1.694465  -1.325167  1.904717
H    -0.681219  -0.972892  3.293622
H    -1.513345  -4.117541  1.734343
H    2.729448  -4.351573  1.894732
H    2.001235  -1.834217  2.191558
O    1.290927  1.774723  2.206975
H    2.150690  2.056847  2.586002
Sr    0.275004  -7.011567  1.437995
