21
Energy: -102124.443045 eV PBE+vdW (tier 2 basis)
N    0.212015  -0.320696  -0.161086
C    0.009562  -0.251982  1.337315
C    1.273480  0.163268  2.100671
O    1.304712  0.212371  3.301046
H    1.049272  -0.867883  -0.396890
H    0.334465  0.610309  -0.574881
H    -0.742409  0.532665  1.505308
C    -0.531308  -1.600491  1.844538
C    -1.823054  -1.984693  1.187177
N    -2.021339  -1.736601  -0.160834
C    -2.939271  -2.615927  1.683455
C    -3.224123  -2.211007  -0.448821
N    -3.849547  -2.772229  0.635032
H    -0.648819  -1.517135  2.931528
H    0.230506  -2.381303  1.677439
H    -3.143791  -2.953846  2.696466
H    -3.670847  -2.158286  -1.438420
H    -0.678379  -0.817843  -0.541755
O    2.290894  0.450210  1.255714
H    3.069134  0.720936  1.786497
Sr    -5.847152  -3.889837  0.862500
