21
Energy: -102124.463554 eV PBE+vdW (tier 2 basis)
N    -0.269392  1.395626  0.664867
C    -0.089409  0.081483  1.213437
C    1.256144  0.013560  1.940616
O    2.179994  0.843173  1.643085
H    0.471147  1.695497  0.033665
H    -1.185637  1.559189  0.253995
H    -0.861206  -0.082935  1.983063
C    -0.197499  -1.061221  0.145076
C    -0.293393  -2.521820  0.695204
N    -1.572346  -2.843681  1.324106
C    -0.323447  -3.526897  -0.405681
C    -2.154952  -3.809098  0.645269
N    -1.421787  -4.237904  -0.431785
H    0.667469  -1.014160  -0.532222
H    -1.090528  -0.862741  -0.462758
H    0.459618  -3.650530  -1.154893
H    -3.123700  -4.230496  0.913218
H    -1.940719  -2.419005  2.173229
O    1.439939  -0.871051  2.857104
H    0.527762  -2.702530  1.412129
Sr    3.431942  0.246542  3.507279
