21
Energy: -102124.520569 eV PBE+vdW (tier 2 basis)
N    -0.340511  1.157645  1.726377
C    -0.100201  -0.263847  1.818469
C    1.404481  -0.522792  1.916432
O    1.896272  -1.671624  1.614811
H    -1.261170  1.428205  2.066662
H    0.369200  1.702299  2.213405
H    -0.507057  -0.735319  2.745218
C    -0.767291  -0.948522  0.589068
C    -1.387944  -2.347846  0.858018
N    -2.201437  -2.819137  -0.262568
C    -0.464108  -3.514459  0.969184
C    -1.758118  -3.987931  -0.659167
N    -0.687054  -4.442964  0.077442
H    -0.073644  -1.006918  -0.259445
H    -1.586587  -0.284588  0.284466
H    0.323676  -3.603148  1.713940
H    -2.194852  -4.548248  -1.485674
H    -2.992151  -2.316657  -0.666577
O    2.167550  0.417088  2.330052
H    -2.022798  -2.290531  1.765223
Sr    4.078745  -0.877707  2.119661
