21
Energy: -102124.950611 eV PBE+vdW (tier 2 basis)
N    -0.449117  -1.615366  4.905372
C    0.005715  -1.407162  3.557600
C    1.533870  -1.523295  3.343867
O    2.299625  -1.656755  4.357878
H    -2.613879  -0.676810  4.816670
H    0.193246  -1.231680  5.599360
H    -0.438471  -2.172425  2.902820
C    -0.438514  0.005837  2.992772
C    -1.908675  0.140491  2.994890
N    -2.696822  0.128813  1.938735
C    -2.821518  0.201986  4.161271
C    -4.066914  0.186617  2.371348
N    -4.166494  0.228961  3.642375
H    -0.022720  0.140933  1.986607
H    -0.016225  0.777510  3.653810
H    -2.627077  1.062358  4.826015
H    -4.873785  0.192032  1.640995
H    -2.391628  0.087006  0.964601
O    2.005376  -1.506981  2.152919
H    -0.595470  -2.599427  5.121737
Sr    4.170476  -1.933643  2.964359
