21
Energy: -102125.511570 eV PBE+vdW (tier 2 basis)
N    0.121123  0.959992  0.751209
C    -0.052335  0.669249  2.200964
C    1.164805  -0.151219  2.641678
O    1.799141  -0.830579  1.824969
H    -0.740300  1.383344  0.392708
H    0.822242  1.703515  0.654556
H    -0.102560  1.592167  2.801919
C    -1.381776  -0.133976  2.457307
C    -1.553887  -1.218796  1.446069
N    -2.313207  -1.077887  0.298731
C    -0.823595  -2.378173  1.237111
C    -1.995401  -2.092176  -0.559435
N    -1.062951  -2.883255  -0.032851
H    -2.219429  0.576285  2.424672
H    -1.369675  -0.544745  3.475940
H    -0.171778  -2.895535  1.938121
H    -2.476745  -2.229783  -1.523995
H    -3.057693  -0.397537  0.154458
O    1.519121  -0.187277  3.904721
H    1.013764  0.421268  4.480262
Sr    1.116136  -1.356878  -0.406116
