21
Energy: -102125.752059 eV PBE+vdW (tier 2 basis)
N    0.538530  -1.251298  0.146033
C    0.147432  -0.390037  1.297786
C    1.419553  -0.099421  2.087845
O    2.380935  -0.884965  2.108638
H    -0.314618  -1.615259  -0.290490
H    0.947907  -0.647216  -0.576062
H    -0.292499  0.565028  0.975410
C    -0.905426  -1.101732  2.219943
C    -0.376935  -2.396156  2.741123
N    0.288357  -2.543102  3.942371
C    -0.130135  -3.581208  2.065601
C    0.940707  -3.742554  3.935047
N    0.734256  -4.389445  2.790439
H    -1.812579  -1.269153  1.622313
H    -1.191386  -0.412432  3.025248
H    -0.576851  -3.922880  1.132873
H    1.527136  -4.106062  4.774344
H    0.250613  -1.898414  4.729887
O    1.375288  1.022970  2.763784
H    2.205660  1.173930  3.267286
Sr    2.344599  -3.083393  1.072216
