21
Energy: -102125.184274 eV PBE+vdW (tier 2 basis)
N    -0.294927  0.411246  0.895810
C    0.663108  0.048916  1.938728
C    1.990652  -0.563068  1.442600
O    2.264332  -0.541245  0.194668
H    0.053495  1.186089  0.329452
H    -0.458043  -0.364511  0.249386
H    0.966557  0.981094  2.446628
C    0.013945  -0.864845  3.011625
C    -1.224894  -0.307109  3.617920
N    -2.044630  0.498328  2.992225
C    -1.819896  -0.525803  4.968330
C    -3.143758  0.818538  3.861143
N    -3.045245  0.245108  4.996518
H    0.738697  -1.097850  3.801918
H    -0.260933  -1.838129  2.563751
H    -2.020797  -1.593100  5.175262
H    -3.938945  1.480839  3.525068
H    -1.811162  0.784376  2.010355
O    2.815749  -1.045928  2.295471
H    -1.138755  -0.205165  5.778443
Sr    4.399446  -1.441781  0.603698
