21
Energy: -102125.304862 eV PBE+vdW (tier 2 basis)
N    -0.447881  -1.652239  1.913904
C    0.797471  -1.742689  1.070181
C    1.938746  -0.945398  1.681063
O    1.688921  -0.092709  2.605273
H    -0.504365  -2.391982  2.629332
H    -0.467319  -0.739650  2.395729
H    1.087396  -2.798901  0.995941
C    0.343545  -1.209371  -0.305137
C    -1.090810  -1.743640  -0.467676
N    -1.173870  -3.136936  -0.899774
C    -1.682994  -1.876306  0.969940
C    -1.826256  -3.854328  0.058597
N    -2.126973  -3.226253  1.157755
H    1.018751  -1.541289  -1.100595
H    0.328311  -0.109598  -0.306744
H    -2.428417  -1.129221  1.266527
H    -2.058956  -4.907270  -0.102780
H    -1.153603  -3.406960  -1.878222
O    3.115894  -1.126449  1.233190
H    -1.688255  -1.086640  -1.112646
Sr    4.019666  0.447833  2.727142
