21
Energy: -102124.516462 eV PBE+vdW (tier 2 basis)
N    -0.011533  1.009232  0.592061
C    0.172381  -0.301881  1.161793
C    1.626144  -0.470843  1.610888
O    2.326758  0.571179  1.850133
H    0.583934  1.712972  1.024246
H    -0.978886  1.325037  0.606806
H    -0.411224  -0.482210  2.097380
C    -0.257504  -1.341464  0.091485
C    -0.498499  -2.792075  0.592350
N    -1.736415  -2.986020  1.347453
C    -0.749601  -3.770767  -0.504267
C    -2.480605  -3.878058  0.732985
N    -1.904003  -4.376454  -0.410476
H    0.501243  -1.376854  -0.701223
H    -1.179341  -0.976365  -0.380040
H    -0.059953  -3.971572  -1.325275
H    -3.457890  -4.197489  1.095018
H    -1.982586  -2.518636  2.218415
O    2.130381  -1.643911  1.771803
H    0.368957  -3.102320  1.207502
Sr    4.204242  -0.672499  2.409962
