21
Energy: -102124.063806 eV PBE+vdW (tier 2 basis)
N    -0.469170  -0.966964  0.070716
C    -0.069798  -0.247706  1.286728
C    1.448057  -0.125531  1.556751
O    1.932763  -0.089067  2.663720
H    -0.084203  -0.487293  -0.745229
H    -0.039984  -1.896117  0.060929
H    -0.423827  0.792308  1.179193
C    -0.731520  -0.856296  2.535725
C    -2.218278  -0.790930  2.503820
N    -3.000103  -0.634679  3.636414
C    -3.127396  -0.870117  1.474133
C    -4.303432  -0.619006  3.306995
N    -4.429871  -0.758806  1.980688
H    -0.340792  -0.343037  3.424596
H    -0.416886  -1.908608  2.640490
H    -2.848138  -0.988831  0.422133
H    -5.109390  -0.506105  4.023420
H    -2.640458  -0.539217  4.585023
O    2.138131  -0.030587  0.401655
H    3.083861  0.086891  0.626382
Sr    -5.833779  -1.016135  0.140183
