21
Energy: -102124.368553 eV PBE+vdW (tier 2 basis)
N    -0.666804  0.735666  0.007095
C    -0.140792  0.286616  1.297439
C    1.344392  -0.079050  1.181019
O    1.781940  -1.152163  0.755737
H    -0.285950  0.208052  -0.778491
H    -0.458030  1.719779  -0.157404
H    -0.207229  1.129839  1.995468
C    -1.011296  -0.846759  1.899869
C    -1.287973  -2.011510  1.007677
N    -0.285210  -2.687036  0.339821
C    -2.448134  -2.667733  0.676383
C    -0.809585  -3.694646  -0.358516
N    -2.150134  -3.734519  -0.181573
H    -1.972521  -0.398719  2.179245
H    -0.545183  -1.208991  2.830598
H    -3.459793  -2.433435  0.996541
H    -0.226639  -4.370566  -0.975179
H    0.706636  -2.298797  0.393359
O    2.136792  0.931700  1.520044
H    3.071215  0.680585  1.359711
Sr    -3.864702  -5.147315  -0.897842
