23
Energy: -237156.442015 eV PBE+vdW (tier 2 basis)
N    0.158816  0.117208  0.249746
C    0.035330  -0.110645  1.727123
C    1.434429  -0.122873  2.331459
O    2.439809  0.166416  1.642444
H    0.042591  -0.796282  -0.205777
H    -0.669917  0.640212  -0.050912
H    -0.459606  0.783118  2.146893
C    -0.815593  -1.362936  2.101240
C    -1.824249  -1.188548  3.262873
C    -1.171136  -0.949401  4.630783
C    -2.883432  -0.126237  2.952709
H    -0.152005  -2.220249  2.294084
H    -1.397606  -1.624824  1.204790
H    -2.334915  -2.162679  3.320978
H    -1.917666  -0.997065  5.434069
H    -0.741310  0.066564  4.727842
H    -0.426997  -1.723948  4.889305
H    -2.464492  0.892954  2.912175
H    -3.650059  -0.106785  3.737171
H    -3.395864  -0.326431  2.002116
O    1.615600  -0.412287  3.583867
H    0.771064  -0.615869  4.067654
Ba    2.686020  1.077373  -0.575777
