23
Energy: -237156.433393 eV PBE+vdW (tier 2 basis)
N    0.287400  0.295774  0.194785
C    0.255896  0.016566  1.669251
C    1.696934  -0.092648  2.164074
O    2.660191  0.177401  1.410770
H    0.102293  -0.595316  -0.281919
H    -0.537101  0.861704  -0.029846
H    -0.157245  0.917230  2.156876
C    -0.629000  -1.206542  2.055313
C    -1.538985  -1.041909  3.294092
C    -2.438703  -2.278094  3.417501
C    -0.779823  -0.794182  4.604854
H    -0.000975  -2.106615  2.161731
H    -1.287741  -1.400951  1.195571
H    -2.183130  -0.164584  3.108979
H    -3.149140  -2.156141  4.244032
H    -1.849503  -3.184377  3.618752
H    -3.021877  -2.449274  2.503368
H    -1.472892  -0.761907  5.455439
H    -0.267117  0.184880  4.643370
H    -0.082886  -1.620145  4.842149
O    1.957062  -0.451977  3.383345
H    1.140336  -0.627091  3.923591
Ba    2.789536  1.179420  -0.779016
