23
Energy: -237156.415764 eV PBE+vdW (tier 2 basis)
N    -0.242547  -0.900373  -0.232107
C    -0.119841  -0.211387  1.088958
C    1.347856  0.041913  1.370372
O    2.236340  -0.652009  0.833159
H    -1.139487  -1.400093  -0.224828
H    -0.365191  -0.187179  -0.960544
H    -0.653063  0.754185  1.074777
C    -0.703441  -1.084263  2.236616
C    -2.224597  -0.929335  2.474877
C    -2.575758  0.458451  3.021253
C    -3.086877  -1.295904  1.260406
H    -0.183970  -0.840069  3.175125
H    -0.449323  -2.137287  2.019284
H    -2.442641  -1.662729  3.268298
H    -3.637741  0.505524  3.291849
H    -2.414865  1.257725  2.279735
H    -2.000975  0.700745  3.925769
H    -4.145656  -1.337394  1.544344
H    -2.840421  -2.290373  0.853161
H    -3.025149  -0.544178  0.456355
O    1.720627  0.956557  2.227836
H    0.975638  1.474065  2.596356
Ba    2.059346  -2.402685  -0.847546
