23
Energy: -237156.523148 eV PBE+vdW (tier 2 basis)
N    0.432118  -0.071652  0.360375
C    0.212984  0.069772  1.827609
C    1.549174  -0.179733  2.521500
O    2.445365  -0.839218  1.967599
H    -0.483169  -0.063684  -0.101789
H    0.902513  0.771418  0.012891
H    -0.114043  1.092949  2.079614
C    -0.906596  -0.894115  2.316789
C    -0.856212  -2.376753  1.878415
C    0.160267  -3.241784  2.646512
C    -2.258548  -2.994500  2.004103
H    -1.849627  -0.458157  1.954696
H    -0.967563  -0.841776  3.414545
H    -0.630758  -2.399975  0.783723
H    -0.158810  -3.363753  3.691391
H    1.181200  -2.828390  2.726161
H    0.213190  -4.259760  2.231517
H    -2.991660  -2.466305  1.382083
H    -2.602792  -2.948368  3.046580
H    -2.256821  -4.049632  1.703707
O    1.762548  0.263709  3.735040
H    1.036629  0.816707  4.088475
Ba    2.074613  -2.334000  0.019461
