23
Energy: -237156.440913 eV PBE+vdW (tier 2 basis)
N    -0.054406  -0.356549  -0.318134
C    -0.194192  -0.169223  1.160954
C    1.182417  -0.282869  1.796092
O    2.115893  -0.874774  1.212641
H    -0.941492  -0.739497  -0.662545
H    0.003268  0.568801  -0.758082
H    -0.599204  0.831139  1.379040
C    -1.160963  -1.232041  1.747565
C    -1.429428  -1.190804  3.266953
C    -1.897158  0.187641  3.755868
C    -2.470108  -2.265843  3.613128
H    -0.788857  -2.234596  1.474581
H    -2.119064  -1.089963  1.219529
H    -0.499349  -1.464337  3.794764
H    -2.816035  0.505895  3.242540
H    -1.169434  1.010546  3.613110
H    -2.111969  0.160387  4.830555
H    -2.148603  -3.264166  3.287666
H    -3.439378  -2.048343  3.142680
H    -2.629793  -2.308512  4.696987
O    1.410969  0.206805  2.982489
H    0.611905  0.621240  3.380874
Ba    2.266324  -1.812584  -1.018642
