23
Energy: -237156.340455 eV PBE+vdW (tier 2 basis)
N    -0.310225  0.159039  -0.101067
C    0.018365  -0.155943  1.326448
C    1.504085  0.113884  1.516395
O    2.304545  -0.064200  0.574684
H    -1.206508  -0.292480  -0.314257
H    -0.509312  1.163191  -0.180767
H    -0.557801  0.490665  2.006312
C    -0.355345  -1.635229  1.606807
C    -0.155772  -2.212373  3.029791
C    1.269495  -2.712252  3.301040
C    -0.688460  -1.289549  4.133660
H    0.181371  -2.273895  0.881511
H    -1.426808  -1.702026  1.356365
H    -0.803157  -3.103850  3.036709
H    1.305838  -3.235742  4.264415
H    2.018728  -1.911078  3.356089
H    1.594562  -3.431053  2.535942
H    -0.712573  -1.820804  5.092634
H    -1.708184  -0.934676  3.930553
H    -0.055066  -0.401033  4.312028
O    1.977675  0.532942  2.657109
H    1.286235  0.605351  3.350646
Ba    1.858016  -0.508511  -1.777435
