23
Energy: -237157.08255 eV PBE+vdW (tier 2 basis)
N    1.109519  0.100533  -0.015916
C    0.482380  -0.080955  1.357134
C    1.447937  -0.943259  2.181765
O    1.090176  -1.321864  3.337036
H    1.047698  1.066776  -0.358622
H    2.104253  -0.191082  0.052964
H    0.491464  0.907366  1.841715
C    -0.969767  -0.573341  1.257107
C    -1.241200  -1.777830  0.333281
C    -0.446178  -3.035061  0.710034
C    -2.750736  -2.060092  0.316323
H    -1.591308  0.276776  0.939707
H    -1.285349  -0.808868  2.283964
H    -0.976624  -1.503693  -0.710971
H    -0.723109  -3.872143  0.057685
H    -0.664423  -3.336293  1.744765
H    0.644036  -2.909315  0.604408
H    -2.985951  -2.866628  -0.388178
H    -3.326659  -1.175566  0.015806
H    -3.100941  -2.369488  1.311033
O    2.608986  -1.199344  1.702318
H    0.631573  -0.512418  -0.696264
Ba    3.249226  -2.452208  3.865908
