23
Energy: -237156.448501 eV PBE+vdW (tier 2 basis)
N    0.560933  0.479889  0.633353
C    0.337092  0.098887  2.058887
C    1.588956  -0.619211  2.558786
O    2.424722  -1.090164  1.768574
H    -0.348164  0.704115  0.218031
H    1.076132  1.367106  0.613309
H    0.221128  1.006048  2.677418
C    -0.965297  -0.722695  2.271600
C    -1.233095  -2.051058  1.520358
C    -1.527471  -1.909139  0.020909
C    -0.238353  -3.182802  1.803896
H    -1.794183  -0.029095  2.061021
H    -1.040578  -0.924919  3.351134
H    -2.187835  -2.383422  1.960741
H    -2.260343  -1.119846  -0.194619
H    -1.925234  -2.846072  -0.388484
H    -0.633684  -1.666012  -0.592546
H    -0.635624  -4.143722  1.454627
H    -0.011248  -3.291342  2.872648
H    0.740943  -3.056240  1.302117
O    1.801055  -0.767677  3.842859
H    1.132954  -0.330420  4.408395
Ba    2.104193  -1.486209  -0.646009
