23
Energy: -237156.423609 eV PBE+vdW (tier 2 basis)
N    0.037273  0.368196  0.261788
C    0.346329  -0.061476  1.662217
C    1.821904  -0.439690  1.736160
O    2.617248  -0.129218  0.824502
H    -0.383893  -0.438025  -0.217282
H    -0.734093  1.041808  0.312634
H    0.253718  0.835089  2.301989
C    -0.603147  -1.146127  2.212343
C    -2.098329  -0.756856  2.231321
C    -2.910950  -1.926870  2.802054
C    -2.355246  0.537120  3.010957
H    -0.318182  -1.374795  3.255894
H    -0.460624  -2.078531  1.640783
H    -2.430197  -0.611133  1.186840
H    -3.983949  -1.705849  2.757685
H    -2.655031  -2.110903  3.855278
H    -2.739946  -2.856602  2.243242
H    -2.017137  0.450612  4.054037
H    -3.428703  0.760117  3.036659
H    -1.868313  1.424443  2.573276
O    2.303326  -1.063455  2.775912
H    1.610126  -1.308816  3.424296
Ba    2.313656  1.132764  -1.223839
