23
Energy: -237157.013654 eV PBE+vdW (tier 2 basis)
N    -0.374193  -0.188174  -0.088654
C    -0.464440  -0.038534  1.427015
C    0.880662  0.529230  1.885573
O    1.878340  0.462886  1.082242
H    -0.845870  -1.045597  -0.407435
H    -0.785796  0.607718  -0.593213
H    -1.260160  0.683626  1.648481
C    -0.794576  -1.410284  2.051854
C    -1.107798  -1.413919  3.563234
C    -2.252281  -0.460283  3.923776
C    -1.422209  -2.854876  3.988994
H    0.029246  -2.110525  1.835664
H    -1.687622  -1.788759  1.523208
H    -0.202740  -1.090809  4.103135
H    -2.503009  -0.555814  4.987174
H    -3.164940  -0.695643  3.356322
H    -2.001031  0.596935  3.756040
H    -1.586282  -2.904513  5.072023
H    -0.604368  -3.546298  3.744094
H    -2.335529  -3.224502  3.501421
O    0.980129  1.020112  3.050335
H    0.636678  -0.234447  -0.327865
Ba    3.419446  1.521683  2.870793
