23
Energy: -237156.418105 eV PBE+vdW (tier 2 basis)
N    0.919981  -0.635053  0.479237
C    0.353588  -0.229958  1.803833
C    1.423793  -0.429110  2.875401
O    2.621016  -0.612092  2.569816
H    0.567215  -1.582982  0.289310
H    0.466098  -0.061968  -0.239361
H    0.225593  0.867598  1.780123
C    -1.033087  -0.845697  2.106063
C    -1.163902  -2.376067  1.975931
C    -0.183638  -3.154857  2.860351
C    -2.616881  -2.780447  2.266224
H    -1.753682  -0.357788  1.433145
H    -1.358818  -0.532954  3.115236
H    -0.972872  -2.651469  0.919413
H    -0.338500  -2.936924  3.927019
H    0.876825  -2.954741  2.629800
H    -0.325875  -4.234850  2.731564
H    -2.758110  -3.855598  2.104302
H    -3.325369  -2.249337  1.617665
H    -2.884818  -2.563836  3.310125
O    1.128803  -0.317092  4.141170
H    0.166961  -0.212287  4.295918
Ba    3.736678  -0.735489  0.422711
