23
Energy: -237156.343496 eV PBE+vdW (tier 2 basis)
N    0.792409  -0.156820  0.222463
C    0.080563  -0.040446  1.533898
C    0.981437  0.746572  2.474713
O    2.222903  0.663582  2.377447
H    0.336983  -0.909485  -0.305619
H    0.608795  0.687339  -0.332630
H    -0.875527  0.494244  1.412300
C    -0.219996  -1.459013  2.079066
C    -0.896812  -1.556983  3.467128
C    -1.832856  -2.773249  3.500116
C    0.124159  -1.626669  4.611783
H    0.719433  -2.043311  2.090945
H    -0.871121  -1.925124  1.322481
H    -1.531196  -0.660073  3.603583
H    -2.316470  -2.860274  4.480385
H    -1.275487  -3.704813  3.325292
H    -2.624649  -2.700020  2.743069
H    -0.385308  -1.618342  5.582925
H    0.841567  -0.794304  4.626864
H    0.695620  -2.564877  4.556441
O    0.486467  1.509536  3.411555
H    -0.492284  1.512059  3.432864
Ba    3.566269  -0.428295  0.658567
