23
Energy: -237157.07655 eV PBE+vdW (tier 2 basis)
N    0.648129  0.373391  0.397667
C    0.220472  -0.218056  1.734956
C    1.346549  -1.142393  2.213173
O    1.172226  -1.803729  3.282020
H    0.234218  -0.177946  -0.373809
H    0.355825  1.352632  0.294648
H    0.197358  0.621736  2.446455
C    -1.175636  -0.852941  1.668305
C    -1.339746  -2.174067  0.888634
C    -2.802034  -2.626118  0.998407
C    -0.909146  -2.097558  -0.586853
H    -1.869393  -0.092109  1.272099
H    -1.484568  -1.011431  2.710698
H    -0.715604  -2.937368  1.385513
H    -2.941809  -3.606249  0.526332
H    -3.475688  -1.917753  0.495222
H    -3.123325  -2.710001  2.044555
H    -1.207307  -3.007133  -1.123642
H    0.184995  -2.036656  -0.727378
H    -1.402983  -1.265516  -1.118118
O    2.441755  -1.182781  1.551575
H    1.678220  0.297634  0.319195
Ba    3.472752  -2.765120  3.316422
