23
Energy: -237156.975208 eV PBE+vdW (tier 2 basis)
N    0.730228  0.319245  0.619622
C    -0.221719  0.464148  1.801160
C    0.640244  0.789346  3.023216
O    0.132649  1.473821  3.960946
H    1.596273  -0.130226  0.970066
H    0.321028  -0.263979  -0.124101
H    -0.891623  1.306763  1.591513
C    -1.019234  -0.849044  1.950808
C    -1.903146  -0.957162  3.219255
C    -3.168222  -1.768713  2.905722
C    -1.151474  -1.601720  4.394676
H    -0.319723  -1.701311  1.916738
H    -1.662042  -0.923203  1.059726
H    -2.215730  0.058035  3.512217
H    -3.794519  -1.874176  3.800041
H    -2.918231  -2.779726  2.554003
H    -3.775475  -1.278595  2.133783
H    -0.933624  -2.660144  4.194177
H    -1.747707  -1.551940  5.314089
H    -0.176467  -1.118865  4.597891
O    1.818675  0.295659  3.077866
H    0.989936  1.225214  0.205406
Ba    1.910901  0.852570  5.600178
