23
Energy: -237157.057927 eV PBE+vdW (tier 2 basis)
N    1.224212  -1.638087  -0.531347
C    0.283034  -0.752363  0.273897
C    1.143275  0.057367  1.251993
O    0.563822  0.853779  2.050767
H    2.191763  -1.300633  -0.365543
H    1.159031  -2.616400  -0.197357
H    -0.126506  -0.011429  -0.429794
C    -0.891713  -1.537067  0.879121
C    -0.606833  -2.725019  1.829266
C    0.033647  -3.950756  1.150525
C    0.156098  -2.338152  3.102111
H    -1.516361  -1.885660  0.042322
H    -1.499473  -0.787703  1.406121
H    -1.614428  -3.041420  2.141430
H    -0.418747  -4.183250  0.174924
H    -0.098975  -4.845779  1.771606
H    1.133035  -3.867385  1.042988
H    -0.318044  -1.492660  3.617802
H    1.208564  -2.084483  2.888033
H    0.181768  -3.182150  3.802635
O    2.418681  -0.052121  1.193864
H    1.014798  -1.625134  -1.536472
Ba    2.669354  1.676507  3.093109
