23
Energy: -237157.110438 eV PBE+vdW (tier 2 basis)
N    -0.116222  -0.947248  0.883784
C    0.467358  -0.415072  2.184521
C    1.910812  0.000782  1.903004
O    2.527402  0.686253  2.776423
H    0.656339  -1.358042  0.330604
H    -0.841640  -1.657150  1.087031
H    -0.113186  0.471111  2.474681
C    0.397644  -1.486670  3.287894
C    -1.010661  -1.802627  3.849345
C    -1.650499  -0.593630  4.538724
C    -1.970031  -2.443716  2.832146
H    1.024916  -1.114765  4.110176
H    0.879545  -2.407678  2.917620
H    -0.814289  -2.563114  4.621814
H    -1.924298  0.201548  3.827018
H    -0.989309  -0.158246  5.299347
H    -2.579753  -0.888350  5.041653
H    -1.505205  -3.264217  2.259864
H    -2.419942  -1.705453  2.142850
H    -2.830706  -2.889596  3.346274
O    2.466002  -0.384318  0.815147
H    -0.545312  -0.207983  0.312780
Ba    4.676035  0.754179  1.516301
