23
Energy: -237156.549437 eV PBE+vdW (tier 2 basis)
N    0.596761  -0.517380  0.175571
C    0.130794  0.047065  1.474577
C    1.369099  0.401105  2.295237
O    2.437023  -0.212374  2.128555
H    -0.217520  -0.902542  -0.313059
H    0.910435  0.254827  -0.423326
H    -0.466038  0.960307  1.312641
C    -0.754387  -0.950112  2.272026
C    -0.147618  -2.314164  2.681407
C    -0.846898  -2.843538  3.945331
C    -0.225353  -3.387449  1.576346
H    -1.674650  -1.111933  1.688516
H    -1.082342  -0.424777  3.180723
H    0.911388  -2.149095  2.983600
H    -0.706747  -2.162993  4.793958
H    -0.456688  -3.827199  4.234913
H    -1.925991  -2.953000  3.769421
H    0.319360  -4.302395  1.857767
H    0.102797  -3.058455  0.570547
H    -1.267263  -3.699519  1.416725
O    1.314312  1.312074  3.234237
H    0.458388  1.784177  3.278310
Ba    2.745139  -2.252631  0.743976
