23
Energy: -237156.407422 eV PBE+vdW (tier 2 basis)
N    -0.298542  -0.472046  -0.058776
C    -0.189693  0.070149  1.329667
C    1.265255  0.415613  1.594956
O    2.182740  -0.169298  0.983075
H    -1.168671  -1.016583  -0.096716
H    -0.468000  0.309746  -0.702601
H    -0.808121  0.976384  1.445319
C    -0.637819  -0.981103  2.383463
C    -2.155578  -1.045273  2.666798
C    -3.016446  -1.307711  1.424593
C    -2.406882  -2.104208  3.747902
H    -0.122230  -0.777544  3.333912
H    -0.269243  -1.971459  2.054020
H    -2.444912  -0.063171  3.078948
H    -4.067758  -1.432278  1.712455
H    -2.726932  -2.243516  0.916140
H    -3.007544  -0.476823  0.701575
H    -3.465162  -2.110372  4.035799
H    -1.819295  -1.912306  4.655214
H    -2.158761  -3.113422  3.387577
O    1.599605  1.284329  2.513532
H    0.834570  1.722300  2.938798
Ba    2.064046  -1.783367  -0.838267
