23
Energy: -237157.107082 eV PBE+vdW (tier 2 basis)
N    -0.265220  0.601832  1.496976
C    0.636841  0.066858  2.598847
C    2.083616  0.258742  2.140013
O    3.013783  0.117636  2.992994
H    0.201111  0.437105  0.588366
H    -1.182411  0.123679  1.532922
H    0.459894  0.671582  3.498987
C    0.330742  -1.416450  2.878249
C    -0.962302  -1.711173  3.671553
C    -2.244682  -1.178537  3.011786
C    -1.058870  -3.225067  3.899579
H    1.184200  -1.804067  3.451744
H    0.326881  -1.966344  1.919831
H    -0.859142  -1.222303  4.654974
H    -2.348823  -1.521691  1.966549
H    -2.346615  -0.080712  3.065001
H    -3.130565  -1.560187  3.534846
H    -0.161353  -3.619741  4.393392
H    -1.192818  -3.766234  2.951667
H    -1.918062  -3.461874  4.538808
O    2.314615  0.515049  0.907405
H    -0.430728  1.613273  1.578568
Ba    4.858911  0.484622  1.357944
