23
Energy: -237156.454739 eV PBE+vdW (tier 2 basis)
N    1.083246  0.166013  0.875844
C    0.268605  0.046626  2.126369
C    1.134647  -0.601708  3.200217
O    2.151123  -1.254471  2.903698
H    0.430445  0.241938  0.089563
H    1.558079  1.075661  0.892572
H    0.003950  1.056232  2.482392
C    -1.081497  -0.691363  1.887775
C    -1.166630  -2.229403  1.734648
C    -0.186807  -2.868544  0.735881
C    -1.133955  -2.984644  3.070641
H    -1.515132  -0.206366  0.998000
H    -1.755508  -0.406017  2.708878
H    -2.170390  -2.383562  1.307546
H    -0.544539  -3.855508  0.416580
H    0.775296  -3.079786  1.248966
H    -0.036372  -2.273459  -0.180091
H    -1.364325  -4.046624  2.917048
H    -1.883175  -2.592522  3.769916
H    -0.152671  -2.941744  3.565582
O    0.821328  -0.487656  4.466502
H    0.023070  0.053955  4.628933
Ba    3.045211  -1.821047  0.674540
