13
Properties=species:S:1:pos:R:3:Z:I:1:forces:R:3 magmom=0 energy=-8809.14401675 dipole="-0.4189474 0.6056472 -0.7596223" pbc="F F F"
C      -0.37945857      -0.30622100       0.34957884        6       0.01110346       0.00043457       0.01259249 
C      -0.72382444       1.17158297       0.12825701        6       0.00361626      -0.00660213      -0.00554926 
C       1.11658064      -0.43344286       0.54567220        6      -0.01168628       0.02788727      -0.00272979 
N      -0.79618760      -1.20490876      -0.71926375        7       0.00978644      -0.00206064       0.03214820 
O       1.78034301      -0.30979391      -0.62092741        8      -0.01413032      -0.02621656      -0.00370825 
H      -0.82702093      -0.64833059       1.28116989        1       0.00247186      -0.00945847       0.00535077 
H      -0.36273069       1.79542407       0.94642653        1       0.00005122      -0.02124924       0.01763304 
H      -0.27779915       1.52474818      -0.80092944        1       0.01076953       0.00598445      -0.02021623 
H      -1.80479435       1.28804851       0.06024863        1      -0.01100561      -0.00105014      -0.00562259 
O       1.67365169      -0.57426694       1.59529367        8      -0.00163754       0.01105991      -0.00150101 
H      -1.79618572      -1.14459278      -0.86126228        1       0.00177041       0.00420602       0.00050316 
H      -0.34096545      -0.95538665      -1.58819218        1      -0.00285007       0.02110105      -0.03753472 
H       2.72403256      -0.38254755      -0.43139686        1       0.00174059      -0.00403617       0.00863423 
