13
Properties=species:S:1:pos:R:3:Z:I:1:forces:R:3 magmom=0 energy=-8809.1450263 dipole="-0.4208016 0.5946287 -0.7603644" pbc="F F F"
C      -0.38015567      -0.30991480       0.34796391        6       0.01386920      -0.00183356       0.01230983 
C      -0.71519973       1.16948452       0.12104218        6       0.00875929      -0.01308969      -0.00503309 
C       1.11580183      -0.44366685       0.53735721        6      -0.00679085       0.03075801       0.00287784 
N      -0.80933401      -1.21149020      -0.71367421        7      -0.01226720       0.01142501       0.03392427 
O       1.77428024      -0.35225085      -0.63512804        8      -0.02082707      -0.02753065       0.01039333 
H      -0.82343747      -0.64348558       1.28489034        1      -0.00459302      -0.00942829      -0.00416138 
H      -0.35052365       1.79356353       0.93738334        1       0.00277988      -0.02096807       0.01590983 
H      -0.26600606       1.51592371      -0.80928757        1       0.00629540       0.00828975      -0.01881698 
H      -1.79522643       1.29265027       0.05216441        1      -0.01502990      -0.00080614      -0.00770534 
O       1.67709319      -0.56209242       1.58771257        8       0.00023464       0.00825602      -0.01487841 
H      -1.81038649      -1.14482563      -0.84790338        1       0.01536903      -0.00054790       0.00057279 
H      -0.36039168      -0.96728574      -1.58758386        1      -0.00053021       0.01719230      -0.02934709 
H       2.71800096      -0.42687809      -0.44724638        1       0.01273082      -0.00171678       0.00395441 
