13
Properties=species:S:1:pos:R:3:Z:I:1:forces:R:3 magmom=0 energy=-8809.14529297 dipole="-0.4222205 0.592411 -0.7619171" pbc="F F F"
C      -0.38051319      -0.31040045       0.34785828        6       0.02033738      -0.02054291       0.01170474 
C      -0.71066801       1.16883933       0.11710546        6       0.00004741      -0.01256457      -0.00345150 
C       1.11567886      -0.44820967       0.53442887        6      -0.00299132      -0.01237842       0.00594583 
N      -0.81511804      -1.21451754      -0.70980616        7      -0.00256889       0.02205950       0.02173729 
O       1.77126009      -0.37426360      -0.64086866        8      -0.02508548      -0.00853169       0.00813857 
H      -0.82367388      -0.64111781       1.28583773        1       0.00207329      -0.00071466       0.00216945 
H      -0.34562787       1.79520071       0.93119347        1       0.02031110      -0.02128442       0.01862826 
H      -0.26144591       1.50953000      -0.81500459        1       0.00986075       0.02044624      -0.02357882 
H      -1.78978852       1.29522170       0.04939174        1      -0.03709994      -0.00091876      -0.01799135 
O       1.67899651      -0.56063763       1.58443723        8      -0.00200289       0.02395276      -0.01969969 
H      -1.81637314      -1.14669799      -0.84062717        1       0.00477454       0.00043986       0.00652412 
H      -0.37036032      -0.97297502      -1.58677971        1       0.00438337       0.01477701      -0.02127881 
H       2.71556438      -0.44951154      -0.45610752        1       0.00796075      -0.00473993       0.01115185 
