13
Properties=species:S:1:pos:R:3:Z:I:1:forces:R:3 magmom=0 energy=-8809.14215277 dipole="-0.4739925 0.5771716 -0.7427675" pbc="F F F"
C      -0.37577247      -0.30570399       0.35122752        6       0.00918424      -0.00926888      -0.00598393 
C      -0.70344612       1.17098912       0.10263288        6       0.02212162      -0.01124395      -0.00603808 
C       1.12077209      -0.46023865       0.53739161        6      -0.02036921       0.01267754      -0.01975667 
N      -0.80776784      -1.20976495      -0.70773146        7      -0.01549522      -0.00965017       0.03633087 
O       1.77058832      -0.37583220      -0.64011723        8      -0.02890506      -0.01579177       0.00437720 
H      -0.82607672      -0.63399485       1.28695738        1       0.01705526       0.00737089      -0.00706899 
H      -0.34726138       1.80715934       0.91316456        1      -0.00137148      -0.01317788       0.01418776 
H      -0.23801714       1.49780825      -0.82707896        1       0.01440024       0.02804184      -0.00884891 
H      -1.78176706       1.29884576       0.00880146        1       0.00949987      -0.01769490       0.02462593 
O       1.68765177      -0.60219282       1.58201138        8      -0.03177493       0.02057700      -0.01892990 
H      -1.81778011      -1.21681771      -0.77089083        1       0.02123078       0.01953149      -0.03800147 
H      -0.43514152      -0.90817211      -1.60059362        1      -0.02779610      -0.02823395       0.00518139 
H       2.71240859      -0.49172716      -0.46665364        1       0.03221999       0.01686268       0.01992477 
