13
Properties=species:S:1:pos:R:3:Z:I:1:forces:R:3 magmom=0 energy=-8809.14517052 dipole="-0.4220864 0.594029 -0.7617276" pbc="F F F"
C      -0.38031971      -0.30987284       0.34796718        6       0.02068581      -0.02076408       0.01248394 
C      -0.71201726       1.16919617       0.11831798        6       0.00032596      -0.01302125      -0.00381665 
C       1.11589672      -0.44661855       0.53537709        6      -0.00266582      -0.01159691       0.00684520 
N      -0.81311961      -1.21365241      -0.71082497        7      -0.00385408       0.02378975       0.02324622 
O       1.77224862      -0.36791467      -0.63922278        8      -0.02737927      -0.00926502       0.00805989 
H      -0.82378373      -0.64190880       1.28533221        1       0.00208774      -0.00112815       0.00214754 
H      -0.34786544       1.79543738       0.93292015        1       0.02011693      -0.02204793       0.01859797 
H      -0.26308109       1.51115903      -0.81342407        1       0.01083376       0.02040839      -0.02428921 
H      -1.79124047       1.29443278       0.05044207        1      -0.03797304      -0.00094421      -0.01761088 
O       1.67858764      -0.56218696       1.58539757        8      -0.00300084       0.02420709      -0.02161460 
H      -1.81433195      -1.14643126      -0.84264214        1       0.00675573       0.00003204       0.00633453 
H      -0.36756905      -0.97105868      -1.58709400        1       0.00394988       0.01509603      -0.02213386 
H       2.71644416      -0.44323612      -0.45416683        1       0.01011724      -0.00476569       0.01174984 
