13
Properties=species:S:1:pos:R:3:Z:I:1:forces:R:3 magmom=0 energy=-8809.14450656 dipole="-0.4205623 0.6005601 -0.7597319" pbc="F F F"
C      -0.37991710      -0.30768139       0.34873646        6       0.01348050      -0.00106675       0.01175822 
C      -0.71935354       1.17088026       0.12425074        6       0.00204372      -0.01029927      -0.00455687 
C       1.11610532      -0.43848638       0.54182454        6      -0.01300068       0.02576837      -0.00568250 
N      -0.80230874      -1.20785334      -0.71658970        7       0.01023479      -0.00083412       0.03436845 
O       1.77792244      -0.32985315      -0.62728781        8      -0.01606456      -0.02392278      -0.00158791 
H      -0.82585821      -0.64580500       1.28264849        1       0.00054199      -0.00776468       0.00180862 
H      -0.35747575       1.79525103       0.94167178        1       0.00567319      -0.02218970       0.01458469 
H      -0.27133735       1.51998733      -0.80564098        1       0.00735881       0.00965974      -0.01624634 
H      -1.79983943       1.29061021       0.05561466        1      -0.01391512      -0.00117417      -0.00983694 
O       1.67473708      -0.56984087       1.59179594        8       0.00465797       0.01010048       0.00483455 
H      -1.80266395      -1.14669736      -0.85453054        1      -0.00654927       0.00504337       0.00307468 
H      -0.35124237      -0.96018428      -1.58810510        1       0.00402403       0.02041034      -0.03994214 
H       2.72170144      -0.40334516      -0.43842392        1       0.00151459      -0.00373088       0.00742355 
