13
Properties=species:S:1:pos:R:3:Z:I:1:forces:R:3 magmom=0 energy=-8809.14502902 dipole="-0.4213645 0.5955098 -0.7618095" pbc="F F F"
C      -0.38035117      -0.30957718       0.34820321        6       0.01972957      -0.02295769       0.01049242 
C      -0.71306349       1.16958765       0.11963508        6       0.00126812      -0.01529992      -0.00292741 
C       1.11608989      -0.44537224       0.53640607        6      -0.00256792      -0.00832307       0.01077627 
N      -0.81172385      -1.21279237      -0.71179513        7      -0.00479938       0.02595292       0.01857026 
O       1.77290791      -0.36284212      -0.63781022        8      -0.03353783      -0.00883169       0.00993649 
H      -0.82468370      -0.64328323       1.28457091        1       0.00526860       0.00109375       0.00397693 
H      -0.34961718       1.79566926       0.93471649        1       0.02177354      -0.02352755       0.01794126 
H      -0.26384634       1.51197090      -0.81177575        1       0.01036612       0.02307488      -0.02462454 
H      -1.79233596       1.29480072       0.05158748        1      -0.03628536      -0.00460402      -0.01860862 
O       1.67846670      -0.56275543       1.58648250        8      -0.00824368       0.02460890      -0.03043400 
H      -1.81300631      -1.14579772      -0.84465694        1       0.01708447       0.00025284       0.00422525 
H      -0.36443645      -0.97062414      -1.58753709        1      -0.00364264       0.01548735      -0.01329296 
H       2.71717519      -0.43618160      -0.45276118        1       0.01358643      -0.00692666       0.01396870 
