13
Properties=species:S:1:pos:R:3:Z:I:1:forces:R:3 magmom=0 energy=-8809.14140174 dipole="-0.4011693 0.4014194 -0.7544106" pbc="F F F"
C      -0.39316209      -0.34350405       0.35934262        6      -0.01180224       0.01593410      -0.01566990 
C      -0.65175436       1.14282416       0.07446401        6       0.01532511       0.00972211      -0.00004880 
C       1.10235433      -0.53915966       0.50645310        6      -0.01923880       0.00508508      -0.01032447 
N      -0.93883696      -1.25064630      -0.63814664        7       0.00583013      -0.01509685      -0.00297734 
O       1.68644131      -0.94936140      -0.63325853        8      -0.02924332       0.01182954      -0.00020353 
H      -0.81553082      -0.60043124       1.33126733        1       0.00396037       0.02349161      -0.01299430 
H      -0.22319995       1.77831698       0.84875043        1       0.00656989      -0.01094714       0.00333945 
H      -0.21934822       1.41620422      -0.88941165        1       0.01415773       0.01498475       0.01483599 
H      -1.72618152       1.32432926       0.02897697        1       0.03349736      -0.01432614       0.01225732 
O       1.72335598      -0.30022434       1.50251614        8      -0.02799356      -0.01281500      -0.00178363 
H      -1.92711662      -1.07117228      -0.76308818        1      -0.00174259      -0.01405468       0.00739413 
H      -0.48502712      -1.10102868      -1.53171037        1      -0.01034689      -0.03855735       0.00050209 
H       2.63359096      -1.02524743      -0.46384327        1       0.02102669       0.02475011       0.00567309 
