13
Properties=species:S:1:pos:R:3:Z:I:1:forces:R:3 magmom=0 energy=-8809.07774886 dipole="-0.7677918 -0.066073 0.0632207" pbc="F F F"
C      -0.36376738      -0.33315183       0.25442467        6       0.00051653       0.02296021       0.01842473 
C      -0.62941777       1.15993054       0.14387053        6      -0.01042989       0.02576163       0.00724732 
C       1.13171493      -0.58747274       0.40303767        6       0.00155917      -0.00578498       0.03230000 
N      -0.88152147      -1.12977161      -0.85420976        7      -0.01703320       0.03804662       0.02435910 
O       1.40703700      -1.88300670       0.60261305        8      -0.01898858      -0.01216672       0.04144007 
H      -0.81434122      -0.72314927       1.17021893        1       0.02395692      -0.02175873       0.00590366 
H      -0.25842903       1.70100440       1.01174655        1       0.02921226      -0.01582987       0.02857051 
H      -0.12098636       1.56655099      -0.73033764        1      -0.02143385      -0.00535242      -0.02632995 
H      -1.69935478       1.33697075       0.05025648        1      -0.02431544      -0.00082584      -0.01550910 
O       1.98020115       0.26051304       0.37776942        8      -0.00761473      -0.00309833      -0.03247360 
H      -1.83594741      -1.40809426      -0.67978854        1      -0.02109693       0.00199219      -0.03952722 
H      -0.86914919      -0.59404335      -1.71285115        1       0.03493430      -0.02553188      -0.02083679 
H       2.36243120      -1.96104113       0.71077462        1       0.03073343       0.00158807      -0.02356869 
