13
Properties=species:S:1:pos:R:3:Z:I:1:forces:R:3 magmom=0 energy=-8809.14525215 dipole="-0.4216845 0.5929321 -0.7620538" pbc="F F F"
C      -0.38048666      -0.31025887       0.34793995        6       0.02024394      -0.02040294       0.01211807 
C      -0.71125294       1.16892088       0.11762609        6      -0.00001635      -0.01261424      -0.00324432 
C       1.11572600      -0.44758185       0.53471907        6      -0.00166587      -0.01254292       0.00830178 
N      -0.81449271      -1.21426223      -0.71010524        7      -0.00255131       0.02508209       0.01500110 
O       1.77152504      -0.37231313      -0.64041209        8      -0.02651887      -0.00891052       0.00912315 
H      -0.82370672      -0.64140650       1.28574198        1       0.00230541      -0.00094334       0.00220071 
H      -0.34633899       1.79524898       0.93181776        1       0.01985571      -0.02175457       0.01850495 
H      -0.26234875       1.51009570      -0.81443651        1       0.01026518       0.02031537      -0.02417094 
H      -1.79044440       1.29483682       0.05010024        1      -0.03698398      -0.00071616      -0.01782844 
O       1.67888525      -0.56074238       1.58477260        8      -0.00334495       0.02433328      -0.02310116 
H      -1.81570350      -1.14590761      -0.84191361        1       0.01011621       0.00014779       0.00639881 
H      -0.36855051      -0.97277283      -1.58671267        1      -0.00081329       0.01268341      -0.01468357 
H       2.71579128      -0.44751937      -0.45555422        1       0.00910824      -0.00467725       0.01137981 
