13
Properties=species:S:1:pos:R:3:Z:I:1:forces:R:3 magmom=0 energy=-8809.14240584 dipole="-0.4735681 0.5743494 -0.7431981" pbc="F F F"
C      -0.37592381      -0.30641846       0.35101559        6       0.00953417      -0.00915827      -0.00604826 
C      -0.70225741       1.17052925       0.10181884        6       0.02177925      -0.01143282      -0.00567900 
C       1.12069071      -0.46146315       0.53606010        6      -0.02084399       0.01256483      -0.01991109 
N      -0.81020360      -1.21094523      -0.70654932        7      -0.01369164      -0.00844458       0.03632419 
O       1.76947610      -0.38475332      -0.64248561        8      -0.03189017      -0.01559832       0.00391641 
H      -0.82549988      -0.63318405       1.28764353        1       0.01702050       0.00712355      -0.00731695 
H      -0.34542921       1.80645739       0.91221680        1      -0.00063810      -0.01247597       0.01440060 
H      -0.23677601       1.49685967      -0.82805031        1       0.01450416       0.02704143      -0.00913796 
H      -1.78046421       1.29927362       0.00825352        1       0.00844073      -0.01735855       0.02408527 
O       1.68850688      -0.59716092       1.58100207        8      -0.03101471       0.01943991      -0.01732024 
H      -1.82021632      -1.21565223      -0.76959218        1       0.01997007       0.01966534      -0.03727277 
H      -0.43710256      -0.91128450      -1.59984837        1      -0.02750237      -0.02860003       0.00425039 
H       2.71132205      -0.50010570      -0.46899617        1       0.03433205       0.01723354       0.01970946 
