13
Properties=species:S:1:pos:R:3:Z:I:1:forces:R:3 magmom=0 energy=-8809.07774886 dipole="-0.7677917 -0.0660732 0.0632207" pbc="F F F"
C      -0.36376733      -0.33315184       0.25442463        6       0.00051530       0.02296124       0.01842463 
C      -0.62941775       1.15993052       0.14387053        6      -0.01043014       0.02576359       0.00724758 
C       1.13171496      -0.58747271       0.40303770        6       0.00156020      -0.00578509       0.03229887 
N      -0.88152149      -1.12977159      -0.85420976        7      -0.01703382       0.03804528       0.02435904 
O       1.40703703      -1.88300668       0.60261307        8      -0.01898986      -0.01216656       0.04144012 
H      -0.81434118      -0.72314921       1.17021888        1       0.02395656      -0.02175935       0.00590444 
H      -0.25842903       1.70100442       1.01174657        1       0.02921210      -0.01583054       0.02857015 
H      -0.12098636       1.56655109      -0.73033759        1      -0.02143369      -0.00535283      -0.02633016 
H      -1.69935476       1.33697081       0.05025648        1      -0.02431498      -0.00082651      -0.01550900 
O       1.98020117       0.26051309       0.37776943        8      -0.00761509      -0.00309895      -0.03247319 
H      -1.83594745      -1.40809430      -0.67978858        1      -0.02109575       0.00199266      -0.03952686 
H      -0.86914922      -0.59404343      -1.71285121        1       0.03493456      -0.02553126      -0.02083699 
H       2.36243121      -1.96104118       0.71077466        1       0.03073456       0.00158832      -0.02356858 
