13
Properties=species:S:1:pos:R:3:Z:I:1:forces:R:3 magmom=0 energy=-8809.14448207 dipole="-0.4223635 0.6006337 -0.7607132" pbc="F F F"
C      -0.37939922      -0.30692232       0.34856351        6       0.02572229      -0.01402269       0.01655775 
C      -0.71838514       1.17140024       0.12287395        6       0.00282801      -0.01664090      -0.00161954 
C       1.11677483      -0.43991048       0.54103658        6      -0.00634836       0.01037384       0.00571016 
N      -0.80286407      -1.20879144      -0.71556435        7      -0.02189377       0.01481043       0.03832754 
O       1.77780019      -0.33547890      -0.62898677        8      -0.03567725      -0.01714818      -0.00020219 
H      -0.82421949      -0.64518933       1.28312638        1      -0.00217783      -0.00066792      -0.00260638 
H      -0.35789376       1.79772765       0.93915485        1       0.01977466      -0.02487177       0.01854568 
H      -0.27110206       1.51866017      -0.80771568        1       0.01301534       0.01658084      -0.02254539 
H      -1.79827325       1.29172162       0.05488659        1      -0.03508790      -0.00461215      -0.01658125 
O       1.67534585      -0.57263806       1.59115929        8      -0.00181623       0.01912284      -0.02044253 
H      -1.80435092      -1.14822110      -0.84982925        1       0.01606405      -0.00079519       0.00403056 
H      -0.35613132      -0.96002203      -1.58907369        1       0.00844983       0.02191701      -0.03585136 
H       2.72139195      -0.41284778      -0.44257988        1       0.01714715      -0.00404599       0.01667695 
