13
Properties=species:S:1:pos:R:3:Z:I:1:forces:R:3 magmom=0 energy=-8809.14239768 dipole="-0.4735873 0.5744403 -0.7431819" pbc="F F F"
C      -0.37591892      -0.30639450       0.35101998        6       0.00954414      -0.00919951      -0.00604317 
C      -0.70229360       1.17054442       0.10184332        6       0.02180054      -0.01144753      -0.00567458 
C       1.12069410      -0.46142217       0.53610258        6      -0.02083936       0.01252503      -0.01990533 
N      -0.81012729      -1.21090789      -0.70658986        7      -0.01363065      -0.00846474       0.03645758 
O       1.76951571      -0.38446552      -0.64240903        8      -0.03187489      -0.01558572       0.00392381 
H      -0.82551751      -0.63320721       1.28762047        1       0.01701952       0.00712206      -0.00732333 
H      -0.34548819       1.80647870       0.91224701        1      -0.00066118      -0.01248723       0.01440882 
H      -0.23681156       1.49689095      -0.82801725        1       0.01453275       0.02709331      -0.00918398 
H      -1.78050182       1.29925958       0.00826433        1       0.00841244      -0.01735325       0.02410780 
O       1.68847702      -0.59732367       1.58103645        8      -0.03104088       0.01949035      -0.01739043 
H      -1.82013795      -1.21570159      -0.76962505        1       0.01989180       0.01966416      -0.03730779 
H      -0.43705305      -0.91117834      -1.59987511        1      -0.02748042      -0.02856876       0.00419707 
H       2.71135939      -0.49983523      -0.46891966        1       0.03432613       0.01721179       0.01973353 
