13
Properties=species:S:1:pos:R:3:Z:I:1:forces:R:3 magmom=0 energy=-8809.14359226 dipole="-0.4700436 0.5605791 -0.7453096" pbc="F F F"
C      -0.37724282      -0.31035652       0.35048758        6       0.02300947      -0.01711404      -0.00482277 
C      -0.69525087       1.16767529       0.09763513        6       0.02141009      -0.01738529      -0.00311325 
C       1.11986786      -0.46993830       0.52866648        6      -0.02691806       0.00630625      -0.02664023 
N      -0.82452019      -1.21703787      -0.69941000        7      -0.00362613      -0.00336161       0.03576898 
O       1.76194978      -0.43640734      -0.65533030        8      -0.03793457      -0.01069810       0.00055844 
H      -0.82280624      -0.62833681       1.29219411        1       0.01775023       0.00515126      -0.01065080 
H      -0.33430860       1.80222743       0.90662169        1       0.00464835      -0.00176768       0.02407288 
H      -0.22976150       1.49057937      -0.83310609        1       0.01925381       0.02493297      -0.02040592 
H      -1.77251656       1.30099002       0.00567908        1      -0.00841378      -0.00950264       0.02092225 
O       1.69349745      -0.57282770       1.57402626        8      -0.02437941       0.01670112      -0.00173210 
H      -1.83435370      -1.20748104      -0.76249368        1       0.01220456       0.02006659      -0.03581660 
H      -0.44740280      -0.92886610      -1.59480683        1      -0.02992672      -0.03189449       0.00176074 
H       2.70444043      -0.54864301      -0.48318324        1       0.03292216       0.01856568       0.02009831 
