13
Properties=species:S:1:pos:R:3:Z:I:1:forces:R:3 magmom=0 energy=-8809.14349429 dipole="-0.4706535 0.5625763 -0.7454853" pbc="F F F"
C      -0.37712594      -0.31076939       0.35098682        6       0.00546385       0.00309283      -0.01274470 
C      -0.69632923       1.16805996       0.09872578        6       0.01858363      -0.01018717      -0.00619559 
C       1.11967494      -0.46853940       0.53035081        6      -0.01982902       0.02377252      -0.02152553 
N      -0.82171557      -1.21633445      -0.70091898        7      -0.02118461      -0.00908577       0.02446343 
O       1.76269617      -0.42521967      -0.65273755        8      -0.03250420      -0.01856393      -0.00139847 
H      -0.82382484      -0.63105924       1.29141772        1       0.01828075       0.00919756      -0.01178481 
H      -0.33572093       1.80292204       0.90844287        1       0.00125208      -0.01390340       0.00829515 
H      -0.22999614       1.49092686      -0.83246469        1       0.00939533       0.02029094       0.00291944 
H      -1.77419915       1.30300190       0.00613583        1       0.01867367      -0.02383099       0.02380199 
O       1.69294039      -0.57575041       1.57554190        8      -0.02985709       0.01054461      -0.00431771 
H      -1.83171395      -1.20782633      -0.76523756        1       0.02123613       0.01760321      -0.03178341 
H      -0.44497370      -0.92716121      -1.59632908        1      -0.02481418      -0.02783811       0.01310980 
H       2.70513237      -0.53674778      -0.47993279        1       0.03530372       0.01890769       0.01716037 
