13
Properties=species:S:1:pos:R:3:Z:I:1:forces:R:3 magmom=0 energy=-8809.14415281 dipole="-0.4247384 0.6032386 -0.7583771" pbc="F F F"
C      -0.37947659      -0.30549764       0.34930784        6       0.02868251      -0.02002684       0.01837352 
C      -0.72006429       1.17221560       0.12406646        6      -0.00201107      -0.02247098      -0.00318601 
C       1.11723103      -0.43810519       0.54332569        6      -0.01904555       0.00952805      -0.00874288 
N      -0.79960669      -1.20678338      -0.71655653        7       0.02109616       0.01702621       0.01458140 
O       1.77948156      -0.32443682      -0.62534723        8      -0.02564943      -0.01637109      -0.00045951 
H      -0.82760863      -0.64548296       1.28144386        1       0.01015997      -0.00180065       0.00940304 
H      -0.36125539       1.79929221       0.94033686        1       0.02284040      -0.02287392       0.02104345 
H      -0.27304439       1.51929156      -0.80646966        1       0.01478492       0.02384457      -0.02643588 
H      -1.80013105       1.29003072       0.05575286        1      -0.03722510       0.00005723      -0.01853184 
O       1.67556730      -0.57853505       1.59230454        8      -0.00357121       0.01871054       0.00010207 
H      -1.80098742      -1.15210909      -0.85117537        1       0.00270495       0.00754763       0.00201112 
H      -0.35221157      -0.95368391      -1.58909310        1      -0.01147437       0.01044171      -0.02213725 
H       2.72326815      -0.40229317      -0.43833747        1      -0.00129219      -0.00361235       0.01397883 
