13
Properties=species:S:1:pos:R:3:Z:I:1:forces:R:3 magmom=0 energy=-8809.07774886 dipole="-0.7677917 -0.0660733 0.0632206" pbc="F F F"
C      -0.36376730      -0.33315185       0.25442460        6       0.00051401       0.02296211       0.01842442 
C      -0.62941774       1.15993050       0.14387052        6      -0.01043055       0.02576549       0.00724768 
C       1.13171497      -0.58747270       0.40303774        6       0.00156112      -0.00578539       0.03229779 
N      -0.88152157      -1.12977156      -0.85420975        7      -0.01703351       0.03804410       0.02435894 
O       1.40703707      -1.88300668       0.60261301        8      -0.01899135      -0.01216656       0.04144017 
H      -0.81434116      -0.72314912       1.17021884        1       0.02395620      -0.02176007       0.00590521 
H      -0.25842905       1.70100444       1.01174656        1       0.02921205      -0.01583111       0.02856995 
H      -0.12098636       1.56655117      -0.73033756        1      -0.02143354      -0.00535324      -0.02633036 
H      -1.69935476       1.33697085       0.05025645        1      -0.02431426      -0.00082712      -0.01550890 
O       1.98020115       0.26051313       0.37776952        8      -0.00761530      -0.00309926      -0.03247288 
H      -1.83594750      -1.40809438      -0.67978859        1      -0.02109523       0.00199302      -0.03952639 
H      -0.86914929      -0.59404352      -1.71285125        1       0.03493471      -0.02553075      -0.02083720 
H       2.36243122      -1.96104126       0.71077462        1       0.03073559       0.00158868      -0.02356853 
