13
Properties=species:S:1:pos:R:3:Z:I:1:forces:R:3 magmom=0 energy=-8809.14398954 dipole="-0.4681427 0.5587476 -0.7471654" pbc="F F F"
C      -0.37747990      -0.31185105       0.35082026        6       0.00322344      -0.00073626      -0.00949925 
C      -0.69436584       1.16722900       0.09786685        6       0.01711059      -0.00683718      -0.00656454 
C       1.11936868      -0.47094424       0.52827364        6      -0.01730250       0.01981025      -0.01937784 
N      -0.82615178      -1.21812045      -0.69835452        7      -0.02904745      -0.01107750       0.00925952 
O       1.76011109      -0.44100251      -0.65639512        8      -0.01534656      -0.01743856       0.00044408 
H      -0.82332397      -0.62977650       1.29226262        1       0.01853755       0.00859062      -0.00382462 
H      -0.33220028       1.80160301       0.90733204        1       0.00246250      -0.01396053       0.00519558 
H      -0.22816435       1.48867904      -0.83399899        1       0.00556263       0.02184780       0.00542004 
H      -1.77226443       1.30353640       0.00673410        1       0.02185854      -0.02221150       0.02027654 
O       1.69447420      -0.56790343       1.57348322        8      -0.03099825       0.01151350      -0.00640966 
H      -1.83619496      -1.20398481      -0.76478786        1       0.03113776       0.01865089      -0.02513680 
H      -0.44671237      -0.93428347      -1.59438442        1      -0.02380533      -0.02798924       0.01469545 
H       2.70331480      -0.55019003      -0.48429418        1       0.01660707       0.01983776       0.01552155 
