13
Properties=species:S:1:pos:R:3:Z:I:1:forces:R:3 magmom=0 energy=-8809.14504806 dipole="-0.4220882 0.59484 -0.7598745" pbc="F F F"
C      -0.38002932      -0.30983378       0.34789507        6       0.01296823      -0.00265276       0.01141981 
C      -0.71470835       1.16958043       0.12057062        6       0.00746067      -0.01355167      -0.00438754 
C       1.11588547      -0.44411613       0.53729598        6      -0.00968787       0.02975574      -0.00095265 
N      -0.80936919      -1.21157115      -0.71356264        7      -0.00453378       0.00955911       0.03939753 
O       1.77435486      -0.35242794      -0.63511912        8      -0.02020738      -0.02616905       0.00801629 
H      -0.82358466      -0.64336419       1.28471405        1      -0.00363035      -0.00821298      -0.00391255 
H      -0.35061773       1.79382435       0.93703581        1       0.00479027      -0.02114301       0.01560089 
H      -0.26496833       1.51571120      -0.80963582        1       0.00581758       0.00872463      -0.01774447 
H      -1.79466989       1.29292823       0.05123366        1      -0.01566928      -0.00126761      -0.00892343 
O       1.67708328      -0.56344009       1.58752047        8       0.00329657       0.00826147      -0.00859911 
H      -1.81050162      -1.14682214      -0.84596133        1       0.00251603       0.00022219       0.00015432 
H      -0.36274086      -0.96607489      -1.58812076        1       0.00478009       0.01861253      -0.03454462 
H       2.71809631      -0.42730819      -0.44742056        1       0.01209920      -0.00213859       0.00447557 
