13
Properties=species:S:1:pos:R:3:Z:I:1:forces:R:3 magmom=0 energy=-8809.14482221 dipole="-0.4236948 0.5979745 -0.7594106" pbc="F F F"
C      -0.37992103      -0.30805414       0.34835388        6       0.02888758      -0.02467354       0.01447254 
C      -0.71530338       1.17069707       0.12069063        6       0.00506831      -0.02724110      -0.00298119 
C       1.11652064      -0.44335115       0.53804701        6      -0.01456679       0.00926585      -0.00324633 
N      -0.80765432      -1.21109788      -0.71340848        7       0.00113319       0.02589934       0.03958815 
O       1.77528058      -0.35028065      -0.63430470        8      -0.02326715      -0.01645434       0.01054739 
H      -0.82441273      -0.64318331       1.28429565        1       0.00318570      -0.00090796      -0.00352226 
H      -0.35369187       1.79667212       0.93641575        1       0.02171919      -0.01934730       0.02315680 
H      -0.26672904       1.51552595      -0.81005500        1       0.01175771       0.01984573      -0.02632517 
H      -1.79473157       1.29234332       0.05245326        1      -0.04362802       0.00237416      -0.01904077 
O       1.67743374      -0.56812904       1.58778504        8       0.00074027       0.01778119      -0.01009297 
H      -1.80891112      -1.14848262      -0.84562496        1      -0.00120677       0.00065491       0.00246075 
H      -0.36226444      -0.96348134      -1.58809317        1       0.00528706       0.01607485      -0.03339231 
H       2.71918303      -0.42680636      -0.44761653        1       0.00488962      -0.00327173       0.00837537 
