13
Properties=species:S:1:pos:R:3:Z:I:1:forces:R:3 magmom=0 energy=-8809.14534467 dipole="-0.422319 0.5914051 -0.7619479" pbc="F F F"
C      -0.38057811      -0.31061309       0.34779624        6       0.02074058      -0.01963999       0.01173920 
C      -0.71014300       1.16867031       0.11660384        6       0.00029557      -0.01157012      -0.00360325 
C       1.11563254      -0.44887507       0.53411970        6      -0.00392664      -0.01078192       0.00373273 
N      -0.81592906      -1.21471851      -0.70944181        7      -0.00420087       0.01846191       0.02234027 
O       1.77090136      -0.37659510      -0.64143415        8      -0.02015879      -0.00933670       0.00825478 
H      -0.82358649      -0.64083879       1.28598705        1       0.00129219      -0.00092138       0.00300089 
H      -0.34476463       1.79508094       0.93045263        1       0.02085314      -0.02034144       0.01948218 
H      -0.26068661       1.50879264      -0.81561556        1       0.00925309       0.02070335      -0.02343226 
H      -1.78921494       1.29568883       0.04888636        1      -0.03617460      -0.00188467      -0.01817940 
O       1.67919981      -0.56007173       1.58410048        8      -0.00160694       0.02307894      -0.01778047 
H      -1.81728086      -1.14699107      -0.83957044        1       0.00532933       0.00074197       0.00631915 
H      -0.37170350      -0.97363680      -1.58675956        1       0.00525672       0.01564964      -0.02232376 
H       2.71532760      -0.45201690      -0.45686411        1       0.00304727      -0.00415958       0.01044989 
