13
Properties=species:S:1:pos:R:3:Z:I:1:forces:R:3 magmom=0 energy=-8809.14435417 dipole="-0.4188888 0.6035352 -0.75989" pbc="F F F"
C      -0.37989885      -0.30836204       0.34956814        6      -0.00596537       0.01831988       0.00143138 
C      -0.72121053       1.17034549       0.12637688        6      -0.00019088       0.00578344      -0.00515301 
C       1.11535399      -0.43575999       0.54380197        6      -0.00159069       0.03128061      -0.00153454 
N      -0.79923336      -1.20672630      -0.71799285        7       0.00729273      -0.00910212       0.00328649 
O       1.77752601      -0.31952210      -0.62425668        8      -0.00134062      -0.02741789      -0.00045951 
H      -0.82625314      -0.64853903       1.28258237        1      -0.00231142      -0.00689714      -0.00113401 
H      -0.35835742       1.79302275       0.94508846        1      -0.00823437      -0.02209832       0.00856733 
H      -0.27276084       1.52264323      -0.80282513        1       0.00013966      -0.00604142      -0.00107688 
H      -1.80241354       1.29026669       0.05715306        1       0.01239010      -0.00636759      -0.00204176 
O       1.67370752      -0.56922766       1.59367341        8       0.00515398       0.00756804       0.00480262 
H      -1.79913809      -1.14394701      -0.85934361        1      -0.00243170       0.00200371       0.00454664 
H      -0.34529544      -0.95865014      -1.58862323        1      -0.00516355       0.01762841      -0.01279304 
H       2.72130686      -0.38950780      -0.43388873        1       0.00225213      -0.00465956       0.00155835 
