13
Properties=species:S:1:pos:R:3:Z:I:1:forces:R:3 magmom=0 energy=-8809.14532018 dipole="-0.4652094 0.5293979 -0.7478133" pbc="F F F"
C      -0.37952637      -0.31879518       0.34987536        6       0.01849693      -0.01243226      -0.01042428 
C      -0.68140038       1.16176254       0.08995655        6       0.01184662      -0.01017267      -0.00584864 
C       1.11729576      -0.48426608       0.51669925        6      -0.02335714      -0.01841728      -0.01470224 
N      -0.85104110      -1.22917940      -0.68561085        7       0.00817703       0.01304007       0.03538255 
O       1.74791730      -0.53653869      -0.67221731        8      -0.04227645      -0.00823576       0.00565854 
H      -0.81778293      -0.62014320       1.30085145        1       0.01834313       0.00234911      -0.02184960 
H      -0.31334685       1.79429857       0.89727606        1       0.00499612      -0.00187233       0.01857838 
H      -0.21460830       1.47791652      -0.84266736        1       0.02270408       0.01564768      -0.02015884 
H      -1.75711926       1.30469420      -0.00173652        1      -0.02024548      -0.00016203       0.02275483 
O       1.70036926      -0.51945698       1.56132441        8      -0.00838313       0.01341514       0.00711291 
H      -1.86008635      -1.19370207      -0.74769076        1      -0.00619441       0.01654382      -0.02470645 
H      -0.47092639      -0.96085618      -1.58580046        1      -0.01897150      -0.03568301      -0.00392715 
H       2.69086257      -0.64412118      -0.49930089        1       0.03486416       0.02597951       0.01212995 
