13
Properties=species:S:1:pos:R:3:Z:I:1:forces:R:3 magmom=0 energy=-8809.14496915 dipole="-0.4173598 0.5957267 -0.7615588" pbc="F F F"
C      -0.38076856      -0.31066086       0.34886520        6       0.00444785       0.00797875       0.00371422 
C      -0.71607541       1.16908852       0.12288191        6       0.00232428      -0.00471515      -0.00606981 
C       1.11484540      -0.44214300       0.53817098        6       0.00545125       0.03598167       0.01080007 
N      -0.80841756      -1.21069797      -0.71418153        7      -0.01039266       0.00634538       0.00065111 
O       1.77304118      -0.34997030      -0.63435926        8      -0.00830595      -0.02732512       0.00813327 
H      -0.82451092      -0.64555661       1.28507294        1      -0.00365863      -0.00739964      -0.00228751 
H      -0.35027022       1.79240018       0.93958736        1      -0.00281582      -0.02270140       0.01071482 
H      -0.26722478       1.51621498      -0.80776926        1       0.00208624       0.00277427      -0.00857206 
H      -1.79654190       1.29291489       0.05453214        1       0.00077776      -0.00415377      -0.00473186 
O       1.67670152      -0.55765341       1.58855330        8      -0.00062077       0.00596208      -0.01330361 
H      -1.80866912      -1.14024069      -0.85375795        1       0.02489265      -0.00040479       0.00085541 
H      -0.35321161      -0.96950655      -1.58647640        1      -0.01817014       0.01231435      -0.00203354 
H       2.71727098      -0.41894260      -0.44601938        1       0.00398387      -0.00465668       0.00212949 
