13
Properties=species:S:1:pos:R:3:Z:I:1:forces:R:3 magmom=0 energy=-8809.14192148 dipole="-0.4062153 0.6320817 -0.7563958" pbc="F F F"
C      -0.38059724      -0.29630073       0.35429454        6      -0.00826065       0.02001326       0.00819498 
C      -0.75055932       1.17888969       0.15754145        6       0.00571057       0.00839321      -0.00348318 
C       1.11213870      -0.40385474       0.58441741        6      -0.00598939       0.03523013       0.00347479 
N      -0.75074061      -1.17638955      -0.74652301        7       0.00289686      -0.01354051      -0.01812448 
O       1.79914262      -0.20294830      -0.55836966        8       0.01095619      -0.03836297       0.00912618 
H      -0.84672743      -0.66918111       1.26479176        1       0.00965182      -0.01232227       0.00531884 
H      -0.41507053       1.79063438       0.99606889        1      -0.02331492      -0.02003131       0.01158498 
H      -0.29454032       1.56405253      -0.75462850        1       0.00437221      -0.01695026      -0.00511691 
H      -1.83336810       1.27476346       0.07139221        1       0.02739511       0.00178249       0.00524911 
O       1.64756987      -0.59327013       1.63777092        8      -0.01663535       0.01849312      -0.03341632 
H      -1.74688366      -1.12590416      -0.91977868        1       0.02251829       0.00032272       0.00841990 
H      -0.27172563      -0.90158383      -1.59588145        1      -0.02141770       0.01910350      -0.00060051 
H       2.73996812      -0.27230064      -0.35307287        1      -0.00788305      -0.00213119       0.00937255 
