13
Properties=species:S:1:pos:R:3:Z:I:1:forces:R:3 magmom=0 energy=-8809.14549433 dipole="-0.3773419 0.5944059 -0.7596618" pbc="F F F"
C      -0.38892157      -0.29556522       0.35609864        6       0.01056749      -0.01082558       0.00367190 
C      -0.79064215       1.17696987       0.20831328        6       0.00215458       0.00070325      -0.00075580 
C       1.09566766      -0.34885196       0.64087554        6       0.00207169       0.02948726       0.00456103 
N      -0.69109532      -1.14364545      -0.78848096        7       0.00895402       0.01289604       0.00580452 
O       1.82152149      -0.19854948      -0.48435539        8       0.01190405      -0.03708817      -0.00716119 
H      -0.87328680      -0.71349001       1.23725321        1       0.00064648      -0.01402362       0.00086039 
H      -0.51664680       1.74427305       1.09791592        1      -0.01285562       0.02593796      -0.00225074 
H      -0.29771169       1.61881804      -0.65776490        1       0.01595236      -0.00223125       0.00009626 
H      -1.86818224       1.25393116       0.06828608        1      -0.01258061      -0.01357661       0.00444446 
O       1.59385884      -0.44732284       1.72425860        8       0.00249526      -0.00526207       0.00644750 
H      -1.67504357      -1.08708377      -1.01738681        1       0.00300346      -0.00179926      -0.01456252 
H      -0.16069546      -0.84406558      -1.59790963        1      -0.04315417       0.00819251      -0.01032858 
H       2.75414360      -0.22137592      -0.23702527        1       0.01084111       0.00758949       0.00917282 
