13
Properties=species:S:1:pos:R:3:Z:I:1:forces:R:3 magmom=0 energy=-8809.14423717 dipole="-0.4188604 0.6049118 -0.7598327" pbc="F F F"
C      -0.37975193      -0.30793745       0.34989067        6      -0.00544092       0.01759663       0.00114861 
C      -0.72221851       1.17058984       0.12732953        6       0.00020142       0.00568075      -0.00536121 
C       1.11553056      -0.43462355       0.54467536        6       0.00023798       0.03090456       0.00086384 
N      -0.79766051      -1.20609032      -0.71850388        7      -0.00119525      -0.00738663       0.00237765 
O       1.77800944      -0.31484913      -0.62291732        8      -0.00115093      -0.02794918       0.00088127 
H      -0.82649315      -0.64918915       1.28232616        1      -0.00137909      -0.00628208      -0.00059552 
H      -0.35978015       1.79340801       0.94611232        1      -0.00756917      -0.02260740       0.00901290 
H      -0.27440174       1.52362288      -0.80188338        1       0.00099779      -0.00638960      -0.00103759 
H      -1.80348234       1.28970660       0.05845095        1       0.01043616      -0.00654875      -0.00229368 
O       1.67365311      -0.57062919       1.59439259        8       0.00231615       0.00847672       0.00021875 
H      -1.79764401      -1.14349092      -0.86080500        1       0.00592763       0.00103292       0.00557780 
H      -0.34304560      -0.95731403      -1.58859252        1      -0.00547815       0.01790645      -0.01267410 
H       2.72177708      -0.38507828      -0.43256974        1       0.00209632      -0.00443438       0.00188128 
