13
Properties=species:S:1:pos:R:3:Z:I:1:forces:R:3 magmom=0 energy=-8809.14530113 dipole="-0.4223639 0.5922771 -0.7618757" pbc="F F F"
C      -0.38051559      -0.31042265       0.34783860        6       0.02049524      -0.02057844       0.01168654 
C      -0.71053896       1.16882599       0.11698199        6       0.00009307      -0.01258041      -0.00350246 
C       1.11567797      -0.44835590       0.53437221        6      -0.00342615      -0.01228453       0.00517080 
N      -0.81525358      -1.21456055      -0.70973941        7      -0.00264669       0.02121633       0.02320416 
O       1.77120964      -0.37469038      -0.64096233        8      -0.02448143      -0.00846561       0.00791416 
H      -0.82366739      -0.64105036       1.28585100        1       0.00199847      -0.00066031       0.00223974 
H      -0.34548714       1.79520320       0.93104221        1       0.02053530      -0.02111169       0.01874915 
H      -0.26123708       1.50939527      -0.81513752        1       0.00976284       0.02054816      -0.02347803 
H      -1.78964157       1.29531778       0.04922366        1      -0.03717229      -0.00102978      -0.01808781 
O       1.67903228      -0.56065044       1.58436418        8      -0.00172079       0.02385711      -0.01878253 
H      -1.81652840      -1.14691144      -0.84029655        1       0.00365745       0.00052168       0.00652798 
H      -0.37080050      -0.97299389      -1.58681098        1       0.00554176       0.01528850      -0.02272927 
H       2.71552921      -0.44997390      -0.45623507        1       0.00736318      -0.00472111       0.01108752 
