13
Properties=species:S:1:pos:R:3:Z:I:1:forces:R:3 magmom=0 energy=-8809.14327932 dipole="-0.4169763 0.6140323 -0.7591918" pbc="F F F"
C      -0.37915432      -0.30274163       0.35057443        6       0.01615815      -0.00296330       0.02056574 
C      -0.72985366       1.17398244       0.13345961        6       0.00395307      -0.01059840      -0.00451815 
C       1.11669619      -0.42705328       0.55385673        6      -0.01938046       0.01494706      -0.00939723 
N      -0.78565359      -1.19891824      -0.72470418        7       0.02217104       0.00394551       0.03195419 
O       1.78473595      -0.28321990      -0.60818310        8      -0.02250682      -0.02106664      -0.00835825 
H      -0.83165843      -0.65133134       1.27734871        1       0.00917971      -0.00909446       0.00912839 
H      -0.37484775       1.79783330       0.95417497        1       0.00136001      -0.02372501       0.02322997 
H      -0.28335323       1.53283299      -0.79301703        1       0.01351033       0.00637623      -0.02761622 
H      -1.81118180       1.28398497       0.06303433        1      -0.01634116       0.00458155      -0.00799335 
O       1.66959504      -0.58509007       1.60318296        8      -0.00780597       0.01940617      -0.00643059 
H      -1.78499840      -1.14216361      -0.87206690        1      -0.00137688       0.00371427      -0.00353383 
H      -0.32583206      -0.94344624      -1.58965104        1      -0.01048450       0.01987525      -0.03401698 
H       2.72787654      -0.35802066      -0.41800000        1       0.01156343      -0.00539829       0.01698630 
