13
Properties=species:S:1:pos:R:3:Z:I:1:forces:R:3 magmom=0 energy=-8809.07774886 dipole="-0.7677918 -0.0660731 0.0632207" pbc="F F F"
C      -0.36376736      -0.33315183       0.25442465        6       0.00051592       0.02296052       0.01842463 
C      -0.62941775       1.15993054       0.14387052        6      -0.01042999       0.02576256       0.00724743 
C       1.13171494      -0.58747272       0.40303768        6       0.00155958      -0.00578514       0.03229959 
N      -0.88152149      -1.12977160      -0.85420976        7      -0.01703310       0.03804616       0.02435904 
O       1.40703701      -1.88300669       0.60261307        8      -0.01898909      -0.01216677       0.04144007 
H      -0.81434121      -0.72314923       1.17021890        1       0.02395677      -0.02175899       0.00590408 
H      -0.25842902       1.70100440       1.01174655        1       0.02921221      -0.01583008       0.02857036 
H      -0.12098635       1.56655103      -0.73033763        1      -0.02143380      -0.00535257      -0.02633005 
H      -1.69935476       1.33697078       0.05025648        1      -0.02431523      -0.00082610      -0.01550905 
O       1.98020116       0.26051306       0.37776943        8      -0.00761479      -0.00309849      -0.03247345 
H      -1.83594743      -1.40809427      -0.67978856        1      -0.02109667       0.00199235      -0.03952706 
H      -0.86914920      -0.59404339      -1.71285119        1       0.03493435      -0.02553162      -0.02083684 
H       2.36243120      -1.96104116       0.71077466        1       0.03073379       0.00158827      -0.02356869 
