10
Properties=species:S:1:pos:R:3:Z:I:1:forces:R:3 magmom=0 energy=-7739.3265466 dipole="-0.2038303 -1.2023308 -1.1101022" pbc="F F F"
C      -0.26058628      -0.16079164      -0.53479649        6      -0.00979503       0.00118924      -0.00638693 
C       0.84040461       0.60788064       0.16947144        6      -0.02178280      -0.00925854      -0.00944161 
N      -1.54014217       0.11423600       0.07637846        7      -0.01464284      -0.01061429      -0.03210614 
O       2.01465713       0.66932722      -0.48744020        8      -0.02848222      -0.00042896       0.01873846 
H      -0.26864505       0.12777586      -1.59021028        1       0.01666301       0.01385902      -0.02016912 
H       0.04150639      -1.21610002      -0.49613830        1       0.00275262      -0.00141226       0.00451681 
O       0.71478960       1.10470675       1.24543991        8       0.03738503       0.02088420       0.00057629 
H      -2.14814890      -0.69036845       0.05719597        1      -0.01073050       0.01399657       0.02790604 
H      -1.40719946       0.41229214       1.03512838        1       0.01612056      -0.02590495       0.00705953 
H       1.94227070       0.26314775      -1.35620898        1       0.01251217      -0.00231014       0.00930667 
