10
Properties=species:S:1:pos:R:3:Z:I:1:forces:R:3 magmom=0 energy=-7739.32520236 dipole="-0.2477668 -1.1783161 -1.149009" pbc="F F F"
C      -0.26341162      -0.15534343      -0.53377398        6      -0.02793535       0.00070757      -0.02572096 
C       0.83978449       0.61657275       0.16399969        6      -0.00278666       0.03354596       0.00860903 
N      -1.53647224       0.11341529       0.09170688        7      -0.02714972       0.03897710       0.00877677 
O       1.99058752       0.72804817      -0.52518434        8       0.01654963      -0.02323126      -0.02540086 
H      -0.28336564       0.14303744      -1.58656041        1      -0.00099923      -0.00240614      -0.00998056 
H       0.04089027      -1.21057309      -0.50620360        1       0.03106145       0.00771156       0.00342826 
O       0.73930088       1.08001108       1.25760806        8      -0.02730352      -0.02610981      -0.00996416 
H      -2.16759018      -0.67134055       0.03240485        1       0.02026945      -0.00075148       0.01828111 
H      -1.39605902       0.36128090       1.06349388        1       0.00075637      -0.02380651       0.00980573 
H       1.89897565       0.35706071      -1.40789656        1       0.01753760      -0.00463698       0.02216574 
