13
Properties=species:S:1:pos:R:3:Z:I:1:forces:R:3 magmom=0 energy=-8808.84992426 dipole="-1.8160884 -0.3106005 0.345082" pbc="F F F"
C       0.42365547      -0.30938664      -0.12801316        6       0.00408055       0.00672863       0.00692835 
C      -0.90117135      -0.24550611       0.61332891        6      -0.00889026      -0.00725046       0.00570224 
C       1.28262916       0.94688566      -0.11985436        6       0.00152631       0.02368511       0.00236248 
N      -0.68757313      -0.16440930       2.05395583        7       0.00631628       0.01400969      -0.00310733 
O       0.72368867       2.08637865       0.34455783        8      -0.01285439       0.01758887       0.02573412 
H      -1.45057158      -1.16437721       0.40741427        1      -0.01201672       0.01191341      -0.00415398 
H      -1.51888117       0.56716115       0.19936561        1       0.00463143       0.00523852       0.02334284 
H       1.04070261      -1.10608113       0.28811284        1       0.00850310       0.00784284      -0.03892908 
H       0.26013023      -0.54679188      -1.18161878        1      -0.00087577      -0.00287922       0.04810694 
O       2.40535160       0.96116922      -0.51906877        8       0.01420560      -0.04602697       0.00733993 
H      -1.54286360       0.01724119       2.56126136        1       0.01928847      -0.03681923      -0.00798096 
H      -0.00738996       0.53668997       2.31951241        1      -0.00994328       0.01572898      -0.02534306 
H      -0.18618237       1.94776303       0.62249565        1      -0.01397132      -0.00976011      -0.04000256 
