10
Properties=species:S:1:pos:R:3:Z:I:1:forces:R:3 magmom=0 energy=-7739.32660647 dipole="-0.1940413 -1.163425 -1.1323481" pbc="F F F"
C      -0.27342234      -0.14053467      -0.55096386        6       0.00502692       0.00002016       0.01023448 
C       0.83122145       0.61660266       0.16094929        6      -0.00143894       0.00200896       0.00483254 
N      -1.54472140       0.10178034       0.09109408        7      -0.01579105      -0.01287645      -0.03343848 
O       1.99664077       0.70442616      -0.50722638        8      -0.00828718       0.00876890       0.00724007 
H      -0.29592210       0.17903321      -1.59817351        1      -0.00756845       0.00995984       0.00973584 
H       0.03927944      -1.19309409      -0.54635307        1      -0.00021767      -0.00491580      -0.00696769 
O       0.71748583       1.08385923       1.25162917        8       0.01575783       0.01037219      -0.00522983 
H      -2.13358566      -0.71747210       0.09016172        1       0.00378127       0.01653631       0.00888707 
H      -1.39030772       0.39911975       1.04704390        1       0.00008505      -0.01531329       0.00881899 
H       1.91656946       0.32732090      -1.38801734        1       0.00865223      -0.01456078      -0.00411299 
