10
Properties=species:S:1:pos:R:3:Z:I:1:forces:R:3 magmom=0 energy=-7739.23038428 dipole="-0.9541705 -0.5824593 -1.2586857" pbc="F F F"
C      -0.23583228      -0.22970438      -0.50137368        6       0.02230746       0.01836765      -0.00666548 
C       0.90102232       0.55670760       0.13428430        6       0.00990770      -0.00990178      -0.00227172 
N      -1.46688200       0.25217715       0.11800861        7       0.02598753      -0.02010742       0.00384673 
O       1.44275728       1.55478542      -0.58575956        8      -0.03287243      -0.01995330      -0.02892939 
H      -0.28845352      -0.05897371      -1.57731740        1      -0.00460845       0.01085828      -0.00392129 
H      -0.02188744      -1.29116888      -0.33709516        1      -0.01112331       0.03932081       0.02459780 
O       1.28242269       0.32964204       1.24160789        8       0.00788038      -0.01180589       0.00876777 
H      -2.26413376      -0.28284071      -0.19910961        1       0.00144887      -0.00097033       0.00201518 
H      -1.40033190       0.14338739       1.12359415        1      -0.02711244      -0.00633664      -0.01294551 
H       0.97942200       1.66438916      -1.42055360        1       0.00818464       0.00052867       0.01550591 
