10
Properties=species:S:1:pos:R:3:Z:I:1:forces:R:3 magmom=0 energy=-7739.32646497 dipole="-0.192854 -1.0459431 -1.2216081" pbc="F F F"
C      -0.31974987      -0.06004872      -0.58612116        6       0.01469890       0.03025278       0.02261136 
C       0.80428216       0.65217566       0.14519127        6      -0.00356473       0.01979122      -0.01818403 
N      -1.55638978       0.05156251       0.15396771        7       0.00524485      -0.01701834      -0.00618916 
O       1.93328063       0.83782011      -0.56443136        8      -0.00284235       0.00748500       0.01370331 
H      -0.41811419       0.38776265      -1.58075359        1       0.00705542      -0.00115098      -0.00209257 
H       0.02400253      -1.09167245      -0.73479478        1      -0.01248029      -0.00076645       0.00601073 
O       0.73427733       1.01541258       1.27829649        8      -0.00247973      -0.01187927       0.00665134 
H      -2.09044342      -0.80389146       0.14122064        1       0.00612838      -0.00720320      -0.02492911 
H      -1.35074470       0.29142397       1.11628849        1       0.00203266       0.00874941       0.02068427 
H       1.82558569       0.54271984      -1.47281161        1      -0.01379315      -0.02826018      -0.01826620 
