13
Properties=species:S:1:pos:R:3:Z:I:1:forces:R:3 magmom=0 energy=-8808.71865381 dipole="-0.9009204 -0.8517525 1.1068755" pbc="F F F"
C       0.46183489      -0.33505278      -0.14312022        6       0.03402866      -0.01317963      -0.03318425 
C      -0.88186763      -0.24864802       0.60102213        6      -0.02368973      -0.00237344       0.02995238 
C       1.25365828       0.95253746      -0.10136596        6      -0.00920434       0.00900586       0.01671536 
N      -0.86932822      -1.07320648       1.80806217        7       0.00435437      -0.01411855       0.04476918 
O       1.55700775       1.41813325       1.13525230        8      -0.00018070      -0.00050316       0.02539504 
H      -1.66813847      -0.63658386      -0.04400133        1       0.00646710      -0.00388221      -0.00957165 
H      -1.12584010       0.80195277       0.79241574        1       0.00592223       0.02800893       0.01487322 
H       1.06465012      -1.13127949       0.30098082        1      -0.01972535      -0.03329990      -0.00798662 
H       0.32032052      -0.58136176      -1.19006833        1       0.00692141       0.01670240      -0.03255279 
O       1.60246609       1.56524932      -1.06176411        8       0.00822460      -0.01199836      -0.01638353 
H      -1.70188716      -0.92675967       2.36386808        1      -0.01462289      -0.02202752      -0.01707691 
H      -0.07696916      -0.88327987       2.40818980        1       0.02036314       0.03904637       0.00074397 
H       1.23914080       0.82545673       1.82157466        1      -0.01885848       0.00861921      -0.01569340 
