13
Properties=species:S:1:pos:R:3:Z:I:1:forces:R:3 magmom=0 energy=-8809.02034917 dipole="-0.3570776 -1.165684 -0.7366957" pbc="F F F"
C       0.47511492      -0.36636156      -0.17101660        6       0.00323373      -0.00346292      -0.00446246 
C      -0.86961910      -0.37091565       0.54101737        6       0.02717199       0.00651075      -0.01734723 
C       1.32124028       0.81923707       0.24973789        6      -0.01870709       0.00139112      -0.03035491 
N      -0.65003426      -0.47526669       1.97830192        7       0.01993284       0.02399539       0.03648977 
O       2.64005328       0.73185637      -0.01581064        8      -0.00470435      -0.00759442      -0.03487357 
H      -1.43346090      -1.24366295       0.21076561        1       0.00515193       0.01426854       0.00228237 
H      -1.43206869       0.52091127       0.24661062        1       0.01988260       0.01301364      -0.00489502 
H       1.00867768      -1.29449218       0.04478629        1       0.00542169       0.00986676       0.01361446 
H       0.34147415      -0.29901096      -1.25479342        1       0.01507824      -0.00717009       0.01271616 
O       0.88249866       1.80327581       0.76585769        8      -0.00362443      -0.01667181       0.02694336 
H      -1.51640430      -0.65104567       2.46848793        1      -0.00976392      -0.01185963      -0.01237847 
H      -0.28111734       0.40266133       2.32635034        1      -0.03387881      -0.02320184       0.00584119 
H       2.85843457      -0.12036575      -0.40318357        1      -0.02519434       0.00091449       0.00642436 
