13
Properties=species:S:1:pos:R:3:Z:I:1:forces:R:3 magmom=0 energy=-8808.79938999 dipole="-1.3872163 -0.4905516 0.8621743" pbc="F F F"
C       0.44596204      -0.30933985      -0.08634169        6      -0.01309319       0.02244640       0.02278460 
C      -0.89496497      -0.19560392       0.62733051        6      -0.01026698      -0.00641583       0.00235097 
C       1.28088384       0.95872434      -0.13810707        6       0.00607336       0.00244970       0.01000329 
N      -0.74281934      -0.37753883       2.06948192        7       0.00523785      -0.00720660      -0.01341478 
O       1.04994722       1.89136049       0.81230470        8       0.00752392       0.00288174      -0.01222822 
H      -1.55522312      -0.97412452       0.24649927        1      -0.01603319      -0.02193578       0.02620510 
H      -1.36032934       0.76139850       0.35997175        1      -0.02172433      -0.00800837       0.01462948 
H       1.05244384      -1.07685660       0.40363087        1      -0.00940628      -0.00536065      -0.03051889 
H       0.31845046      -0.62482049      -1.12007761        1       0.00683584       0.01862821       0.02812196 
O       2.12135524       1.14431396      -0.96304024        8       0.02531040       0.00196098       0.03158642 
H      -1.48981139       0.01312483       2.62303890        1       0.00293347       0.00842890      -0.01936709 
H       0.15205855      -0.10550054       2.44901155        1       0.00751703       0.01046727      -0.02561184 
H       0.32363582       1.63886898       1.39211574        1       0.00909209      -0.01833598      -0.03454097 
