13
Properties=species:S:1:pos:R:3:Z:I:1:forces:R:3 magmom=0 energy=-8808.81263105 dipole="-1.510057 -0.3677651 0.6674046" pbc="F F F"
C       0.39320179      -0.29853793      -0.14368588        6       0.01421789      -0.00324633      -0.01606945 
C      -0.89719008      -0.22668160       0.65559614        6      -0.00474075       0.00026925       0.00765803 
C       1.34939325       0.88059914      -0.02633896        6       0.02013760      -0.01148759       0.00950923 
N      -0.64951010      -0.46413845       2.07558358        7       0.01741074       0.00888445       0.01753122 
O       1.07623268       1.82219355       0.90158914        8      -0.01199636      -0.02054476      -0.01601365 
H      -1.57437535      -0.99575549       0.28236641        1      -0.00824044      -0.00166849       0.00525343 
H      -1.38993072       0.73405425       0.46099982        1       0.00205534       0.01176959       0.00798199 
H       0.95777918      -1.19017128       0.14221771        1      -0.01605016       0.02136489      -0.00693704 
H       0.18149696      -0.40172952      -1.20731542        1       0.00387578       0.00611038       0.01099697 
O       2.31499539       0.98649158      -0.71789791        8      -0.00530532       0.00240054       0.00792460 
H      -1.31266146      -0.02594297       2.69661687        1      -0.00760178      -0.02917873      -0.01072649 
H       0.29277909      -0.26305745       2.37784518        1      -0.01479207       0.00917976       0.00366701 
H       0.28234221       1.60292817       1.40052531        1       0.01102942       0.00614710      -0.02077595 
