10
Properties=species:S:1:pos:R:3:Z:I:1:forces:R:3 magmom=0 energy=-7739.32625816 dipole="-0.2158913 -1.1921428 -1.1159672" pbc="F F F"
C      -0.26204908      -0.15711223      -0.53574210        6      -0.00040012      -0.00446601      -0.01454890 
C       0.83973214       0.61080853       0.16772060        6       0.00068864      -0.01259486       0.02060261 
N      -1.54012486       0.10993534       0.08061075        7      -0.03014346       0.00528506      -0.03658860 
O       2.00966783       0.68038399      -0.49642524        8      -0.04102833      -0.00288339       0.02085808 
H      -0.27172974       0.13795368      -1.58966147        1      -0.00121731       0.00870051      -0.01473129 
H       0.04433394      -1.21166687      -0.50423092        1      -0.00148209       0.00386457       0.00564774 
O       0.72095397       1.09879124       1.24859272        8       0.01730800       0.02091084      -0.01098818 
H      -2.14979256      -0.69358628       0.05783458        1       0.01161182       0.02139292       0.03243719 
H      -1.40798179       0.40853369       1.03929801        1       0.02067378      -0.03795031       0.00171765 
H       1.93095928       0.27833802      -1.36636045        1       0.02398911      -0.00225928      -0.00440625 
