13
Properties=species:S:1:pos:R:3:Z:I:1:forces:R:3 magmom=0 energy=-8808.88096428 dipole="-2.0171585 -0.3155395 0.0405949" pbc="F F F"
C       0.41076976      -0.30626781      -0.16408050        6      -0.00732641       0.00241267      -0.01079159 
C      -0.88650300      -0.23532752       0.63015888        6      -0.00188436      -0.01452900       0.00690002 
C       1.30539283       0.91643657      -0.07574133        6       0.00904540      -0.00043570       0.03995417 
N      -0.60513590      -0.08457386       2.04945256        7      -0.00070268       0.02651275       0.01286688 
O       0.68945442       2.10660385       0.12104866        8       0.00211921      -0.00407078      -0.01783559 
H      -1.42063227      -1.17459591       0.49043974        1       0.00557940      -0.01478626       0.00253603 
H      -1.55129893       0.53916136       0.21141024        1       0.02294674       0.00457404       0.02808452 
H       1.01171834      -1.14773474       0.17512437        1      -0.01742092       0.01073502      -0.02124117 
H       0.19498422      -0.45441459      -1.22481820        1      -0.00885776      -0.01850752      -0.01052065 
O       2.49048144       0.87222009      -0.18788064        8      -0.00480375       0.01844196       0.01584982 
H      -1.43684804      -0.18375711       2.61494652        1       0.00369864       0.01729597      -0.02136042 
H      -0.18505595       0.81149047       2.26700985        1       0.00237637      -0.03394222      -0.00978073 
H      -0.26600729       2.00020211       0.14003277        1      -0.00476986       0.00629900      -0.01466125 
