13
Properties=species:S:1:pos:R:3:Z:I:1:forces:R:3 magmom=0 energy=-8809.20501108 dipole="-1.9167109 -1.4645096 0.9663183" pbc="F F F"
C       0.37783619      -0.28423932      -0.27876389        6      -0.01546997       0.00030668       0.00188729 
C      -0.83513369      -0.19531207       0.64497487        6      -0.00333400      -0.00141303      -0.00314739 
C       1.44176468       0.78443976      -0.04946428        6      -0.03234458       0.00511778      -0.00194206 
N      -0.42680581      -0.41277474       2.04066754        7       0.00016460       0.00347937       0.00568661 
O       1.63116598       1.15629949       1.21750282        8      -0.00029583      -0.02638353       0.01097810 
H      -1.59824558      -0.90422207       0.31412013        1       0.01604055       0.00130026      -0.00604477 
H      -1.27163962       0.80236719       0.58103456        1       0.01567288      -0.00014794       0.00619389 
H       0.85977759      -1.25887723      -0.15558366        1       0.01092457       0.00428192       0.01362746 
H       0.07655648      -0.20966005      -1.32082309        1      -0.00823164      -0.00079103       0.00350375 
O       2.07853780       1.25376043      -0.94704960        8       0.00729401      -0.00119088      -0.01848351 
H      -0.19698878      -1.38568791       2.20638128        1      -0.00549841       0.01697818      -0.01025711 
H      -1.15956126      -0.15705460       2.68966022        1       0.00834755      -0.01181407      -0.01786279 
H       1.01384622       0.65654054       1.79867371        1       0.00673022       0.01027624       0.01586052 
