13
Properties=species:S:1:pos:R:3:Z:I:1:forces:R:3 magmom=0 energy=-8809.06521258 dipole="-1.3932067 -1.2941852 0.849942" pbc="F F F"
C       0.45009480      -0.32287890      -0.23040837        6      -0.00653256       0.00460947       0.00933028 
C      -0.82178514      -0.27122067       0.62354471        6       0.00826383       0.00870684       0.00598450 
C       1.31497904       0.90720251      -0.03310536        6       0.01363708      -0.01242229      -0.02596058 
N      -0.49470090      -0.07886841       2.04264988        7      -0.01474703       0.01098098       0.01651245 
O       1.89168845       1.00198132       1.17932118        8      -0.00594670      -0.00144434      -0.02726593 
H      -1.34226065      -1.22196032       0.51755785        1       0.00593940       0.01406702      -0.00864112 
H      -1.48682556       0.50711668       0.24113376        1       0.01095542      -0.00043791      -0.00090282 
H       1.02270829      -1.20763148       0.05428528        1       0.02063706       0.01234495      -0.00701022 
H       0.19815485      -0.38783407      -1.28574861        1      -0.00633890       0.01797592       0.00641542 
O       1.48575722       1.74962889      -0.86321283        8       0.01488016      -0.03002977       0.00143576 
H      -1.17118321      -0.53163361       2.63981157        1      -0.00702559      -0.01348868       0.02157526 
H      -0.49487696       0.90511758       2.28459133        1      -0.03752988      -0.02875327       0.00620598 
H       1.52409933       0.31904530       1.76209629        1       0.00380775       0.01789113       0.00232093 
