13
Properties=species:S:1:pos:R:3:Z:I:1:forces:R:3 magmom=0 energy=-8808.88751134 dipole="-1.979923 -0.3976888 -0.1677995" pbc="F F F"
C       0.45663602      -0.32263448      -0.09486936        6       0.00890635       0.00754285       0.00363755 
C      -0.88491314      -0.13058143       0.59946098        6      -0.00488864       0.00218636      -0.01953252 
C       1.30046963       0.93305584      -0.19849647        6       0.00921257       0.00824512      -0.03745074 
N      -0.69575032       0.35884910       1.95544538        7      -0.00575274      -0.01538795      -0.01627647 
O       0.62908518       2.08631107      -0.43283165        8       0.00919385       0.01413834      -0.01512416 
H      -1.38191899      -1.09900390       0.64836199        1      -0.00645650      -0.00545413       0.02747815 
H      -1.54164106       0.50359079      -0.01728844        1      -0.02872113       0.01010793      -0.00841743 
H       1.05934396      -1.05296007       0.43827372        1      -0.00154647      -0.02191321       0.00517481 
H       0.29910651      -0.68992887      -1.11269521        1       0.00956075       0.00381351       0.00856177 
O       2.48754620       0.94686866      -0.10244943        8      -0.00529868       0.00848438       0.02720592 
H      -1.57064433       0.39792566       2.45952450        1       0.00603772       0.00332469       0.02429904 
H      -0.29131038       1.28778328       1.96967516        1       0.00502208      -0.01639881      -0.00384164 
H      -0.31167520       1.92101593      -0.54513486        1       0.00473088       0.00131101       0.00428572 
