10
Properties=species:S:1:pos:R:3:Z:I:1:forces:R:3 magmom=0 energy=-7739.3263915 dipole="-0.1817394 -1.0677527 -1.2006659" pbc="F F F"
C      -0.31300770      -0.07122657      -0.58482166        6       0.02038911       0.02337107       0.01078120 
C       0.80722405       0.64649457       0.14796740        6       0.00774108       0.02866086      -0.01693925 
N      -1.55683097       0.05504805       0.14123244        7       0.00454144      -0.03234340       0.00796841 
O       1.94555921       0.81182298      -0.55225626        8      -0.01772046      -0.01403077      -0.02147242 
H      -0.39869922       0.36581878      -1.58676643        1       0.01040968      -0.02576009       0.03090317 
H       0.02839552      -1.10710250      -0.71613440        1      -0.02999480       0.03483896       0.00448226 
O       0.72690346       1.03249886       1.27302137        8      -0.01110177      -0.02160910      -0.01257012 
H      -2.08983665      -0.80194225       0.14539314        1       0.02939023       0.01919977      -0.02183818 
H      -1.35996737       0.32068257       1.09923863        1      -0.00746592      -0.00272917      -0.00234274 
H       1.84716877       0.49370200      -1.45480653        1      -0.00618859      -0.00959808       0.02102772 
