13
Properties=species:S:1:pos:R:3:Z:I:1:forces:R:3 magmom=0 energy=-8809.06123972 dipole="-1.3529517 -1.3084743 0.8052275" pbc="F F F"
C       0.44554656      -0.31736634      -0.24967625        6      -0.01334685      -0.00161239       0.01383521 
C      -0.81568183      -0.28689300       0.62084789        6       0.00599427      -0.00399046       0.01522638 
C       1.31584166       0.90379638      -0.02443015        6       0.01983267      -0.03422108      -0.02905804 
N      -0.46812874      -0.13159250       2.03891024        7      -0.02045734       0.00342358       0.02221562 
O       1.93209430       0.93995408       1.17222398        8      -0.01898328       0.00391564      -0.02213514 
H      -1.33115453      -1.23874456       0.50287630        1      -0.01301215       0.01731715      -0.02457101 
H      -1.48976583       0.49694484       0.26479040        1       0.02597884      -0.00546046       0.00551347 
H       1.01626215      -1.21198905       0.00644929        1       0.02791632       0.01388134      -0.02248954 
H       0.18119249      -0.35324778      -1.30334639        1      -0.00513886       0.02433045       0.00680607 
O       1.45942864       1.78556067      -0.81775419        8       0.01181993      -0.02809116       0.00272809 
H      -1.15854350      -0.56743678       2.63350017        1       0.00364151      -0.01021304       0.01666826 
H      -0.42850435       0.84704143       2.29819279        1      -0.03437246      -0.01104196       0.00461163 
H       1.58119611       0.23025415       1.73233608        1       0.01012747       0.03176233       0.01064889 
