10
Properties=species:S:1:pos:R:3:Z:I:1:forces:R:3 magmom=0 energy=-7739.32638877 dipole="-0.1809369 -1.1271652 -1.153099" pbc="F F F"
C      -0.28823328      -0.11473960      -0.56699235        6       0.01201420       0.00834153       0.01432773 
C       0.82049776       0.63020112       0.15464281        6       0.00034802       0.00164731      -0.01370079 
N      -1.55145484       0.08344395       0.10608006        7       0.02180157       0.02374959       0.01443942 
O       1.97284911       0.75536401      -0.52876401        8       0.01163681      -0.00997562      -0.01550288 
H      -0.33344361       0.24809082      -1.60006263        1       0.00563025      -0.00795756       0.02685739 
H       0.03500983      -1.16351976      -0.60941417        1       0.00119068       0.02102299      -0.01445947 
O       0.72092995       1.06298228       1.26078727        8      -0.02132771       0.00252179       0.00285506 
H      -2.11053408      -0.75541366       0.12024449        1      -0.01567201      -0.01041518       0.00666101 
H      -1.37899375       0.38149992       1.05964821        1      -0.02337040      -0.02177858      -0.01418421 
H       1.88721762       0.39431118      -1.41579924        1       0.00774859      -0.00715625      -0.00729319 
