13
Properties=species:S:1:pos:R:3:Z:I:1:forces:R:3 magmom=0 energy=-8809.07725362 dipole="-1.5820753 -1.2148366 1.0248758" pbc="F F F"
C       0.46380279      -0.32036682      -0.15214374        6       0.00684618      -0.02266196       0.00133821 
C      -0.85631680      -0.18547893       0.61465517        6       0.00080023       0.00174948       0.00610550 
C       1.32453877       0.92813664      -0.09863810        6      -0.00894363       0.00553661      -0.01462850 
N      -0.62864262       0.20226199       2.01569868        7      -0.01432830      -0.00790373       0.00887103 
O       1.76830225       1.25249270       1.12704942        8      -0.02438424       0.01288534      -0.01463539 
H      -1.35702329      -1.15248341       0.59142844        1      -0.00241396       0.01493014       0.00218066 
H      -1.51092715       0.52250559       0.10288575        1       0.02659081       0.01806663      -0.01093783 
H       1.03261357      -1.14167680       0.28661064        1       0.03268999      -0.02168124       0.01267554 
H       0.27345798      -0.55080873      -1.19673695        1      -0.00947230       0.03293203      -0.02140084 
O       1.61279771       1.58591885      -1.05408769        8       0.00083617      -0.02733911      -0.01526593 
H      -1.21782924      -0.31875790       2.64860257        1       0.01054327      -0.01882690       0.00111113 
H      -0.83356099       1.18247368       2.15876694        1      -0.00297204       0.01268886       0.01855709 
H       1.30885025       0.70412593       1.78445789        1      -0.01579213      -0.00037615       0.02602939 
