10
Properties=species:S:1:pos:R:3:Z:I:1:forces:R:3 magmom=0 energy=-7739.55224056 dipole="-2.1055656 -0.4258845 -0.1266048" pbc="F F F"
C      -0.17233766      -0.32623192      -0.31885319        6      -0.00156297       0.00016398      -0.00407422 
C       1.08337790       0.50942412      -0.08288851        6       0.00668240       0.01637993      -0.00895875 
N      -1.38938919       0.44878139      -0.10513742        7       0.00258334       0.01327785      -0.00080357 
O       0.87113988       1.82361311      -0.01717363        8       0.00960348      -0.00609398       0.01877296 
H      -0.11914496      -0.64790357      -1.35947121        1      -0.02696198      -0.00110228       0.00935527 
H      -0.08579166      -1.22159126       0.29642097        1      -0.00556109      -0.00411536       0.00584463 
O       2.16887773       0.01863429       0.00562091        8       0.01335472       0.00983684       0.00511140 
H      -2.12405284       0.19576838      -0.74824408        1      -0.01114928      -0.00068371      -0.02685178 
H      -1.75013312       0.34136492       0.83276176        1       0.01692033      -0.01201739       0.01315623 
H      -0.08941868       1.96001643      -0.09546936        1      -0.00390890      -0.01564588      -0.01155212 
