13
Properties=species:S:1:pos:R:3:Z:I:1:forces:R:3 magmom=0 energy=-8809.02856156 dipole="-0.4529654 -0.9056059 -1.0103175" pbc="F F F"
C       0.42476473      -0.33674617      -0.27881462        6       0.00547583      -0.00662039      -0.00703094 
C      -0.90231239      -0.40408160       0.45744996        6       0.02112434      -0.00076840      -0.00693781 
C       1.32907909       0.72886042       0.30459710        6       0.01816860      -0.03276095      -0.00585913 
N      -0.67265178      -0.85723065       1.82411488        7      -0.01159053       0.02314636       0.01206439 
O       2.59189809       0.74336523      -0.16763357        8       0.02346996       0.02169199      -0.00559950 
H      -1.54629297      -1.12781710      -0.04188281        1       0.00815683       0.00950835      -0.00907749 
H      -1.38463226       0.57726496       0.39566523        1      -0.02076896      -0.01940119      -0.00243108 
H       0.93167704      -1.30240527      -0.21297710        1      -0.00135142      -0.00903038       0.00940998 
H       0.28157710      -0.10971791      -1.33880120        1      -0.00484329       0.02833155       0.00002365 
O       0.98880888       1.53069283       1.12183756        8      -0.00329266       0.00122071      -0.00839548 
H      -1.54578462      -1.08654709       2.27816411        1      -0.01502471      -0.01010788       0.01284534 
H      -0.24340356      -0.11046826       2.35724668        1      -0.00560480      -0.00509922       0.01502800 
H       2.73304337       0.02652104      -0.79237125        1      -0.01391923      -0.00011056      -0.00403987 
