10
Properties=species:S:1:pos:R:3:Z:I:1:forces:R:3 magmom=0 energy=-7739.32638333 dipole="-0.1838224 -1.1330336 -1.1499237" pbc="F F F"
C      -0.28574518      -0.11921892      -0.56457234        6       0.01336244       0.00858774       0.01639294 
C       0.82230079       0.62788509       0.15562723        6       0.00347757       0.00294093      -0.00787873 
N      -1.55027749       0.08693603       0.10350037        7       0.01307283       0.01207344       0.00184981 
O       1.97624710       0.74807431      -0.52606245        8       0.00851539      -0.00818783      -0.01302973 
H      -0.32681309       0.23629808      -1.60031038        1       0.00236238      -0.00718747       0.02698316 
H       0.03531259      -1.16900619      -0.59832636        1       0.00281150       0.01982326      -0.01577362 
O       0.72119169       1.06548942       1.25978176        8      -0.02048300       0.00090014      -0.00187197 
H      -2.11431995      -0.74888620       0.11538104        1      -0.01260633      -0.00202711       0.00748592 
H      -1.37991096       0.38416764       1.05742925        1      -0.02123197      -0.01835716      -0.00413732 
H       1.89057261       0.38490410      -1.41216798        1       0.01071919      -0.00856594      -0.01002057 
