13
Properties=species:S:1:pos:R:3:Z:I:1:forces:R:3 magmom=0 energy=-8809.06796365 dipole="-1.4235772 -1.3701065 0.7545548" pbc="F F F"
C       0.42514119      -0.29070318      -0.29784696        6       0.03139024       0.00384313       0.00913379 
C      -0.81348633      -0.33202712       0.60381053        6      -0.00237673       0.01016095      -0.00373478 
C       1.32766759       0.88654476       0.01341185        6      -0.01990492       0.03520607      -0.00243144 
N      -0.44200541      -0.31586998       2.02554376        7      -0.01255907      -0.01101697       0.01986810 
O       1.92644879       0.83761912       1.21692816        8       0.01480076      -0.00148291      -0.02377818 
H      -1.34893816      -1.25620464       0.39599818        1      -0.01857740      -0.01191172       0.00963927 
H      -1.47892323       0.49244194       0.33959372        1      -0.01279016       0.02068921       0.01494778 
H       0.99250748      -1.21116666      -0.15195310        1       0.02263126      -0.01857329      -0.00897942 
H       0.13425111      -0.21378747      -1.34282383        1      -0.01286513      -0.00890892       0.02842509 
O       1.50836679       1.80699839      -0.72691047        8       0.02910016      -0.01555898      -0.01510791 
H      -1.08928515      -0.84978534       2.58851510        1       0.00776386      -0.01789596      -0.04308238 
H      -0.44622791       0.62902755       2.38917144        1      -0.01949282       0.00570636       0.00940181 
H       1.55274195       0.10450070       1.73109111        1      -0.00712011       0.00974294       0.00569828 
