10
Properties=species:S:1:pos:R:3:Z:I:1:forces:R:3 magmom=0 energy=-7739.32658197 dipole="-0.1765321 -1.096546 -1.1742177" pbc="F F F"
C      -0.30040973      -0.09148889      -0.57690755        6       0.00827417       0.01050831       0.01320447 
C       0.81314110       0.63989791       0.15087959        6       0.00351146       0.01193527      -0.00224648 
N      -1.55561016       0.06849942       0.12120112        7      -0.00635181      -0.02033342      -0.00868174 
O       1.95963344       0.78266397      -0.53985851        8      -0.00235616       0.00111020       0.00532553 
H      -0.36528456       0.30702573      -1.59531609        1       0.00865361      -0.00153824       0.01054307 
H       0.03204601      -1.13398802      -0.66342236        1      -0.00215032       0.00708200      -0.00572271 
O       0.72167986       1.05011681       1.26645095        8      -0.01128838      -0.00609922      -0.01060477 
H      -2.09512382      -0.78385327       0.13718456        1       0.00752536       0.01141236      -0.00957530 
H      -1.37348089       0.35686965       1.07492718        1      -0.00647759       0.00239231       0.02411453 
H       1.86767679       0.44310775      -1.43448773        1       0.00065964      -0.01646956      -0.01635659 
