10
Properties=species:S:1:pos:R:3:Z:I:1:forces:R:3 magmom=0 energy=-7739.32630986 dipole="-0.2140545 -1.185245 -1.1190659" pbc="F F F"
C      -0.26384808      -0.15448410      -0.53837190        6      -0.00128555      -0.00337174      -0.01269976 
C       0.83810083       0.61195561       0.16651154        6       0.00412703      -0.01406028       0.01967347 
N      -1.54058672       0.10771473       0.08274528        7      -0.02819667       0.01035687      -0.02963701 
O       2.00643772       0.68574122      -0.49943400        8      -0.03016737       0.00270866       0.02176542 
H      -0.27574869       0.14631623      -1.59079987        1      -0.00387044       0.00617934      -0.01162941 
H       0.04415949      -1.20880322      -0.51291414        1      -0.00334105       0.00834971       0.00547846 
O       0.72105470       1.09571921       1.24946080        8       0.01218004       0.01977374      -0.00768801 
H      -2.14742171      -0.69792120       0.06397367        1       0.01142439       0.01670914       0.02977754 
H      -1.40476459       0.40772776       1.04064885        1       0.01571494      -0.03927000      -0.00323820 
H       1.92629935       0.28891697      -1.37144914        1       0.02341468      -0.00737542      -0.01180250 
