13
Properties=species:S:1:pos:R:3:Z:I:1:forces:R:3 magmom=0 energy=-8808.96713186 dipole="-0.5899479 -1.3878411 0.3526116" pbc="F F F"
C       0.46903903      -0.36160770      -0.21215577        6       0.02248702       0.00500496      -0.01266500 
C      -0.82708691      -0.29010446       0.59613903        6      -0.00397107       0.00026061      -0.00843065 
C       1.26850591       0.90545433       0.01914364        6       0.00976032      -0.00396243       0.01608719 
N      -0.52115949      -0.20904023       2.02220156        7       0.03639618      -0.00652366       0.00525899 
O       2.38746700       0.79367650       0.76109704        8      -0.00248101      -0.02790346       0.02779774 
H      -1.40311663      -1.19656252       0.41847098        1       0.00662825      -0.02068031      -0.01146923 
H      -1.41373049       0.55680988       0.22966842        1      -0.01552180       0.00152148      -0.02255660 
H       1.03111520      -1.25153963       0.07183967        1      -0.01978454       0.00459168       0.01799705 
H       0.24440463      -0.41178971      -1.27721032        1      -0.01636132       0.01584360       0.01449048 
O       0.92728980       1.97419835      -0.39101492        8      -0.01978037      -0.00263651      -0.02380446 
H      -1.32250769      -0.46365220       2.58392327        1       0.01318662       0.01152302      -0.01983802 
H      -0.27224079       0.73857620       2.27995207        1       0.02740755       0.01080666       0.01782505 
H       2.48598289      -0.10206138       1.09674379        1      -0.03796594       0.01215438      -0.00069250 
