10
Properties=species:S:1:pos:R:3:Z:I:1:forces:R:3 magmom=0 energy=-7739.55178885 dipole="-2.0905932 -0.5090693 -0.056503" pbc="F F F"
C      -0.21428751      -0.26571769      -0.34352310        6      -0.00678854       0.00832909      -0.01493826 
C       1.02291256       0.58141830      -0.05176457        6      -0.01927438       0.02390452      -0.00355553 
N      -1.44067663       0.39640234       0.08641598        7      -0.00165821       0.02238130       0.02425584 
O       0.76090230       1.85533958       0.23890995        8       0.02789405      -0.01059937       0.03160426 
H      -0.23375752      -0.38654874      -1.42663858        1      -0.00010747      -0.04333219      -0.00685893 
H      -0.04665526      -1.25155549       0.09065592        1      -0.00555333       0.00835480      -0.00957345 
O       2.13126420       0.14064714      -0.11375297        8       0.00996981      -0.00934030       0.00100592 
H      -2.21477105       0.21612091      -0.53545122        1       0.00845975      -0.00092678      -0.00071076 
H      -1.71869670       0.12006024       1.01815147        1       0.01296674      -0.01583069      -0.00505623 
H      -0.20791811       1.94547406       0.25299630        1      -0.02590844       0.01705968      -0.01617281 
