10
Properties=species:S:1:pos:R:3:Z:I:1:forces:R:3 magmom=0 energy=-7739.32641599 dipole="-0.1778532 -1.1184374 -1.157203" pbc="F F F"
C      -0.29229502      -0.10764525      -0.57080920        6       0.01873866       0.01224771       0.01565288 
C       0.81774270       0.63347082       0.15338280        6       0.00842643       0.00731967      -0.01361584 
N      -1.55325335       0.07778554       0.11012643        7       0.00959685       0.00593123       0.00465092 
O       1.96871336       0.76414044      -0.53183761        8       0.00219115      -0.01152970      -0.00985257 
H      -0.34329899       0.26722291      -1.59945327        1       0.00747862      -0.01021031       0.02851811 
H       0.03435298      -1.15465671      -0.62725318        1      -0.00270485       0.02283633      -0.01252786 
O       0.72056592       1.06037761       1.26206630        8      -0.02670590      -0.00259296      -0.00161373 
H      -2.10402142      -0.76685868       0.12873814        1      -0.00436635       0.00219732       0.00421131 
H      -1.37825085       0.37796669       1.06226483        1      -0.01908304      -0.01720027      -0.00270506 
H       1.88229363       0.40684667      -1.42022202        1       0.00642843      -0.00899907      -0.01271817 
