13
Properties=species:S:1:pos:R:3:Z:I:1:forces:R:3 magmom=0 energy=-8808.88603649 dipole="-2.0164594 -0.2233501 -0.0707842" pbc="F F F"
C       0.36729751      -0.30661753      -0.25494775        6      -0.02007852      -0.00440883      -0.02044727 
C      -0.90690313      -0.33807119       0.58082230        6       0.00002767      -0.01547007      -0.00125295 
C       1.30570852       0.84833237       0.04507647        6      -0.00570507      -0.00855442      -0.01532614 
N      -0.58462735      -0.43941516       1.99491928        7       0.00012084       0.01469720      -0.00184122 
O       0.71836815       2.02264043       0.37880575        8       0.02723883       0.01229553      -0.01509855 
H      -1.47513384      -1.22404699       0.29885960        1       0.00297436      -0.01282379      -0.00718716 
H      -1.55704251       0.51608767       0.32492104        1       0.03442733      -0.00755688       0.01348071 
H       0.93877552      -1.22047040      -0.10815618        1      -0.00098417       0.02609192       0.01902832 
H       0.11276713      -0.24047284      -1.31579332        1       0.00180934       0.00995922      -0.01435946 
O       2.49303202       0.77508900      -0.01695603        8      -0.02626752      -0.01665746       0.02939352 
H      -1.41158315      -0.57505376       2.55955435        1       0.00290396       0.00407145       0.00401853 
H      -0.10911995       0.38727478       2.33614153        1       0.00539613      -0.00761201       0.00147725 
H      -0.23905127       1.95377579       0.32696964        1      -0.02186312       0.00596815       0.00811435 
