10
Properties=species:S:1:pos:R:3:Z:I:1:forces:R:3 magmom=0 energy=-7739.3265847 dipole="-0.2005518 -1.1817099 -1.1202459" pbc="F F F"
C      -0.26652111      -0.15124592      -0.54239191        6      -0.00390432       0.00099265      -0.00174244 
C       0.83619224       0.61187358       0.16512668        6      -0.01028431      -0.00777425       0.00013262 
N      -1.54232801       0.10756194       0.08354284        7      -0.00399112       0.00511840      -0.04406095 
O       2.00580704       0.68632353      -0.49792636        8      -0.01710745       0.00600553       0.01604343 
H      -0.28177092       0.15272180      -1.59371693        1       0.00531658       0.01381212      -0.01187073 
H       0.04172217      -1.20516472      -0.52128747        1      -0.00419208      -0.00268469       0.00349567 
O       0.71686523       1.09379977       1.24859154        8       0.02531534       0.02206413       0.00446724 
H      -2.14049679      -0.70385955       0.07466616        1      -0.02034242      -0.00904236       0.01808895 
H      -1.40081281       0.40848618       1.03991338        1       0.01730425      -0.01868025       0.01862101 
H       1.92913339       0.29401075      -1.37240074        1       0.01188554      -0.00981128      -0.00317475 
