13
Properties=species:S:1:pos:R:3:Z:I:1:forces:R:3 magmom=0 energy=-8808.88619703 dipole="-2.0559494 -0.0160519 -0.0072327" pbc="F F F"
C       0.31229944      -0.22999730      -0.25177159        6      -0.01766461       0.02114393       0.02003543 
C      -0.88962491      -0.30089356       0.68587726        6      -0.00292787      -0.00263075       0.01265523 
C       1.38748179       0.74793989       0.18447460        6       0.00353882      -0.01617049       0.01016599 
N      -0.45810979      -0.63536969       2.03405535        7      -0.00096679      -0.03266993      -0.02528762 
O       0.94869442       1.92004123       0.70566957        8      -0.01402856       0.00768894      -0.01135101 
H      -1.54815021      -1.09313828       0.33085469        1       0.01085062      -0.01872586       0.01046136 
H      -1.48796347       0.62287148       0.61954734        1       0.04296468       0.01417043       0.01469504 
H       0.78816941      -1.20410333      -0.32582676        1       0.02566835       0.00293322       0.01595107 
H      -0.01013164       0.06482015      -1.25355010        1      -0.00835454       0.01561549      -0.00884038 
O       2.55699324       0.54583098       0.08684416        8      -0.01971435      -0.01300906      -0.00525657 
H      -1.23447665      -0.86692787       2.63717648        1      -0.01669124       0.02126914      -0.00916516 
H       0.06203639       0.11649811       2.46935477        1       0.00499576      -0.00174547      -0.01696517 
H      -0.01141826       1.96947736       0.68184244        1      -0.00767027       0.00213047      -0.00709820 
