13
Properties=species:S:1:pos:R:3:Z:I:1:forces:R:3 magmom=0 energy=-8809.02935069 dipole="-0.3207665 -1.2585292 -0.6404415" pbc="F F F"
C       0.55278072      -0.40187199       0.02748527        6       0.01872442      -0.01398706      -0.01816557 
C      -0.85398153      -0.28598735       0.58646474        6       0.01105518      -0.01361127      -0.01316215 
C       1.35255038       0.86645484       0.23217688        6       0.01279278      -0.01423471       0.02257773 
N      -0.79912371      -0.15680055       2.03674883        7       0.00793478       0.02309221      -0.00230397 
O       2.65532819       0.78950850      -0.10850500        8       0.02240382       0.00816238      -0.01145514 
H      -1.39348818      -1.20103083       0.34550417        1      -0.03421141      -0.00351614      -0.01837691 
H      -1.36116539       0.54683170       0.08755427        1      -0.01212517      -0.00766009       0.01056610 
H       1.07595872      -1.22919315       0.51377608        1      -0.00356998       0.00576714       0.00591745 
H       0.53102431      -0.60785968      -1.04626102        1       0.00478446       0.00258576      -0.01132962 
O       0.90402295       1.89117435       0.65127982        8      -0.00395364      -0.02429142      -0.00874571 
H      -1.71821387      -0.26877547       2.44128265        1      -0.01649260      -0.00384437       0.01880058 
H      -0.47256716       0.77001181       2.28094136        1       0.00680854       0.01583717       0.01613578 
H       2.87934074      -0.09699592      -0.40701370        1      -0.01415120       0.02570039       0.00954147 
