13
Properties=species:S:1:pos:R:3:Z:I:1:forces:R:3 magmom=0 energy=-8808.79707158 dipole="-1.3637844 -0.4620587 0.8724117" pbc="F F F"
C       0.45928075      -0.30552876      -0.05906969        6      -0.03538882      -0.02024728       0.00731047 
C      -0.89689168      -0.16065992       0.62254161        6      -0.01385943      -0.00498079       0.00797453 
C       1.28604170       0.96404390      -0.17341701        6      -0.00651723      -0.03335688      -0.01749759 
N      -0.76566711      -0.26213425       2.07484083        7       0.01263749       0.02583681      -0.01913837 
O       1.05495791       1.92947934       0.74177796        8      -0.01785858      -0.00132648      -0.00212198 
H      -1.55285987      -0.96009832       0.27886567        1       0.02017977      -0.02194653      -0.01398999 
H      -1.36337731       0.77950130       0.30344661        1       0.00159187      -0.00939116      -0.01347788 
H       1.06179693      -1.03524397       0.48968261        1      -0.00525806      -0.01108007      -0.00150888 
H       0.35714905      -0.69379203      -1.06911120        1      -0.00660573       0.04168268      -0.02680864 
O       2.11882687       1.12113194      -1.01159423        8       0.04033912       0.00100396       0.01087438 
H      -1.50252072       0.19435993       2.59018481        1       0.01160539      -0.00075359       0.02105533 
H       0.13654026       0.00707345       2.43816680        1       0.00005656      -0.00270953       0.03509633 
H       0.33193384       1.68338161       1.32813477        1      -0.00092236       0.03726891       0.01223223 
