10
Properties=species:S:1:pos:R:3:Z:I:1:forces:R:3 magmom=0 energy=-7739.32631802 dipole="-0.1919037 -1.018312 -1.2402505" pbc="F F F"
C      -0.33109518      -0.04243657      -0.58958833        6      -0.00418452       0.02725256       0.01212640 
C       0.79494364       0.66547822       0.14192101        6      -0.01852912       0.00039657      -0.02262499 
N      -1.55922905       0.04056757       0.16890736        7       0.02325110      -0.01019566       0.00362130 
O       1.91239377       0.87758566      -0.57762445        8       0.01426289       0.01204639      -0.00644642 
H      -0.44687212       0.42654562      -1.57239525        1       0.00382035       0.00019247      -0.00846664 
H       0.01921571      -1.06735351      -0.76674044        1      -0.00834760       0.00453193       0.01186137 
O       0.73460641       1.00347518       1.28325153        8       0.01348405      -0.00010099       0.02051262 
H      -2.08056089      -0.82234321       0.15008672        1      -0.00133811      -0.01434671      -0.02404393 
H      -1.34196660       0.26701110       1.13233990        1      -0.00599602       0.00490639       0.00757082 
H       1.79622144       0.60303917      -1.49184657        1      -0.01642303      -0.02468295       0.00588952 
