10
Properties=species:S:1:pos:R:3:Z:I:1:forces:R:3 magmom=0 energy=-7739.3263915 dipole="-0.1800295 -1.1253331 -1.1539498" pbc="F F F"
C      -0.28909491      -0.11326143      -0.56784227        6       0.01320148       0.00895706       0.01489574 
C       0.81988282       0.63090691       0.15434042        6       0.00142671       0.00196808      -0.01490458 
N      -1.55184272       0.08229002       0.10691609        7       0.02197548       0.02341242       0.01381999 
O       1.97194663       0.75725939      -0.52939605        8       0.01060524      -0.01006674      -0.01449120 
H      -0.33557259       0.25202530      -1.60001486        1       0.00631838      -0.00834817       0.02710966 
H       0.03489916      -1.16169202      -0.61311666        1       0.00017077       0.02167486      -0.01416971 
O       0.72075680       1.06239600       1.26102163        8      -0.02226529       0.00233333       0.00344482 
H      -2.10910807      -0.75773651       0.12204993        1      -0.01570116      -0.01096411       0.00633484 
H      -1.37875522       0.38080135       1.06021159        1      -0.02294885      -0.02140294      -0.01349541 
H       1.88626943       0.39692309      -1.41669472        1       0.00721724      -0.00756377      -0.00854408 
