13
Properties=species:S:1:pos:R:3:Z:I:1:forces:R:3 magmom=0 energy=-8808.81380386 dipole="-1.5414063 -0.396005 0.7172488" pbc="F F F"
C       0.44524743      -0.29892433      -0.07322598        6       0.01033938      -0.00178249       0.00638600 
C      -0.89851586      -0.18923757       0.62846198        6      -0.01289136      -0.01562948      -0.01454267 
C       1.27725786       0.96940704      -0.15739626        6       0.02840709       0.02410265      -0.00663926 
N      -0.73918996      -0.20667020       2.08062219        7       0.00505278      -0.00237956      -0.02934884 
O       0.89526305       2.02028818       0.59915225        8       0.00976680       0.02935686       0.02101039 
H      -1.50507775      -1.04596257       0.33769369        1      -0.03507206      -0.02353804       0.02486925 
H      -1.42486702       0.69785887       0.25100364        1      -0.02149406       0.00298500       0.03580637 
H       1.06256923      -1.04846269       0.42674057        1       0.00235775      -0.02014434       0.00641804 
H       0.32290527      -0.63940620      -1.10027292        1      -0.01572687       0.01489548       0.00952177 
O       2.24054833       1.05766340      -0.85410430        8       0.02657549      -0.00639341       0.00678956 
H      -1.53732917       0.15128748       2.58460435        1       0.03335996      -0.01009734      -0.01167209 
H       0.10671565       0.23014525       2.41991019        1      -0.02940951       0.01130998      -0.01706606 
H       0.09887437       1.82570167       1.10308869        1      -0.00126539      -0.00268526      -0.03153242 
