13
Properties=species:S:1:pos:R:3:Z:I:1:forces:R:3 magmom=0 energy=-8808.72679273 dipole="-1.0160906 -0.7805762 1.0509506" pbc="F F F"
C       0.45721414      -0.32912044      -0.13618109        6       0.00239457      -0.02807285      -0.01142753 
C      -0.88217334      -0.24710841       0.60756528        6      -0.01602342      -0.00386529       0.02034555 
C       1.26025834       0.95226356      -0.10642755        6       0.00087572       0.00863628       0.00195553 
N      -0.80198984      -0.86156881       1.93289334        7      -0.00109400       0.00096020       0.03067198 
O       1.49725895       1.48139532       1.11805281        8      -0.00379860       0.02543253       0.00710164 
H      -1.62503646      -0.80767020       0.04260852        1      -0.00120600       0.00016537      -0.00712725 
H      -1.22346821       0.79392687       0.62854853        1       0.01425188       0.01905501       0.01378214 
H       1.05840854      -1.13002171       0.30103621        1      -0.00102335      -0.03930050       0.00648108 
H       0.30881093      -0.57059801      -1.18358249        1      -0.00287059       0.01996781      -0.03552262 
O       1.67878765       1.50365975      -1.07649308        8       0.02198916      -0.00810545       0.00511403 
H      -1.62516060      -0.65898318       2.48424634        1      -0.02101260      -0.02875625      -0.00001887 
H      -0.00303967      -0.56325372       2.47650400        1       0.02252389       0.01003353      -0.00646617 
H       1.09947001       0.95158694       1.81357189        1      -0.01500660       0.02384961      -0.02488951 
