10
Properties=species:S:1:pos:R:3:Z:I:1:forces:R:3 magmom=0 energy=-7739.3264051 dipole="-0.1975468 -1.1492889 -1.1428331" pbc="F F F"
C      -0.27826656      -0.13215264      -0.55618874        6       0.01574564       0.00527637       0.01415300 
C       0.82760046       0.62187531       0.15837863        6       0.01752963       0.00318323       0.00532188 
N      -1.54586067       0.09654423       0.09717913        7      -0.01074701       0.01288894      -0.03718268 
O       1.98569862       0.72831411      -0.51903348        8       0.00130247       0.00449496       0.00808725 
H      -0.30853458       0.20118626      -1.59940481        1      -0.00627642      -0.00257393       0.02366809 
H       0.03776132      -1.18396111      -0.56493315        1       0.00558829       0.00952933      -0.01675681 
O       0.72276535       1.07259373       1.25687936        8      -0.01653713       0.00387568      -0.00445660 
H      -2.12816640      -0.72648621       0.09622506        1      -0.01691205      -0.01006026       0.00782479 
H      -1.38469082       0.38794711       1.05345959        1      -0.00434707      -0.00847477       0.02802693 
H       1.90014792       0.35961601      -1.40241227        1       0.01465370      -0.01813960      -0.02868590 
