10
Properties=species:S:1:pos:R:3:Z:I:1:forces:R:3 magmom=0 energy=-7739.32659558 dipole="-0.1739812 -1.0915247 -1.1778772" pbc="F F F"
C      -0.30286089      -0.08735921      -0.57885568        6       0.01125269       0.01133250       0.01541870 
C       0.81177741       0.64136111       0.15032978        6      -0.00100047       0.00720937      -0.00485645 
N      -1.55631442       0.06547183       0.12417560        7       0.00098849      -0.01371463      -0.01274481 
O       1.95782639       0.78573656      -0.54081581        8      -0.00080835       0.00486844       0.00712736 
H      -0.37094041       0.31789029      -1.59437106        1       0.00643141       0.00052060       0.00938273 
H       0.03106394      -1.12855755      -0.67393660        1      -0.00316858       0.00561148      -0.00285151 
O       0.72116994       1.04842213       1.26712923        8      -0.00849436      -0.00611928      -0.01102931 
H      -2.09197566      -0.78905468       0.14086521        1       0.00450020       0.00295852      -0.01220960 
H      -1.37157587       0.35246743       1.07773797        1      -0.00684891       0.00535463       0.02747059 
H       1.86573328       0.44928631      -1.43659707        1      -0.00285218      -0.01802169      -0.01570769 
