10
Properties=species:S:1:pos:R:3:Z:I:1:forces:R:3 magmom=0 energy=-7739.32679967 dipole="-0.1956275 -1.2183364 -1.0977686" pbc="F F F"
C      -0.25771538      -0.16756658      -0.53202467        6      -0.01332747       0.00593107      -0.00690326 
C       0.84092391       0.60416984       0.17291472        6      -0.01669577       0.00184544      -0.01126812 
N      -1.54012073       0.11717737       0.06904691        7      -0.00517049      -0.00986512      -0.01634970 
O       2.01954098       0.65546232      -0.47612480        8      -0.00745121      -0.00632327       0.00639876 
H      -0.25816374       0.11403904      -1.58949466        1       0.01888902       0.00940139      -0.01630208 
H       0.03926925      -1.22404881      -0.48411371        1       0.00636137       0.00694085       0.00586685 
O       0.71020683       1.11480637       1.24185295        8       0.02124060       0.00810201       0.00038700 
H      -2.14804350      -0.68726183       0.05770715        1      -0.02407910       0.00027732       0.01838128 
H      -1.40949177       0.42265459       1.02585345        1       0.01214492      -0.01483707       0.00897433 
H       1.95434625       0.23724798      -1.33976057        1       0.00808818      -0.00147273       0.01081488 
