13
Properties=species:S:1:pos:R:3:Z:I:1:forces:R:3 magmom=0 energy=-8809.20423555 dipole="-2.0034003 -0.9230468 1.3586403" pbc="F F F"
C       0.42949399      -0.37944949      -0.13353875        6       0.00711717       0.00410034      -0.00597807 
C      -0.81714776       0.11263508       0.59565988        6       0.01683034      -0.00202171       0.00635746 
C       1.52042785       0.67152819      -0.29787284        6       0.01151150      -0.00426438      -0.01751400 
N      -0.49059268       0.45394209       1.98744056        7      -0.00184867      -0.01072505       0.00643804 
O       1.71856723       1.46763059       0.75529412        8       0.00098520       0.03103481      -0.03526654 
H      -1.60424700      -0.64078246       0.52084938        1      -0.00786727      -0.00592470      -0.01036247 
H      -1.18312200       1.01820697       0.11167405        1      -0.03090656       0.01479099       0.00411341 
H       0.86426542      -1.21972329       0.41546800        1       0.00399395      -0.01408414       0.00088482 
H       0.17509449      -0.73799397      -1.12706903        1       0.01722917      -0.00456026      -0.02123767 
O       2.17473134       0.77031571      -1.29506484        8      -0.01151165      -0.01979055       0.02616617 
H      -0.34066540      -0.38130746       2.54146855        1       0.01011678       0.00362531      -0.02286122 
H      -1.23979194       0.97351322       2.42359185        1      -0.01143169       0.03015673       0.02926651 
H       1.04967274       1.26811232       1.44651913        1      -0.00421841      -0.02233739       0.03999351 
