10
Properties=species:S:1:pos:R:3:Z:I:1:forces:R:3 magmom=0 energy=-7739.3265085 dipole="-0.1775257 -1.0845058 -1.1840192" pbc="F F F"
C      -0.30589582      -0.08388683      -0.58038278        6       0.02816896       0.02656860       0.01621122 
C       0.81053653       0.64275230       0.14965932        6      -0.00189531       0.00685204      -0.03651969 
N      -1.55622168       0.06165693       0.12915820        7       0.02603540       0.03698964       0.00469113 
O       1.95341180       0.79635680      -0.54493370        8      -0.00018908      -0.00622624      -0.00496259 
H      -0.37956582       0.33029375      -1.59206988        1       0.01146008      -0.00549229       0.01167420 
H       0.03066291      -1.12334024      -0.68572726        1      -0.00987967       0.00690141      -0.00002803 
O       0.72380317       1.04299916       1.26889539        8      -0.02084661      -0.00422077       0.01593827 
H      -2.09226989      -0.79130730       0.14162649        1      -0.01679794      -0.04298468      -0.01193732 
H      -1.36887044       0.34418213       1.08385853        1      -0.00825494      -0.00295528       0.01262489 
H       1.86118119       0.46345491      -1.44218479        1      -0.00780088      -0.01543243      -0.00769207 
