10
Properties=species:S:1:pos:R:3:Z:I:1:forces:R:3 magmom=0 energy=-7739.32659014 dipole="-0.2001531 -1.1820609 -1.119738" pbc="F F F"
C      -0.26640791      -0.15141694      -0.54230396        6      -0.00435134       0.00099214      -0.00180183 
C       0.83628534       0.61168536       0.16528477        6      -0.01102566      -0.00740411       0.00012933 
N      -1.54238006       0.10760839       0.08323865        7      -0.00470404       0.00336485      -0.04204541 
O       2.00613178       0.68554072      -0.49743498        8      -0.01736102       0.00578370       0.01563884 
H      -0.28145734       0.15238778      -1.59367072        1       0.00604364       0.01378667      -0.01226540 
H       0.04164857      -1.20537745      -0.52096808        1      -0.00407165      -0.00267513       0.00345165 
O       0.71669116       1.09415024       1.24848839        8       0.02572872       0.02165059       0.00386858 
H      -2.14035148      -0.70404413       0.07480894        1      -0.01887365      -0.00645455       0.01858239 
H      -1.40102311       0.40919175       1.03947835        1       0.01671068      -0.01953185       0.01676904 
H       1.92962413       0.29287204      -1.37178335        1       0.01190431      -0.00951236      -0.00232731 
