10
Properties=species:S:1:pos:R:3:Z:I:1:forces:R:3 magmom=0 energy=-7739.32623911 dipole="-0.2039759 -0.9985861 -1.259645" pbc="F F F"
C      -0.33810152      -0.03089570      -0.59108838        6       0.00526315       0.03468259       0.01596881 
C       0.78965921       0.67139868       0.14327663        6      -0.02074814       0.01554684      -0.02174248 
N      -1.56041652       0.03612553       0.17831981        7       0.03383968       0.00428053       0.00898719 
O       1.89701723       0.90960302      -0.58317982        8       0.02260956      -0.00027279      -0.03068247 
H      -0.46308845       0.45526814      -1.56475109        1       0.00012490      -0.01776396      -0.00169215 
H       0.01684321      -1.05154458      -0.78674262        1      -0.01983740       0.02133347       0.00987802 
O       0.73894277       0.98622478       1.29156413        8       0.00366819      -0.00597854       0.03556510 
H      -2.08536965      -0.82336703       0.14058706        1      -0.01345566      -0.03508368      -0.02839465 
H      -1.33725348       0.23773988       1.14607438        1       0.00095815       0.00377885      -0.00345371 
H       1.77409041       0.65147110      -1.50151379        1      -0.01242244      -0.02052332       0.01556633 
