13
Properties=species:S:1:pos:R:3:Z:I:1:forces:R:3 magmom=0 energy=-8809.20338928 dipole="-1.9387966 -1.2349198 1.2131346" pbc="F F F"
C       0.42097947      -0.32770964      -0.11690537        6      -0.00696424       0.00297040       0.00857700 
C      -0.88579968      -0.01766711       0.61253453        6       0.00928842       0.00301812       0.01598717 
C       1.40836821       0.83323930      -0.14723044        6      -0.01074845      -0.00662064      -0.00655153 
N      -0.61678160       0.21059434       2.04001174        7       0.00269652      -0.00753426       0.02954563 
O       1.50459333       1.53460311       0.98444568        8      -0.02331821      -0.00272264      -0.00811060 
H      -1.59887302      -0.82820817       0.44755261        1      -0.00723226       0.00535299      -0.03128251 
H      -1.32585183       0.89595447       0.21147345        1       0.00041189      -0.01319331      -0.02385007 
H       0.91418988      -1.17027460       0.37771279        1       0.01431230       0.01104726      -0.00427924 
H       0.23908906      -0.62320286      -1.14702930        1      -0.02821868       0.02599601       0.00349912 
O       2.06620353       1.09530598      -1.11201760        8      -0.00082440      -0.02337076       0.02353619 
H      -0.41593841      -0.66402893       2.51020123        1       0.00557765       0.01958883       0.02327183 
H      -1.40386796       0.63775574       2.51109861        1       0.00533082      -0.02741053      -0.03281880 
H       0.84610294       1.19430645       1.63300992        1       0.03968858       0.01287861       0.00247582 
