10
Properties=species:S:1:pos:R:3:Z:I:1:forces:R:3 magmom=0 energy=-7739.32478058 dipole="-0.2276681 -0.7934644 -1.3208103" pbc="F F F"
C      -0.20808849      -0.32734495      -0.41017080        6       0.00568152      -0.01445402      -0.01038515 
C       0.82474543       0.62089769       0.17112191        6      -0.00247978      -0.00292885      -0.00319814 
N      -1.44708394      -0.29863630       0.33272031        7       0.00083448      -0.00469170       0.00092195 
O       2.06935514       0.48040602      -0.32253690        8       0.01479552       0.01565252       0.00238891 
H      -0.33174083      -0.04573715      -1.46124870        1       0.01258061       0.03283767      -0.01630182 
H       0.23019923      -1.33113139      -0.41115446        1      -0.00612766      -0.03633422       0.02796810 
O       0.58794785       1.44800673       0.99611989        8      -0.03670029      -0.01992225       0.00018126 
H      -2.24493070      -0.17748061      -0.27164322        1      -0.01506908       0.00134700       0.00754809 
H      -1.42991541       0.46710065       0.99558125        1       0.02558001       0.02599483       0.00424160 
H       2.11285781      -0.25235452      -0.94370997        1       0.00090472       0.00249901      -0.01336485 
