10
Properties=species:S:1:pos:R:3:Z:I:1:forces:R:3 magmom=0 energy=-7739.32656293 dipole="-0.173819 -1.101943 -1.1691032" pbc="F F F"
C      -0.29884726      -0.09448159      -0.57598581        6       0.00923407       0.01034494       0.01452000 
C       0.81386729       0.63872811       0.15118896        6       0.00216585       0.01358859      -0.00099270 
N      -1.55552078       0.06995394       0.11836215        7      -0.00780001      -0.02179344      -0.01749564 
O       1.96238297       0.77653354      -0.53713061        8      -0.00200484       0.00300001       0.01060709 
H      -0.36051778       0.29888431      -1.59652508        1       0.00734518       0.00120209       0.00951175 
H       0.03226287      -1.13767210      -0.65650900        1       0.00113998       0.00113602      -0.00708272 
O       0.71991010       1.05444005       1.26453009        8      -0.01008958      -0.00607269      -0.01085098 
H      -2.09493211      -0.78236368       0.13803236        1       0.00569561       0.01132936      -0.00892708 
H      -1.37506728       0.36332835       1.07066591        1      -0.00661463       0.00581640       0.03319572 
H       1.87223853       0.43266902      -1.43016945        1       0.00092832      -0.01855123      -0.02248538 
