10
Properties=species:S:1:pos:R:3:Z:I:1:forces:R:3 magmom=0 energy=-7739.32653027 dipole="-0.2026907 -1.1701415 -1.1293905" pbc="F F F"
C      -0.27023292      -0.14551056      -0.54670655        6       0.00512040      -0.00649024      -0.00842545 
C       0.83312815       0.61499188       0.16239414        6       0.01229491       0.00764178       0.01210522 
N      -1.54227208       0.10312704       0.08922110        7      -0.04013893       0.00726548      -0.02453619 
O       1.99863527       0.70111649      -0.50597224        8      -0.00786665       0.00373946       0.00989988 
H      -0.28997410       0.16737586      -1.59603701        1      -0.00458978       0.00988054       0.00896513 
H       0.04074579      -1.19862416      -0.53533371        1       0.00392762      -0.00511068      -0.00224416 
O       0.71921466       1.08686448       1.25104282        8       0.00744813       0.01093197      -0.00439088 
H      -2.13927302      -0.71003375       0.08067726        1       0.00933419       0.01612869       0.02027994 
H      -1.39443950       0.40210122       1.04580551        1       0.00403278      -0.03103543      -0.00242856 
H       1.91962175       0.31698983      -1.38373142        1       0.01043734      -0.01295162      -0.00922491 
