13
Properties=species:S:1:pos:R:3:Z:I:1:forces:R:3 magmom=0 energy=-8808.80893575 dipole="-1.4829586 -0.4080184 0.7635641" pbc="F F F"
C       0.45332749      -0.29885773      -0.05945987        6       0.00452864       0.01545778       0.00889838 
C      -0.89974130      -0.17448943       0.62419580        6      -0.00040809       0.00934802      -0.01575001 
C       1.27814089       0.97354605      -0.17579557        6       0.01784999       0.00488993       0.00022081 
N      -0.76182654      -0.16152815       2.07870509        7      -0.00004155      -0.02450909      -0.02237575 
O       0.92557799       2.01992518       0.60134678        8      -0.00347058      -0.00311870      -0.00082044 
H      -1.50750850      -1.03273403       0.33572603        1      -0.00977626       0.00202731       0.04850654 
H      -1.41377083       0.71139411       0.23005743        1      -0.03313715       0.00164736       0.01704174 
H       1.07025519      -1.02765898       0.47292375        1      -0.01475232      -0.01432182      -0.01452766 
H       0.33887562      -0.67257428      -1.07579363        1       0.02082054       0.01502255       0.02123855 
O       2.21267275       1.06621573      -0.91008603        8       0.01983838      -0.00921267       0.00595951 
H      -1.53939607       0.25623031       2.56686698        1       0.01086800      -0.00545902      -0.00947297 
H       0.10926712       0.21306615       2.42589967        1      -0.00593827       0.00608380      -0.02700029 
H       0.14866290       1.81874938       1.13278988        1      -0.00638122       0.00214445      -0.01191840 
