10
Properties=species:S:1:pos:R:3:Z:I:1:forces:R:3 magmom=0 energy=-7739.32666905 dipole="-0.1926755 -1.2316461 -1.083146" pbc="F F F"
C      -0.25400887      -0.17353963      -0.52715523        6      -0.01832369       0.01496079      -0.00095810 
C       0.84218478       0.60155854       0.17778240        6      -0.02372419      -0.00267729      -0.02226349 
N      -1.54079001       0.11881501       0.06042631        7       0.00083407      -0.01993340      -0.02387275 
O       2.02425321       0.63599014      -0.46506359        8       0.02371611       0.01564064       0.02176943 
H      -0.24438620       0.10260625      -1.58567742        1       0.01538944      -0.00346389      -0.03348878 
H       0.03819013      -1.23067171      -0.46896768        1       0.01419249       0.01035214      -0.00093562 
O       0.70780264       1.12917499       1.23790227        8       0.00708216      -0.00477845       0.00402779 
H      -2.14608171      -0.68765262       0.05617048        1      -0.03340696       0.00182271       0.01897783 
H      -1.41439524       0.43357997       1.01414358        1       0.00231770       0.00276496       0.04281448 
H       1.95919056       0.21126551      -1.32504965        1       0.01192282      -0.01468825      -0.00607079 
