22
Properties=species:S:1:pos:R:3:Z:I:1:forces:R:3 magmom=0 energy=-12017.924657 dipole="0.1439657 -0.2511285 -0.4281982" pbc="F F F"
C      -0.60767218      -0.07321096       1.02221227        6      -0.00933732       0.01803033      -0.01146044 
C       0.82432656       0.44104704       0.75839628        6      -0.00509428       0.01600512      -0.00348071 
C      -1.63949531       0.77388446       0.26813380        6      -0.02706585       0.02722269      -0.00519543 
C      -0.75395722      -1.55904099       0.70332669        6       0.02121057      -0.02224452      -0.00240640 
C      -1.69526494       0.51603914      -1.23593798        6       0.00981179      -0.01063933      -0.01427029 
C       1.81169473      -0.49103440       1.44042702        6       0.00421167      -0.00002494      -0.00881122 
N       0.96546476       1.80589458       1.23992599        7       0.01630861       0.03381839      -0.01091896 
O       2.37404100      -1.37451322       0.59923377        8       0.00495410      -0.03477001       0.00913863 
H      -0.77683660       0.06423193       2.09525470        1      -0.00510328       0.01895140      -0.00213530 
H       1.02171169       0.41970532      -0.31477856        1       0.00726275      -0.00346893       0.02403601 
H      -2.62603306       0.57130895       0.69145710        1       0.01343587      -0.02893206       0.03427754 
H      -1.42621821       1.82337340       0.46136712        1       0.01975420       0.03247679      -0.01894137 
H      -0.42513083      -1.78492484      -0.31172714        1       0.00686341       0.01245077      -0.01213756 
H      -1.79849219      -1.85979160       0.79208120        1       0.01357388      -0.00771732       0.01717410 
H      -0.16722979      -2.17686012       1.38206020        1      -0.00665026      -0.02890270       0.03301492 
H      -2.31728266       1.26221147      -1.72873201        1      -0.02894111      -0.03274264       0.00696394 
H      -0.70953275       0.56455774      -1.69976728        1       0.02967562       0.02395214       0.01092724 
H      -2.11204642      -0.46724278      -1.45684422        1       0.00449460       0.02662732      -0.00932858 
O       2.07049452      -0.46220434       2.61197587        8      -0.02512487       0.01502337      -0.00165265 
H       1.82990788       2.21991443       0.91309029        1      -0.02129552      -0.02686392       0.00683739 
H       1.00470324       1.80385441       2.25402957        1      -0.02348713      -0.01556839      -0.00909404 
H       2.95838534      -1.93677285       1.12573692        1       0.00054261      -0.01268361      -0.03253685 
