22
Properties=species:S:1:pos:R:3:Z:I:1:forces:R:3 magmom=0 energy=-12017.8403371 dipole="-0.0702329 0.3318292 0.497897" pbc="F F F"
C      -0.20933421       0.09416481       0.87127850        6       0.01057145      -0.00202346       0.00516514 
C       1.24274420       0.38419507       0.45260217        6      -0.00890476       0.00940124      -0.01594377 
C      -1.19962227       1.00093338       0.11995639        6      -0.00141971      -0.00778479       0.00702971 
C      -0.53113025      -1.38221326       0.63836541        6       0.00871938       0.00968792       0.01148538 
C      -1.62515945       2.23281296       0.91191062        6      -0.00510343       0.01288380      -0.01231307 
C       2.20049633      -0.47380860       1.26311586        6      -0.02075580      -0.01434527      -0.00850572 
N       1.56041936       1.80311660       0.53623154        7      -0.02568707       0.00879888       0.01281798 
O       2.23316708      -0.09589233       2.55772442        8       0.00727869       0.01772256       0.02418472 
H      -0.29067616       0.30541428       1.94318738        1       0.01265806      -0.00916465      -0.00811451 
H       1.36751623       0.07111734      -0.58489941        1       0.00525333      -0.01463467      -0.01407329 
H      -0.75676954       1.30548277      -0.83146882        1      -0.01895006       0.01049355       0.01021736 
H      -2.08992220       0.41653038      -0.12237370        1       0.00987504      -0.00678581       0.00400316 
H      -0.51174943      -1.60771405      -0.43055551        1       0.01041122       0.00155814       0.02144892 
H      -1.52871614      -1.61274448       1.01079186        1       0.00945770      -0.01185032      -0.00215412 
H       0.17738373      -2.04893589       1.13159469        1      -0.00902642       0.00377752       0.00367575 
H      -0.77504232       2.87889603       1.12221775        1       0.02201584      -0.01019134      -0.00868400 
H      -2.36185897       2.81704745       0.36187552        1      -0.01230587       0.01401241      -0.01256997 
H      -2.07579298       1.93868854       1.86180239        1       0.00105312       0.00748788      -0.00899809 
O       2.86493425      -1.37909535       0.84398408        8       0.00769531       0.00255069      -0.02550385 
H       2.47115927       1.99468755       0.13821033        1      -0.00680633       0.00826790       0.03458643 
H       1.57117215       2.11227218       1.50167708        1       0.00780289      -0.01545470      -0.01453825 
H       2.86543873      -0.66623762       3.01228617        1      -0.00383259      -0.01440749      -0.00321599 
