22
Properties=species:S:1:pos:R:3:Z:I:1:forces:R:3 magmom=0 energy=-12017.7723984 dipole="0.166519 -0.3252117 0.4855064" pbc="F F F"
C      -0.32741890      -0.13236011       0.88235336        6       0.01399282      -0.00073770       0.01308563 
C       1.11354209       0.45956933       0.84519643        6       0.02553147      -0.00207411      -0.00878078 
C      -1.31172454       0.97897392       0.50408665        6      -0.01521034      -0.03174870       0.00512632 
C      -0.52742802      -1.39304657       0.04359597        6       0.01304876       0.01371370      -0.00867665 
C      -2.77585476       0.56928323       0.59142906        6      -0.01583414       0.00507294       0.00863068 
C       2.05891040      -0.43635878       0.06226436        6      -0.00967002      -0.01226565       0.03601591 
N       1.53431735       0.78867780       2.19686661        7       0.00085469       0.00466614      -0.02033028 
O       2.74576933      -1.29458816       0.84084407        8      -0.00328782      -0.02926630       0.02641593 
H      -0.50168585      -0.39714358       1.92911317        1      -0.01788094      -0.01167296       0.00740514 
H       1.08307654       1.38088122       0.26270015        1       0.01890702       0.01598743       0.00672380 
H      -1.12733913       1.83581518       1.15750170        1       0.01901141      -0.02595364      -0.00412652 
H      -1.07671095       1.30261232      -0.51430790        1      -0.03586149       0.00332567      -0.01299019 
H      -0.43417232      -1.18190689      -1.02206456        1       0.00785122      -0.00134176      -0.02482215 
H      -1.51385085      -1.81608525       0.22603528        1      -0.00297909       0.02452370      -0.00820686 
H       0.20124761      -2.16172169       0.30411943        1       0.01287542      -0.00262278      -0.02435688 
H      -3.43192701       1.41973979       0.40859770        1       0.01414950      -0.00137765       0.01053535 
H      -3.01949333      -0.19697135      -0.14451295        1      -0.01466516       0.01961135       0.03062508 
H      -3.00941674       0.17391948       1.58217827        1      -0.00769068      -0.01003980      -0.01596964 
O       2.18152618      -0.41361126      -1.13013078        8       0.00896760      -0.00181422      -0.00691627 
H       2.41759140       1.28275001       2.20135892        1       0.01246533       0.00837897      -0.02470486 
H       1.66867823      -0.06022951       2.73418654        1      -0.01884866       0.02629190       0.01292704 
H       3.28908200      -1.83940447       0.25661218        1      -0.00572688       0.00934354       0.00239025 
