22
Properties=species:S:1:pos:R:3:Z:I:1:forces:R:3 magmom=0 energy=-12017.9012661 dipole="-0.2106572 0.2963579 0.5605374" pbc="F F F"
C      -0.48272159       0.04278142       0.88663510        6       0.01157547       0.01847677      -0.00398413 
C       0.92826926       0.66324906       0.87198191        6       0.03642929       0.03054013      -0.00797232 
C      -1.46160118       0.87984308       0.04818737        6      -0.02036422      -0.00061527      -0.00189773 
C      -0.45220121      -1.41123038       0.41717095        6      -0.00856568      -0.00492299      -0.00307129 
C      -0.98982602       1.15727660      -1.37578226        6       0.00148507      -0.01271688       0.00160380 
C       1.84534060      -0.14687100       1.77280460        6       0.00933948      -0.00823545      -0.00717775 
N       0.87595811       2.07678985       1.21172019        7       0.01416241       0.00908335       0.02632661 
O       1.71105104       0.19380055       3.07129725        8      -0.00834539      -0.03090651      -0.00196494 
H      -0.83123019       0.06405919       1.92488458        1       0.01208547      -0.00054430       0.00836354 
H       1.34551081       0.56177049      -0.13056741        1      -0.00706652      -0.01912582      -0.02484421 
H      -2.41240923       0.34391464       0.02176655        1      -0.02244548      -0.03453002       0.00277396 
H      -1.65308526       1.82797220       0.54864094        1       0.03901793       0.01622778       0.00526181 
H      -0.18220237      -1.46968881      -0.63740808        1       0.02396042      -0.03216286       0.00205992 
H      -1.43468968      -1.86506242       0.53785900        1      -0.03089217       0.00689143      -0.00871583 
H       0.26771360      -2.01566407       0.96658406        1      -0.01067903       0.01146177       0.03100103 
H      -1.78373866       1.61832352      -1.96256019        1       0.01485656       0.01056970       0.02292241 
H      -0.13747417       1.83640168      -1.37476458        1      -0.01598496       0.00688104       0.00087258 
H      -0.69741139       0.24006095      -1.88656071        1      -0.00117844       0.00735485      -0.03864795 
O       2.60109876      -1.00478314       1.41116163        8       0.00059794       0.03289552       0.00824800 
H       1.79814423       2.49224248       1.16563964        1      -0.01160185       0.00704271      -0.01326062 
H       0.55016358       2.19419894       2.16452752        1      -0.02868847       0.00143390      -0.01456880 
H       2.30555949      -0.37200887       3.57902925        1       0.00230222      -0.01509880       0.01667181 
