22
Properties=species:S:1:pos:R:3:Z:I:1:forces:R:3 magmom=0 energy=-12017.8670097 dipole="0.1091228 -0.3713437 0.4526127" pbc="F F F"
C      -0.45829732      -0.28255862       0.79996628        6      -0.02010433       0.03583408      -0.00194170 
C       0.97586556       0.28293583       0.94344645        6       0.00302295      -0.01124523      -0.01770498 
C      -1.51900793       0.75278409       0.38842168        6       0.00573073       0.02065599      -0.02000879 
C      -0.43896961      -1.48637544      -0.13556722        6      -0.00336655       0.00601762       0.00949832 
C      -1.48073445       1.23787255      -1.06254511        6      -0.01581758       0.01419588       0.01622320 
C       0.99236442       1.32019701       2.05180858        6       0.00224540      -0.04390869      -0.00974561 
N       1.50906038       0.80799282      -0.30135209        7      -0.00986306      -0.03788737      -0.01610076 
O       0.93040116       0.76127562       3.27289154        8      -0.04094086      -0.01475093       0.00364289 
H      -0.73651780      -0.62605052       1.80057667        1       0.00401478      -0.02171143      -0.01652258 
H       1.59771219      -0.55126117       1.27224573        1       0.03899289       0.00603232       0.00720763 
H      -2.49190525       0.28527537       0.56424657        1       0.02279376       0.01002036      -0.00499643 
H      -1.47661105       1.61409315       1.06103733        1       0.01980932      -0.00432665      -0.00263548 
H       0.00672669      -1.21958300      -1.09127152        1       0.01141009      -0.00375011      -0.02714448 
H      -1.45038244      -1.85268086      -0.31353053        1      -0.01796800       0.00157069       0.00018635 
H       0.14338393      -2.30298631       0.29027416        1       0.02742817      -0.01193902       0.02735417 
H      -2.38114513       1.80769674      -1.28685002        1      -0.03034591       0.01462428       0.01251335 
H      -0.62797507       1.87816641      -1.27268796        1      -0.01654490      -0.00834950       0.02752875 
H      -1.43616886       0.40298985      -1.75965763        1      -0.01985391      -0.02096622      -0.01843126 
O       1.02863676       2.50674617       1.88206677        8       0.01252683       0.03234947       0.01404095 
H       2.51777994       0.74347925      -0.31481755        1       0.01676987       0.01553296       0.04152908 
H       1.27943111       1.79238314      -0.37663973        1       0.01442276      -0.00684685      -0.01487522 
H       0.90566511       1.47261045       3.92550313        1      -0.00436255       0.02884840      -0.00961752 
