22
Properties=species:S:1:pos:R:3:Z:I:1:forces:R:3 magmom=0 energy=-12017.8143638 dipole="0.0151024 -0.2215802 0.623718" pbc="F F F"
C      -0.31101134      -0.10289178       0.85424293        6       0.01762147       0.02452288       0.01642349 
C       1.12507345       0.49164244       0.87250001        6       0.01717137      -0.00916280       0.01022847 
C      -1.29198897       0.87686925       0.20327971        6      -0.00175750       0.00840211       0.00841635 
C      -0.40943276      -1.46626296       0.17342871        6       0.01428505       0.00769824      -0.01035116 
C      -1.41839924       2.22651301       0.90098279        6       0.00460073      -0.02282656      -0.00607315 
C       2.16846409      -0.57911577       0.58351312        6      -0.03907784      -0.01030539       0.00252801 
N       1.33695633       1.22053971       2.11440097        7      -0.00318930       0.00155871      -0.02521748 
O       2.54802628      -1.25523691       1.68654594        8      -0.01637335       0.03226220       0.01932030 
H      -0.59895194      -0.22141693       1.90350323        1       0.00837352      -0.03567442       0.01850289 
H       1.21933762       1.19131328       0.03797150        1      -0.00742005      -0.02158637       0.02614735 
H      -0.98868290       1.02362377      -0.83819506        1       0.00053921      -0.01642359      -0.00267153 
H      -2.27105137       0.39289395       0.16668542        1      -0.00990312       0.02308403       0.02679907 
H      -0.08909585      -1.41118939      -0.86700611        1       0.00889005       0.00824609      -0.03378471 
H      -1.44177353      -1.81335057       0.19275281        1      -0.00549836      -0.00113386      -0.00395909 
H       0.20102993      -2.21654562       0.67548091        1       0.02382935      -0.01557353      -0.00918331 
H      -2.17884376       2.83326260       0.41138813        1      -0.01149731       0.03261835       0.00773182 
H      -1.70073313       2.09791429       1.94653247        1      -0.00951925      -0.00313896      -0.00638174 
H      -0.48055485       2.77905334       0.89451704        1       0.01109884      -0.01697468      -0.02166787 
O       2.61090553      -0.82775743      -0.50285542        8      -0.00093763       0.01349392       0.02847456 
H       2.25096578       1.65466716       2.13859284        1       0.01198078       0.00784022      -0.01180332 
H       1.28331745       0.59063383       2.90623391        1       0.01200248      -0.01023741      -0.03150666 
H       3.19627348      -1.91580568       1.40952388        1      -0.02521923       0.00331071      -0.00197245 
