22
Properties=species:S:1:pos:R:3:Z:I:1:forces:R:3 magmom=0 energy=-12017.6642359 dipole="-0.6589757 -0.4877307 -0.4901577" pbc="F F F"
C      -0.34753863      -0.00650439       0.80576604        6       0.01710190      -0.01832991       0.01669798 
C       1.12122459       0.45633518       1.17569198        6       0.00802308      -0.00893227       0.01697175 
C      -1.25332276       1.14000413       0.34115566        6       0.00762296      -0.01704076      -0.00880371 
C      -0.28546699      -1.16358798      -0.18938899        6      -0.00318971       0.00911744       0.02604872 
C      -1.08780626       1.55081064      -1.12173534        6      -0.04527096      -0.01567566       0.00246481 
C       1.29895121       0.15517276       2.64419272        6       0.00886871      -0.00161537       0.02643115 
N       1.50499883       1.83666586       0.97446202        7       0.00795525      -0.01350415       0.03228025 
O       1.46087122      -1.15971714       2.87630267        8       0.00396068      -0.00916742      -0.02739886 
H      -0.80348510      -0.39473119       1.72044198        1       0.00958183      -0.00212522      -0.01079087 
H       1.81946274      -0.18221798       0.63155246        1      -0.02018841      -0.00075313      -0.04433189 
H      -2.28851458       0.82743938       0.49622992        1       0.00561668       0.00894888      -0.02385758 
H      -1.10122714       1.99924004       0.99707431        1      -0.00171565      -0.00530234      -0.02779687 
H       0.21728382      -0.86489447      -1.11170289        1      -0.02225043       0.00978490       0.02271256 
H      -1.28269298      -1.52291384      -0.44781483        1      -0.00706133       0.01457008       0.00700127 
H       0.27379780      -1.99590660       0.23878406        1      -0.00558593      -0.00327615      -0.00345222 
H      -1.61543718       2.48078172      -1.32488098        1      -0.01210342       0.03112459       0.00187084 
H      -0.04502625       1.69207963      -1.40514205        1       0.02331970       0.00220698      -0.02309668 
H      -1.49780619       0.79344120      -1.78887018        1       0.02767561      -0.03350955      -0.00229867 
O       1.23904202       0.96547143       3.52533663        8      -0.00140665       0.00549650       0.01762692 
H       1.20683205       2.19350199       0.08056388        1      -0.00976320       0.01184271      -0.00261898 
H       1.13029863       2.42236381       1.70926167        1       0.00549836       0.02013040       0.02556176 
H       1.49856137      -1.28488820       3.83360051        1       0.00331096       0.01600944      -0.02122173 
