22
Properties=species:S:1:pos:R:3:Z:I:1:forces:R:3 magmom=0 energy=-12017.8157353 dipole="0.3013318 0.1219159 -0.4785257" pbc="F F F"
C      -0.41171068      -0.13382086       0.84674388        6      -0.01931439       0.01472990       0.01950238 
C       1.09151072       0.20338933       0.68888369        6       0.01389507      -0.01034864      -0.02524422 
C      -1.35905579       0.77972940       0.05354612        6      -0.01419218       0.03324241      -0.00534743 
C      -0.66370438      -1.60677166       0.53577120        6       0.00713533       0.00443407       0.00607053 
C      -0.98423600       1.01691545      -1.40667957        6      -0.01547676       0.00650571      -0.02688006 
C       1.31075603       1.70654700       0.84573216        6       0.00695468      -0.01394273       0.00274866 
N       1.69081413      -0.40752477      -0.48216130        7       0.02884197      -0.00291471      -0.01441433 
O       2.14654700       2.22647922      -0.07580551        8      -0.02537890       0.00572528       0.02539232 
H      -0.63784686       0.03579368       1.89975021        1      -0.01499365       0.00120343       0.04091243 
H       1.59697134      -0.22409525       1.56120472        1      -0.03386956      -0.02022975      -0.01254009 
H      -2.35683926       0.33736595       0.10115305        1       0.01110794      -0.00265693       0.00265713 
H      -1.43032043       1.74291416       0.55919610        1       0.02623148       0.02558618       0.00150518 
H      -0.55240182      -1.81493975      -0.52734624        1      -0.00372177       0.00646525       0.00269827 
H      -1.67625602      -1.87622332       0.83810532        1       0.01794810      -0.00716443      -0.00490531 
H       0.03963590      -2.25351137       1.05980661        1       0.00928492       0.00847261       0.02263003 
H      -1.75179093       1.60559247      -1.90664781        1      -0.01992081      -0.00202875      -0.00995269 
H      -0.05103745       1.57720278      -1.49242084        1      -0.00351202       0.01475561      -0.01320416 
H      -0.87473740       0.08342585      -1.95937136        1       0.00922754      -0.03262026      -0.00170834 
O       0.82166961       2.37589542       1.71223597        8      -0.01000900      -0.00826857       0.01825998 
H       2.69480635      -0.29085856      -0.46927185        1       0.01517002       0.00472754      -0.01217011 
H       1.35564552       0.02264623      -1.33299465        1       0.01632378      -0.00883735      -0.02059773 
H       2.23449217       3.16803455       0.12393727        1      -0.00173179      -0.01683594       0.00458757 
