22
Properties=species:S:1:pos:R:3:Z:I:1:forces:R:3 magmom=0 energy=-12017.6331006 dipole="-0.1602047 0.552457 -0.0322697" pbc="F F F"
C      -0.31646547       0.04541182       0.73273580        6       0.01001836      -0.01662938      -0.00007143 
C       1.22245964       0.33124392       0.67718268        6       0.00054487      -0.00400897       0.02173451 
C      -1.15350381       0.89689671      -0.22376837        6      -0.00912767      -0.02558304      -0.00361127 
C      -0.55469030      -1.43990151       0.46866313        6       0.01053211      -0.00099435       0.00450020 
C      -1.21074756       2.39382267       0.10999451        6      -0.00143977      -0.01111925      -0.00154708 
C       1.69793305       0.57459592       2.09715030        6       0.03120502       0.01331518      -0.00383974 
N       1.60266677       1.37893341      -0.26067765        7      -0.00937846      -0.01653070       0.02273771 
O       1.39095515       1.81876202       2.52270668        8       0.00869383       0.01693966      -0.01391095 
H      -0.66754513       0.26521980       1.74645588        1       0.00391024       0.01765284      -0.02334238 
H       1.72394637      -0.58193222       0.35972714        1      -0.00512251       0.00998653      -0.00617929 
H      -0.78755669       0.74608063      -1.23997781        1      -0.02439314       0.02458972      -0.00716597 
H      -2.16397219       0.48563800      -0.18882861        1      -0.00371046      -0.00893613      -0.01247325 
H      -0.24008506      -1.69382685      -0.54614908        1      -0.01074423      -0.00067116       0.00541978 
H      -1.61205306      -1.68671905       0.56735264        1       0.02455455      -0.02720089       0.01624320 
H       0.01359149      -2.05941585       1.16348440        1      -0.01637891      -0.00087659       0.00412266 
H      -2.21721082       2.78805353      -0.02476051        1       0.01775475       0.00627282       0.00293579 
H      -0.91954076       2.57866243       1.14584097        1      -0.02558083       0.01034226      -0.00169641 
H      -0.55004273       2.97312875      -0.53081142        1       0.01627488       0.01750212      -0.00347798 
O       2.25223117      -0.22313671       2.79959244        8      -0.03416559      -0.01986573      -0.02254878 
H       2.59772269       1.34448616      -0.44100789        1      -0.00856203       0.01565329       0.02079472 
H       1.38863814       2.29478292       0.11295737        1       0.00663807       0.00736349      -0.00771712 
H       1.68826812       1.89692048       3.43745311        1       0.01847698      -0.00720166       0.00909296 
