22
Properties=species:S:1:pos:R:3:Z:I:1:forces:R:3 magmom=0 energy=-12017.9090594 dipole="-0.3061917 -0.1164569 0.5740257" pbc="F F F"
C      -0.40380381      -0.30593473       0.63658430        6       0.00565267      -0.01474302      -0.01424782 
C       1.03394575       0.18890756       0.85537852        6      -0.00683188       0.02033599      -0.01071533 
C      -1.32345640       0.86514233       0.28023568        6       0.02049781       0.00344178       0.00972309 
C      -0.42283703      -1.38682852      -0.44027476        6      -0.00212630      -0.02530310      -0.01645403 
C      -2.76442079       0.44304605       0.01165400        6       0.02983040       0.02021000       0.00834945 
C       1.96202733      -0.97822005       1.15174523        6      -0.03735109      -0.01482802       0.01035990 
N       1.09098137       1.21304136       1.88914509        7      -0.01251479      -0.01600954       0.02784870 
O       1.64631718      -1.58911770       2.31287899        8      -0.01549465       0.00478369       0.02487512 
H      -0.74800652      -0.74859500       1.57878080        1      -0.00449938       0.03036324       0.00801449 
H       1.39583281       0.62184563      -0.07799730        1       0.02667936       0.01373267      -0.02404126 
H      -1.29731408       1.59290760       1.08981185        1       0.02025520       0.00282780      -0.00529534 
H      -0.91676100       1.37120328      -0.60154129        1      -0.00449686      -0.00336676       0.00418936 
H      -0.12147097      -0.96616281      -1.40282515        1       0.00030720      -0.01732019      -0.00047452 
H      -1.42031984      -1.80642579      -0.55232080        1       0.01655199      -0.02864302      -0.00479536 
H       0.25628471      -2.20721431      -0.20667805        1      -0.00810376      -0.01123336      -0.01129126 
H      -3.40777172       1.31537453      -0.09730799        1      -0.00581141      -0.01349948       0.00857437 
H      -2.84850081      -0.14458387      -0.90118453        1      -0.02832888       0.00262484      -0.00967768 
H      -3.15003625      -0.16165807       0.83478303        1      -0.02617594       0.00968915       0.00355707 
O       2.88020248      -1.33592649       0.47030271        8       0.03375987       0.00462531      -0.02698975 
H       2.03225392       1.56924086       1.99775572        1      -0.01992050       0.00957325       0.01825555 
H       0.79975114       0.82748393       2.77997849        1       0.02362834       0.00460238       0.01967254 
H       2.28049983      -2.30424354       2.45093468        1      -0.00550751       0.01813636      -0.01943728 
