22
Properties=species:S:1:pos:R:3:Z:I:1:forces:R:3 magmom=0 energy=-12017.9088309 dipole="-0.2438937 0.2163727 0.6116222" pbc="F F F"
C      -0.35830356      -0.00939649       0.88202129        6       0.00378322      -0.02349027      -0.00031429 
C       1.05168665       0.60652018       0.81717723        6      -0.01569103       0.00208085      -0.00712916 
C      -1.39548264       0.88957365       0.19254639        6       0.02277093      -0.01617095       0.01234232 
C      -0.36454758      -1.42377240       0.30476856        6      -0.00044984      -0.01992014       0.00051905 
C      -1.04610275       1.27187472      -1.24270187        6      -0.00044583       0.00658562       0.01220261 
C       2.01959509      -0.27156562       1.59356247        6       0.00900035       0.01332140       0.00352447 
N       1.02638063       1.98672974       1.27555134        7       0.00768153       0.00699093       0.00412688 
O       1.86888716      -0.12499952       2.92660302        8       0.00456484      -0.03532742       0.01017288 
H      -0.62787294      -0.07183893       1.94207438        1       0.00778669       0.00256761      -0.00625652 
H       1.40231450       0.58372951      -0.21567935        1       0.00333919       0.00395898      -0.00095846 
H      -2.35272614       0.36109746       0.21483126        1       0.01906067       0.03304840      -0.00812731 
H      -1.52000986       1.80092088       0.77753303        1      -0.00873728      -0.01190657      -0.02688387 
H      -0.14858701      -1.41060680      -0.76405979        1       0.00177154      -0.00492248       0.00111853 
H      -1.34177739      -1.88332989       0.44859772        1      -0.01161594       0.00474117      -0.02492716 
H       0.37994107      -2.06730304       0.77257944        1      -0.00660624       0.00588628       0.03369112 
H      -1.85081361       1.85423375      -1.68810595        1      -0.03200221      -0.01738673      -0.01777280 
H      -0.14903336       1.88886608      -1.27078232        1       0.01901963       0.01519147       0.02027300 
H      -0.88003293       0.39830367      -1.87356225        1      -0.01788459      -0.00239473       0.00406769 
O       2.82596476      -1.02044849       1.11798335        8      -0.02512719       0.02606507       0.00663864 
H       1.94953529       2.39982911       1.24373253        1       0.00748155       0.01433683      -0.00301518 
H       0.71010844       2.03050627       2.23761431        1       0.00817847      -0.00085659      -0.00310414 
H       2.49682497      -0.71811788       3.35755724        1       0.00412153      -0.00239869      -0.01018831 
