22
Properties=species:S:1:pos:R:3:Z:I:1:forces:R:3 magmom=0 energy=-12017.7959335 dipole="0.1892177 -0.5407861 0.0016425" pbc="F F F"
C      -0.46366148      -0.18839966       0.97352104        6       0.00054333      -0.01998904       0.01869424 
C       1.03351774       0.18886883       0.90332579        6      -0.00335308       0.00503828       0.00884953 
C      -1.39122115       0.80644272       0.25126790        6       0.00006819      -0.01348518       0.00091125 
C      -0.71564359      -1.63991344       0.57074741        6      -0.00968812      -0.00373268      -0.00907255 
C      -1.68962321       0.54808539      -1.22501277        6      -0.00343417       0.00342821      -0.01991731 
C       1.56839326       0.11797894      -0.51757744        6       0.04315242       0.01573001      -0.01868555 
N       1.78936870      -0.59034281       1.87203624        7       0.00719585      -0.00362901       0.00120950 
O       2.11213901      -1.07828737      -0.81808410        8      -0.01668209      -0.02329677      -0.00807717 
H      -0.67746251      -0.10026517       2.04020646        1       0.00215870      -0.01027814       0.02446600 
H       1.11398450       1.24088647       1.17712259        1      -0.01584170       0.00984429       0.02090564 
H      -2.34479808       0.80013689       0.78504311        1       0.02117946       0.02154523       0.01234906 
H      -0.97920612       1.81202959       0.36944621        1      -0.03095171      -0.01292982      -0.02807779 
H      -0.40293677      -1.83556000      -0.45567092        1      -0.01879338      -0.00049838      -0.00772951 
H      -1.77762872      -1.87706029       0.64311041        1      -0.00164422       0.01814181       0.02476091 
H      -0.18191183      -2.33026087       1.22455886        1      -0.00349074       0.01392962      -0.01491271 
H      -2.30932469       1.35654492      -1.61278850        1      -0.00359471      -0.01529894      -0.01589225 
H      -0.79107127       0.50889308      -1.83691221        1       0.01853879      -0.00110599       0.01597936 
H      -2.24520252      -0.38004178      -1.36401562        1       0.03690109      -0.00781019       0.01757822 
O       1.52760060       1.01647008      -1.31124535        8       0.00524510       0.02404419      -0.00764749 
H       2.73355121      -0.23708520       1.96219328        1      -0.00853611       0.00264495      -0.01122523 
H       1.86715468      -1.55445649       1.57463044        1      -0.00903954      -0.01815621      -0.00705608 
H       2.41375880      -1.03685448      -1.73480434        1      -0.00993335       0.01586371       0.00258977 
