22
Properties=species:S:1:pos:R:3:Z:I:1:forces:R:3 magmom=0 energy=-12017.7959335 dipole="0.1892176 -0.5407861 0.0016424" pbc="F F F"
C      -0.46366149      -0.18839969       0.97352104        6       0.00054327      -0.01998930       0.01869444 
C       1.03351771       0.18886884       0.90332580        6      -0.00335313       0.00503833       0.00884969 
C      -1.39122117       0.80644267       0.25126790        6       0.00006798      -0.01348503       0.00091130 
C      -0.71564361      -1.63991348       0.57074744        6      -0.00968812      -0.00373278      -0.00907250 
C      -1.68962312       0.54808538      -1.22501280        6      -0.00343453       0.00342831      -0.01991823 
C       1.56839323       0.11797899      -0.51757742        6       0.04315283       0.01573016      -0.01868585 
N       1.78936871      -0.59034276       1.87203624        7       0.00719600      -0.00362978       0.00120914 
O       2.11213879      -1.07828738      -0.81808418        8      -0.01668224      -0.02329687      -0.00807712 
H      -0.67746254      -0.10026517       2.04020645        1       0.00215875      -0.01027819       0.02446616 
H       1.11398444       1.24088649       1.17712260        1      -0.01584180       0.00984434       0.02090569 
H      -2.34479815       0.80013675       0.78504301        1       0.02117977       0.02154538       0.01234911 
H      -0.97920617       1.81202955       0.36944633        1      -0.03095192      -0.01292987      -0.02807799 
H      -0.40293682      -1.83556005      -0.45567089        1      -0.01879333      -0.00049833      -0.00772956 
H      -1.77762874      -1.87706034       0.64311046        1      -0.00164401       0.01814186       0.02476096 
H      -0.18191181      -2.33026091       1.22455887        1      -0.00349084       0.01392978      -0.01491276 
H      -2.30932438       1.35654508      -1.61278863        1      -0.00359409      -0.01529981      -0.01589194 
H      -0.79107111       0.50889281      -1.83691218        1       0.01853796      -0.00110599       0.01597992 
H      -2.24520267      -0.38004167      -1.36401564        1       0.03690166      -0.00780947       0.01757817 
O       1.52760075       1.01647022      -1.31124525        8       0.00524500       0.02404393      -0.00764744 
H       2.73355116      -0.23708502       1.96219338        1      -0.00853617       0.00264489      -0.01122523 
H       1.86715486      -1.55445642       1.57463036        1      -0.00903969      -0.01815554      -0.00705583 
H       2.41375854      -1.03685451      -1.73480443        1      -0.00993330       0.01586386       0.00258982 
