22
Properties=species:S:1:pos:R:3:Z:I:1:forces:R:3 magmom=0 energy=-12017.7804394 dipole="0.0479245 -0.5844897 0.0477677" pbc="F F F"
C      -0.46787724      -0.17870897       0.88758772        6       0.00648936      -0.00017977      -0.00184919 
C       1.01527665       0.25032204       0.91102147        6       0.00731664      -0.00598429      -0.00253619 
C      -1.38375995       0.80188527       0.14393035        6      -0.00363472      -0.00610971       0.00088317 
C      -0.68652125      -1.62229923       0.43550515        6       0.01285906       0.00798518      -0.00440517 
C      -1.15682426       0.96238121      -1.35756784        6      -0.02363461       0.00769032       0.00430886 
C       1.76729071      -0.01151509      -0.38955382        6      -0.02028796      -0.00410564       0.00932236 
N       1.68180679      -0.36209069       2.05714731        7       0.00344934       0.01146836      -0.01414595 
O       2.09782287      -1.30988394      -0.54621748        8       0.00444883       0.00380199       0.01398588 
H      -0.75082372      -0.11884839       1.94124182        1       0.01705742      -0.02823334       0.00653965 
H       1.04912214       1.33284698       1.04054258        1      -0.00547290      -0.00725637       0.00859227 
H      -2.40978996       0.46543617       0.31273649        1      -0.00913384       0.01236269       0.00613882 
H      -1.30262403       1.78096195       0.62341832        1       0.00440235      -0.00413732      -0.01378070 
H      -0.46904555      -1.75360015      -0.62361618        1      -0.03221963      -0.00833845      -0.00741537 
H      -1.72562170      -1.90527692       0.60864746        1       0.01759329       0.00708812      -0.01655940 
H      -0.05674464      -2.32479734       0.98180866        1      -0.00449095       0.01490129       0.01888846 
H      -1.94658920       1.58015958      -1.78240599        1      -0.00470445       0.02491276      -0.02663884 
H      -0.20505794       1.44278001      -1.57715276        1      -0.01354668      -0.02653240       0.00326736 
H      -1.18538309       0.00508394      -1.87990399        1       0.02686201      -0.00762934       0.02274707 
O       2.08815649       0.82258119      -1.18906045        8       0.01621040       0.02515022      -0.00967691 
H       2.61792229       0.00710710       2.16894106        1       0.00527446      -0.00622320      -0.00262263 
H       1.77394265      -1.36113935       1.91903832        1      -0.00513074      -0.01210357       0.00386987 
H       2.58470676      -1.38235051      -1.37710910        1       0.00029326       0.00147252       0.00108665 
