22
Properties=species:S:1:pos:R:3:Z:I:1:forces:R:3 magmom=0 energy=-12017.8252973 dipole="-0.6805514 -0.6215427 -0.179336" pbc="F F F"
C      -0.28662172      -0.21981831       0.72776392        6      -0.02851683       0.02359522      -0.00219984 
C       1.13516393       0.23689215       1.15199808        6      -0.00549743       0.01755909      -0.02855102 
C      -1.26369570       0.94427995       0.47314706        6      -0.00898919       0.02956152      -0.00532116 
C      -0.20836235      -1.17688832      -0.45792883        6      -0.01110434       0.00076969       0.01961587 
C      -1.24024991       1.57241412      -0.92159962        6       0.00608642      -0.00678488       0.01129187 
C       1.04706886       0.92137864       2.49787751        6       0.02020831      -0.01106875      -0.01465930 
N       1.84049359       1.13448455       0.25744563        7       0.00867187      -0.01384750      -0.03511454 
O       0.85400629       0.04725930       3.50020761        8       0.00716191      -0.01502856      -0.00386457 
H      -0.67694162      -0.78380744       1.57942054        1       0.00572035      -0.00686783      -0.00977600 
H       1.73379475      -0.66765474       1.29596471        1      -0.01624413       0.01288822       0.00119927 
H      -2.27394076       0.56533652       0.64347227        1       0.00256344      -0.00994266       0.01875075 
H      -1.10550616       1.72333854       1.22196281        1       0.01252503       0.02087962       0.02436809 
H       0.31937998      -0.73420194      -1.30452558        1      -0.01934133      -0.00433827      -0.01093007 
H      -1.21013149      -1.43720961      -0.80125655        1       0.00141776      -0.02563333      -0.00994955 
H       0.30402181      -2.09891780      -0.18530470        1       0.03903043       0.01041220       0.00883652 
H      -1.97632908       2.37374149      -0.97773643        1      -0.00960976      -0.00609465      -0.00426659 
H      -0.27372277       2.00145650      -1.17837772        1       0.01134186      -0.00927870       0.02044516 
H      -1.49470980       0.84012423      -1.68684217        1       0.00089526      -0.00166201      -0.02779234 
O       1.10474424       2.10589498       2.67295063        8      -0.02371066       0.00500285       0.02193444 
H       1.73814228       0.85660477      -0.70890234        1      -0.00539376      -0.01206223       0.02587672 
H       1.49108833       2.07914205       0.36665140        1       0.03716165      -0.00662285       0.00629612 
H       0.79209947       0.55354210       4.32027255        1      -0.02437694       0.00856373      -0.00618988 
