22
Properties=species:S:1:pos:R:3:Z:I:1:forces:R:3 magmom=0 energy=-12017.7959335 dipole="0.1892176 -0.5407862 0.0016423" pbc="F F F"
C      -0.46366145      -0.18839968       0.97352104        6       0.00054255      -0.01998976       0.01869449 
C       1.03351775       0.18886881       0.90332579        6      -0.00335359       0.00503839       0.00885010 
C      -1.39122112       0.80644266       0.25126789        6       0.00006783      -0.01348472       0.00091115 
C      -0.71564366      -1.63991346       0.57074745        6      -0.00968802      -0.00373298      -0.00907265 
C      -1.68962308       0.54808537      -1.22501281        6      -0.00343535       0.00342805      -0.01991823 
C       1.56839325       0.11797897      -0.51757740        6       0.04315294       0.01572996      -0.01868467 
N       1.78936873      -0.59034278       1.87203625        7       0.00719606      -0.00362886       0.00120970 
O       2.11213892      -1.07828730      -0.81808419        8      -0.01668199      -0.02329836      -0.00807733 
H      -0.67746254      -0.10026515       2.04020644        1       0.00215896      -0.01027819       0.02446636 
H       1.11398450       1.24088645       1.17712259        1      -0.01584180       0.00984445       0.02090574 
H      -2.34479812       0.80013675       0.78504299        1       0.02117998       0.02154533       0.01234911 
H      -0.97920613       1.81202954       0.36944633        1      -0.03095192      -0.01292972      -0.02807804 
H      -0.40293697      -1.83556003      -0.45567091        1      -0.01879317      -0.00049833      -0.00772946 
H      -1.77762881      -1.87706028       0.64311053        1      -0.00164371       0.01814201       0.02476106 
H      -0.18191185      -2.33026093       1.22455884        1      -0.00349089       0.01392988      -0.01491281 
H      -2.30932441       1.35654502      -1.61278863        1      -0.00359394      -0.01529976      -0.01589184 
H      -0.79107111       0.50889282      -1.83691222        1       0.01853832      -0.00110588       0.01597987 
H      -2.24520261      -0.38004171      -1.36401562        1       0.03690181      -0.00780937       0.01757822 
O       1.52760069       1.01647020      -1.31124519        8       0.00524474       0.02404588      -0.00764919 
H       2.73355120      -0.23708507       1.96219331        1      -0.00853575       0.00264520      -0.01122497 
H       1.86715488      -1.55445642       1.57463042        1      -0.00903985      -0.01815703      -0.00705634 
H       2.41375855      -1.03685440      -1.73480449        1      -0.00993315       0.01586381       0.00258992 
