22
Properties=species:S:1:pos:R:3:Z:I:1:forces:R:3 magmom=0 energy=-12017.9108255 dipole="-0.2889391 0.0317789 0.5860997" pbc="F F F"
C      -0.37767464       0.10881515       0.97466406        6       0.02750232       0.01477073       0.00016486 
C       1.02013003       0.73542255       1.11045529        6       0.02427260       0.00050656       0.00699330 
C      -1.35997108       1.08749859       0.31114601        6       0.01629123       0.00323774      -0.00658028 
C      -0.31322919      -1.22076871       0.22647496        6       0.01134016       0.00380405      -0.01013205 
C      -0.86565660       1.67829230      -1.00823398        6       0.01166453       0.00473705      -0.00830616 
C       1.99441000      -0.28355347       1.67531316        6       0.00059187      -0.02973964       0.00651147 
N       0.94770838       1.95685575       1.89967750        7       0.00549440       0.00881683       0.00752747 
O       1.72620262      -0.57683341       2.96480432        8      -0.01062719      -0.00760188       0.00513619 
H      -0.72883489      -0.09169529       1.99250049        1      -0.02988949       0.01204140      -0.01990080 
H       1.40671248       0.97864206       0.12049935        1      -0.01821251       0.00164114      -0.00913446 
H      -2.29774017       0.55318854       0.14658104        1      -0.00797587      -0.02726295      -0.00175180 
H      -1.57988265       1.90201141       0.99944129        1       0.02249484       0.01494973       0.01933578 
H       0.08473327      -1.08562697      -0.77914365        1       0.01596974      -0.01735572      -0.02509366 
H      -1.30817939      -1.65599732       0.14191029        1      -0.00862338       0.00128823      -0.00687760 
H       0.32468810      -1.94459996       0.73367277        1       0.00011986      -0.00798770       0.01018702 
H      -1.67356276       2.18842157      -1.53168728        1      -0.00135507      -0.00292391       0.02756891 
H      -0.07650891       2.41058882      -0.83424349        1      -0.01009487      -0.02476039       0.00775260 
H      -0.47418924       0.91128824      -1.67888597        1      -0.02591348       0.01167445       0.00897778 
O       2.90125735      -0.79370381       1.07982888        8      -0.00964771       0.02277571      -0.00605248 
H       1.84091670       2.43176962       1.93306798        1      -0.00178892      -0.01666851      -0.00670554 
H       0.68205214       1.73890522       2.85366238        1      -0.01165414       0.02750561      -0.01620644 
H       2.37470480      -1.23243297       3.25119354        1       0.00004103       0.00655163       0.01658583 
