22
Properties=species:S:1:pos:R:3:Z:I:1:forces:R:3 magmom=0 energy=-12017.9162596 dipole="-0.333005 0.2574195 0.5362625" pbc="F F F"
C      -0.59129425       0.14357146       0.85360774        6       0.00617810       0.00331446       0.00052312 
C       0.79629070       0.80118563       0.79439620        6       0.01001789       0.01639850      -0.00310924 
C      -1.57041092       0.81593684      -0.11597825        6      -0.02227876      -0.02052682      -0.00654999 
C      -0.47606688      -1.36124100       0.61334486        6       0.01626681      -0.00442317      -0.01437041 
C      -1.15428557       0.77282517      -1.58256281        6       0.00731947       0.01033172       0.00716644 
C       1.73006876       0.10743107       1.77097595        6      -0.01031676      -0.00258077      -0.00255203 
N       0.70132065       2.23713487       1.01560957        7       0.02039764      -0.01156374       0.00543295 
O       1.39366964       0.35968005       3.05319793        8       0.00008541       0.00722228      -0.00366763 
H      -0.97794718       0.30043253       1.86588583        1       0.01746432       0.00207550       0.01245196 
H       1.22984272       0.62959879      -0.19177034        1       0.00333729      -0.00163697       0.01551214 
H      -2.53418720       0.31644946       0.00133962        1      -0.04153993       0.01255670      -0.00083885 
H      -1.70684117       1.85441940       0.18555615        1      -0.01178599      -0.02300433      -0.01876977 
H       0.03806608      -1.56797599      -0.32620783        1      -0.01345623      -0.01967161       0.00152096 
H      -1.46368813      -1.81958964       0.56964214        1      -0.00685050       0.00563756      -0.00050934 
H       0.08740576      -1.85758164       1.40445469        1      -0.00821956       0.01687503      -0.00229816 
H      -1.93252530       1.20673019      -2.20959571        1       0.01044105      -0.00225928       0.00255784 
H      -0.24375846       1.34789357      -1.75090697        1       0.00494732       0.00303169      -0.00175113 
H      -0.98527985      -0.24734071      -1.92879763        1       0.00442014       0.00872992       0.00718608 
O       2.66037682      -0.58864941       1.47674951        8       0.01737773      -0.00128514       0.00693319 
H       1.61289020       2.67386387       0.95913643        1      -0.02339910       0.02001943       0.00095090 
H       0.32754524       2.42861853       1.93851939        1       0.01398593      -0.00664090      -0.01263399 
H       2.02589986      -0.10410963       3.61596515        1       0.00560773      -0.01260010       0.00681481 
