22
Properties=species:S:1:pos:R:3:Z:I:1:forces:R:3 magmom=0 energy=-12017.9065696 dipole="-0.1665116 0.016753 0.6354973" pbc="F F F"
C      -0.36741117      -0.25164091       0.82205967        6       0.01133430       0.00365683       0.00459281 
C       1.04664158       0.35387459       0.80145072        6       0.02393265      -0.00401169       0.00323645 
C      -1.40549905       0.76674684       0.32909585        6      -0.00646051      -0.01366305       0.00727067 
C      -0.41776676      -1.56086973       0.03314427        6       0.00266346       0.02031182      -0.00810391 
C      -1.13106127       1.33443382      -1.06017169        6       0.00994755      -0.00127748       0.00116923 
C       2.07091195      -0.71667790       1.13754286        6      -0.02162180      -0.00918367       0.01839244 
N       1.10534478       1.52175496       1.66681510        7       0.00832708      -0.00291327      -0.00180702 
O       2.06443768      -1.02826494       2.45019712        8      -0.01303601      -0.01365436       0.01340589 
H      -0.60131982      -0.47593115       1.86794815        1       0.00768899      -0.01135420       0.01010387 
H       1.28128223       0.65657338      -0.21897172        1       0.01938411       0.01093218       0.00117283 
H      -2.37667165       0.26845253       0.33298269        1      -0.03288086      -0.00814623       0.00386175 
H      -1.46714119       1.58648160       1.04385232        1       0.01626609       0.00667710      -0.00547429 
H       0.02287399      -1.44540342      -0.95814863        1      -0.02524057      -0.00375340      -0.00998431 
H      -1.45065404      -1.88895993      -0.08492374        1       0.02415166      -0.01468450      -0.00432665 
H       0.13105953      -2.35699439       0.53816356        1      -0.00689585       0.02385547      -0.01160750 
H      -1.97442305       1.93084410      -1.40676617        1       0.00487312      -0.01041179       0.02091546 
H      -0.25589610       1.98420238      -1.05294418        1      -0.01146316       0.00391116      -0.00692727 
H      -0.96244963       0.54539147      -1.79437191        1      -0.00738025       0.00571448      -0.01159393 
O       2.80077876      -1.25363059       0.35303692        8       0.00288154       0.00425296       0.02217263 
H       2.00181593       1.98769901       1.60607049        1      -0.00945400      -0.02460968      -0.00020507 
H       0.96594645       1.24883354       2.63350949        1       0.00538651       0.02121510      -0.02985154 
H       2.71800921      -1.72554248       2.58974196        1      -0.00240408       0.01713620      -0.01641248 
