22
Properties=species:S:1:pos:R:3:Z:I:1:forces:R:3 magmom=0 energy=-12017.7959335 dipole="0.1892177 -0.5407861 0.0016425" pbc="F F F"
C      -0.46366149      -0.18839967       0.97352105        6       0.00054333      -0.01998920       0.01869424 
C       1.03351772       0.18886884       0.90332580        6      -0.00335303       0.00503828       0.00884958 
C      -1.39122117       0.80644270       0.25126791        6       0.00006819      -0.01348523       0.00091125 
C      -0.71564357      -1.63991345       0.57074742        6      -0.00968817      -0.00373268      -0.00907260 
C      -1.68962318       0.54808538      -1.22501278        6      -0.00343422       0.00342826      -0.01991741 
C       1.56839324       0.11797895      -0.51757744        6       0.04315268       0.01573022      -0.01868606 
N       1.78936870      -0.59034279       1.87203623        7       0.00719595      -0.00362922       0.00120940 
O       2.11213888      -1.07828741      -0.81808414        8      -0.01668230      -0.02329625      -0.00807707 
H      -0.67746252      -0.10026518       2.04020647        1       0.00215875      -0.01027814       0.02446600 
H       1.11398447       1.24088648       1.17712260        1      -0.01584170       0.00984434       0.02090559 
H      -2.34479811       0.80013685       0.78504309        1       0.02117952       0.02154533       0.01234906 
H      -0.97920614       1.81202958       0.36944624        1      -0.03095182      -0.01292982      -0.02807779 
H      -0.40293673      -1.83556000      -0.45567090        1      -0.01879343      -0.00049833      -0.00772946 
H      -1.77762869      -1.87706033       0.64311040        1      -0.00164422       0.01814181       0.02476096 
H      -0.18191178      -2.33026087       1.22455887        1      -0.00349079       0.01392962      -0.01491271 
H      -2.30932455       1.35654499      -1.61278856        1      -0.00359461      -0.01529914      -0.01589220 
H      -0.79107121       0.50889297      -1.83691217        1       0.01853858      -0.00110604       0.01597946 
H      -2.24520258      -0.38004173      -1.36401564        1       0.03690125      -0.00780998       0.01757822 
O       1.52760067       1.01647013      -1.31124532        8       0.00524510       0.02404352      -0.00764703 
H       2.73355119      -0.23708512       1.96219332        1      -0.00853617       0.00264489      -0.01122523 
H       1.86715477      -1.55445646       1.57463039        1      -0.00903964      -0.01815600      -0.00705598 
H       2.41375867      -1.03685453      -1.73480438        1      -0.00993335       0.01586381       0.00258982 
