22
Properties=species:S:1:pos:R:3:Z:I:1:forces:R:3 magmom=0 energy=-12017.9069914 dipole="0.0401671 0.0934964 0.5267793" pbc="F F F"
C      -0.38704070      -0.08405540       0.93656171        6       0.03296453      -0.01298366      -0.00246579 
C       1.06501045       0.18162119       0.45114276        6       0.02313695      -0.00816901      -0.00932287 
C      -1.45358235       0.75684657       0.22044331        6       0.01785621      -0.01585723       0.00275036 
C      -0.67741917      -1.58060695       0.87777769        6      -0.00606832      -0.00493873       0.01714880 
C      -1.54448964       0.57205934      -1.29311074        6       0.00693596      -0.00635695      -0.00298058 
C       1.31269922       1.67986116       0.41916987        6      -0.00265765       0.02365323      -0.00657555 
N       1.38406967      -0.46163939      -0.81093197        7      -0.00342322      -0.00540415       0.02022692 
O       1.28846734       2.22289514       1.65037663        8       0.00449532       0.00680509      -0.01754634 
H      -0.40825759       0.22458330       1.98562602        1       0.01489476       0.00853144      -0.03864348 
H       1.72314400      -0.22979925       1.22077760        1      -0.00559611      -0.01591811      -0.03708179 
H      -2.41568368       0.50755861       0.67393785        1       0.00090025      -0.01535895      -0.01176557 
H      -1.28663884       1.81422045       0.44278441        1       0.00216112       0.01594789      -0.00575706 
H      -0.53728749      -1.97226918      -0.12689155        1      -0.03050424       0.01447053      -0.00134304 
H      -1.69757467      -1.78782820       1.20048045        1      -0.01751770       0.02534959       0.02083370 
H       0.00095987      -2.12627011       1.53441982        1       0.02032750      -0.01590233      -0.00333277 
H      -2.46216095       1.01386480      -1.67693968        1      -0.03268937       0.00978968      -0.00015308 
H      -0.71912604       1.06654299      -1.80415022        1       0.01481706       0.00459142       0.00150312 
H      -1.53880972      -0.48241149      -1.56733360        1      -0.00129542       0.00010567      -0.02286431 
O       1.48753568       2.33243944      -0.57211443        8      -0.01241365      -0.01317027       0.04514616 
H       2.38516666      -0.56400943      -0.91589703        1      -0.01844242       0.02418981       0.03675994 
H       1.07299358       0.10763091      -1.58820495        1       0.00516334      -0.00568589       0.02145982 
H       1.43054045       3.17360360       1.55384899        1      -0.01304490      -0.01368907      -0.00599653 
