22
Properties=species:S:1:pos:R:3:Z:I:1:forces:R:3 magmom=0 energy=-12017.9088526 dipole="-0.235568 0.2823827 -0.4445271" pbc="F F F"
C      -0.37866481       0.00091005       0.83178578        6      -0.00021176       0.00266917      -0.00574688 
C       1.14810914       0.26660076       0.87865193        6       0.00717518       0.00440039       0.00240650 
C      -1.14545085       0.98626572      -0.05638891        6       0.00221362       0.00609351      -0.02322431 
C      -0.69093205      -1.43744182       0.41928355        6       0.00187433       0.00390988       0.01353907 
C      -1.23385680       2.39941967       0.50870147        6      -0.02605983      -0.02908921       0.01991201 
C       1.82516906      -0.37205293      -0.32466789        6       0.02685569      -0.00666559      -0.00101168 
N       1.70735878      -0.20817315       2.13133609        7      -0.02295486       0.01497313       0.00108722 
O       1.60036047       0.30362157      -1.46747980        8      -0.00122508      -0.02935640      -0.00833583 
H      -0.70644313       0.14611133       1.86434413        1       0.01141133       0.00781255       0.00122909 
H       1.32086953       1.34181772       0.81301677        1      -0.02081833       0.00907209       0.00337699 
H      -0.69267858       1.01128003      -1.04853800        1       0.00280405      -0.03194750      -0.02407489 
H      -2.15538551       0.58932498      -0.18993387        1       0.00836359       0.04034807       0.00679625 
H      -0.49294300      -1.58485198      -0.64577849        1      -0.00347356      -0.01272897       0.02462058 
H      -1.74477132      -1.65139717       0.59362838        1       0.00726121      -0.02761422      -0.01406368 
H      -0.10240811      -2.17134600       0.97090485        1       0.00627910       0.01337668       0.00630080 
H      -1.78469015       3.05613791      -0.16417156        1       0.00892008      -0.01510297      -0.00346441 
H      -1.75081989       2.39757380       1.46881583        1       0.02204613       0.01794764       0.02483634 
H      -0.24903415       2.84043370       0.66101433        1       0.01015843       0.01191208       0.00401205 
O       2.48095465      -1.37536393      -0.29058878        8      -0.01181972       0.02573392      -0.02053633 
H       2.69826924      -0.00077959       2.17283666        1      -0.01493024      -0.00639999       0.00069703 
H       1.64000481      -1.21882852       2.17542941        1      -0.01647702      -0.01517702      -0.01181283 
H       2.03410946      -0.18482736      -2.17986268        1       0.00260761       0.01583280       0.00345690 
