22
Properties=species:S:1:pos:R:3:Z:I:1:forces:R:3 magmom=0 energy=-12017.8819079 dipole="-0.0304081 -0.349612 0.4544628" pbc="F F F"
C      -0.35020029      -0.25565272       0.74493453        6       0.00916537      -0.04083339      -0.01565463 
C       1.09235861       0.28101073       0.91787291        6      -0.00362130      -0.00692213       0.00706112 
C      -1.40028024       0.81765241       0.41650429        6       0.02371426      -0.01023484       0.01198098 
C      -0.35914195      -1.39991873      -0.26226304        6      -0.00241442      -0.01947590      -0.01958985 
C      -1.37765108       1.37468650      -1.00570904        6       0.00087613      -0.00368691       0.00369982 
C       1.10378748       1.32550964       2.02097419        6      -0.02759740       0.02338490      -0.00704199 
N       1.68877303       0.77659197      -0.30956353        7      -0.00837784      -0.01321799       0.02105569 
O       0.76237821       0.80850237       3.21430606        8       0.01357671       0.01130992       0.01469278 
H      -0.61912439      -0.66141020       1.72295265        1      -0.01812540       0.00882891      -0.00227265 
H       1.68673387      -0.56411973       1.27409915        1       0.00477603       0.00736914       0.00654258 
H      -2.37924456       0.36491162       0.59479919        1       0.00963891       0.01273401      -0.00391996 
H      -1.31789840       1.64166656       1.13090993        1       0.00743049       0.00983169       0.00924337 
H       0.09165600      -1.09103888      -1.20405809        1      -0.02203749       0.00027202       0.00590474 
H      -1.38131651      -1.72927077      -0.45453493        1       0.00765695      -0.00869203      -0.00601870 
H       0.20399031      -2.25536260       0.11378370        1       0.01189002       0.01889900       0.00297173 
H      -2.21022883       2.06242864      -1.15183116        1       0.00720783      -0.00089917       0.00434254 
H      -0.45834528       1.91361310      -1.22073334        1      -0.01874972       0.01482246      -0.02722953 
H      -1.47002830       0.57847400      -1.74400811        1      -0.00639799       0.01029809       0.00454299 
O       1.35312577       2.48909756       1.86894448        8       0.00016733      -0.02530207       0.00290689 
H       2.69725175       0.72829425      -0.24711292        1       0.00819082      -0.00546174      -0.01088466 
H       1.46647072       1.75911511      -0.41871220        1       0.00272074       0.00984686      -0.01299389 
H       0.76412805       1.53045785       3.85548316        1       0.00030992       0.00712921       0.01066062 
