22
Properties=species:S:1:pos:R:3:Z:I:1:forces:R:3 magmom=0 energy=-12017.8121815 dipole="0.2372769 0.150511 -0.5240249" pbc="F F F"
C      -0.35228546      -0.00071439       0.73402546        6      -0.01935799      -0.02567555       0.00067939 
C       1.15986996       0.23113843       0.49602436        6      -0.02575305       0.00037302      -0.00686371 
C      -1.27959187       1.00854563       0.03898371        6      -0.00416812       0.00062102       0.00567751 
C      -0.71329831      -1.44719265       0.41488673        6      -0.00626023      -0.02814391       0.01556371 
C      -1.41365030       0.89861362      -1.47925520        6       0.01270953      -0.00727077       0.02030040 
C       1.48404270       1.67090832       0.87175296        6      -0.01659647       0.01498202      -0.01861397 
N       1.61465670      -0.20651228      -0.80990049        7      -0.00306882      -0.02064329      -0.02323398 
O       2.00115460       2.38737653      -0.14427594        8      -0.00983900       0.00492418      -0.00570564 
H      -0.48931301       0.16060642       1.80562690        1      -0.00029316       0.00679399      -0.00088636 
H       1.67650446      -0.37465106       1.24452836        1      -0.00104803      -0.01844263      -0.01520494 
H      -2.27167491       0.87850591       0.47783311        1      -0.00907527      -0.01892276      -0.00811296 
H      -0.97459850       2.02182394       0.31338701        1       0.00399781       0.01382837      -0.02747815 
H      -0.55219284      -1.67598570      -0.63632911        1       0.01507741       0.01556592       0.01531282 
H      -1.75676988      -1.64858714       0.66059688        1      -0.00909101       0.04452323       0.00239498 
H      -0.09296159      -2.13321945       0.99212829        1       0.00718310      -0.01343880       0.01669998 
H      -1.71359435      -0.10405868      -1.77857928        1       0.00490078      -0.02463102      -0.01403036 
H      -2.17665542       1.58901641      -1.83778130        1       0.01363410       0.01583337       0.00190673 
H      -0.48996882       1.13924569      -2.00398304        1       0.00455260       0.02665494       0.01794291 
O       1.28253297       2.14816405       1.95297099        8       0.03175061      -0.01331544       0.03027736 
H       2.61823105      -0.32228554      -0.82243814        1       0.03295985       0.01758254       0.01007744 
H       1.39068728       0.47112240      -1.52485788        1      -0.01652386      -0.00212774      -0.01510559 
H       2.15364650       3.28081120       0.18984824        1      -0.00569073       0.01092930      -0.00159753 
