22
Properties=species:S:1:pos:R:3:Z:I:1:forces:R:3 magmom=0 energy=-12017.9157317 dipole="0.2395906 0.3193744 -0.477557" pbc="F F F"
C      -0.36438051      -0.15227882       0.82167447        6      -0.02315556      -0.02636085      -0.00058323 
C       1.13941441       0.15049336       0.66735323        6      -0.01851590      -0.03115658      -0.02865865 
C      -1.20712796       0.89043345       0.08103713        6      -0.00476317       0.01372856      -0.00357990 
C      -0.67174167      -1.57730854       0.37188509        6       0.00377937      -0.00704549      -0.01391656 
C      -2.70880207       0.71917522       0.28688612        6      -0.01804349       0.00930873       0.01506471 
C       1.44737556       1.45748424       1.39231112        6      -0.00403668       0.01164010       0.01482349 
N       1.56514341       0.07465173      -0.71723234        7       0.01611007       0.02600033      -0.01580282 
O       2.08019937       2.36492155       0.62480999        8      -0.00812906       0.00412606       0.01415248 
H      -0.58223229      -0.05972864       1.88865028        1      -0.01411155      -0.00654135      -0.00513686 
H       1.68314708      -0.61501781       1.22720414        1      -0.00057886       0.00308337       0.01448025 
H      -0.91309132       1.88740657       0.42250809        1      -0.01204726       0.01633335       0.00303632 
H      -0.99038724       0.84738504      -0.99005699        1       0.01313921      -0.03223454      -0.00022852 
H      -0.45214713      -1.69839328      -0.68871243        1      -0.00478991       0.00621071      -0.00164227 
H      -1.71947402      -1.82350842       0.54140969        1       0.02650360       0.00976284       0.00811692 
H      -0.07048475      -2.30236579       0.92286176        1       0.01158971       0.03410872      -0.00314965 
H      -3.25860769       1.55989765      -0.13516380        1       0.00836097      -0.00933419       0.00039893 
H      -3.07505845      -0.18728219      -0.19197762        1      -0.01126452      -0.00706508      -0.01187145 
H      -2.95515758       0.65766530       1.34826527        1       0.02443253       0.01576621       0.00338177 
O       1.16197252       1.67711104       2.53628965        8       0.01636636      -0.00631057      -0.00088045 
H       2.57227837       0.13010896      -0.78875265        1       0.00984913      -0.01723256       0.01258236 
H       1.20090416       0.85498661      -1.24949083        1      -0.01382523      -0.00502424       0.01074418 
H       2.22514906       3.14447139       1.17694222        1       0.00313037      -0.00176357      -0.01133106 
