22
Properties=species:S:1:pos:R:3:Z:I:1:forces:R:3 magmom=0 energy=-12017.8882482 dipole="-0.0571228 -0.2248272 0.4797471" pbc="F F F"
C      -0.43435553      -0.20547637       0.78594357        6      -0.00769444       0.00700343       0.00964920 
C       1.00414816       0.35770653       0.89637010        6       0.00212486      -0.00200592      -0.03191912 
C      -1.48354063       0.81287637       0.31190380        6      -0.03047241       0.00787056       0.00991345 
C      -0.43987737      -1.48541670      -0.04341500        6       0.00063748       0.00712057      -0.00727015 
C      -1.40590273       1.28823327      -1.13860494        6       0.00240069       0.00312626      -0.00815832 
C       0.97305735       1.61119884       1.75429793        6       0.01020152       0.02656819      -0.02375278 
N       1.63454643       0.57529037      -0.39145886        7       0.01220379       0.02219510      -0.02687898 
O       0.73489750       1.33723056       3.04913571        8      -0.03476157       0.00705043      -0.01244285 
H      -0.71797660      -0.46753442       1.80826279        1       0.00445809       0.00670019       0.01843311 
H       1.58770068      -0.38728636       1.44051126        1       0.01003461      -0.02356833       0.00228540 
H      -2.46022084       0.35074104       0.47102981        1      -0.01399673      -0.02535710      -0.01388206 
H      -1.46140844       1.68641877       0.96890772        1       0.00053746       0.00025876       0.01298284 
H      -0.05294391      -1.31049684      -1.04480444        1      -0.00267148       0.01951200       0.00475803 
H      -1.45445362      -1.87744545      -0.12203402        1      -0.00911518      -0.00573485      -0.00159516 
H       0.18223999      -2.25128245       0.42195944        1       0.00920728       0.01440476      -0.00288581 
H      -2.30364848       1.85399876      -1.38748125        1       0.00641891      -0.00325990      -0.00307370 
H      -0.55945928       1.94916862      -1.31292694        1       0.01954285       0.01495426       0.02256683 
H      -1.33345109       0.45945646      -1.84216161        1       0.01089850      -0.02603078       0.03360242 
O       1.11056498       2.73193178       1.34892565        8       0.01225989      -0.02628526      -0.02928014 
H       2.63884924       0.63695691      -0.28480416        1       0.00040917      -0.01371103       0.01117227 
H       1.33924168       1.46274755      -0.77918598        1      -0.00194514       0.00019078       0.00708144 
H       0.68707561       2.18152680       3.51606614        1      -0.00067815      -0.01100206       0.02869392 
