22
Properties=species:S:1:pos:R:3:Z:I:1:forces:R:3 magmom=0 energy=-12017.9179929 dipole="-0.2463181 0.1260785 0.5441675" pbc="F F F"
C      -0.53812804       0.05699096       0.93289341        6       0.02213633      -0.00074120      -0.00679286 
C       0.90262185       0.59992148       0.94603832        6       0.00626758       0.00173637       0.01283387 
C      -1.40987426       0.93111264       0.02697328        6       0.02835428      -0.00363801       0.01068119 
C      -0.57355818      -1.40992328       0.50839257        6      -0.01143606       0.00845081      -0.00136880 
C      -2.88985278       0.56368288       0.05954946        6       0.00505248      -0.01047447      -0.01187742 
C       1.84006440      -0.37100096       1.64424915        6      -0.00160560       0.01739043      -0.01332001 
N       0.94551789       1.92753161       1.54954932        7      -0.00422833      -0.01811347      -0.00373849 
O       1.54975583      -0.48418791       2.95840002        8       0.02123762      -0.00946397      -0.01250297 
H      -0.91774320       0.13481627       1.95895355        1       0.01714324      -0.00748644      -0.01419007 
H       1.26611490       0.67483976      -0.08050153        1      -0.02113452      -0.01795777       0.00199533 
H      -1.27753627       1.97139938       0.32152622        1      -0.00787971       0.00120091       0.01490510 
H      -1.03571239       0.84527023      -0.99840175        1       0.00491569       0.00534805       0.00033445 
H      -0.23724065      -1.51868189      -0.52570147        1       0.02396253       0.00335565       0.02243673 
H      -1.58512228      -1.80569746       0.57456546        1      -0.00783842      -0.00514503      -0.00506749 
H       0.06071564      -2.03682940       1.13665852        1      -0.00928513       0.01569623      -0.01081247 
H      -3.48335912       1.30252983      -0.47783684        1      -0.00374563       0.00955823       0.02603412 
H      -3.07676485      -0.40142117      -0.40904314        1      -0.00994590      -0.03157778       0.01662604 
H      -3.26025521       0.51412804       1.08618518        1       0.01035980       0.02662779      -0.02923504 
O       2.74405188      -0.96903723       1.13301565        8      -0.02729051       0.00913045       0.01609614 
H       1.85492902       2.35586098       1.43220522        1      -0.00740174      -0.00939821      -0.00071739 
H       0.76258003       1.86291068       2.54428985        1      -0.01312368       0.01961181      -0.00520556 
H       2.19136141      -1.09204249       3.34742785        1      -0.01451429      -0.00411042      -0.00711429 
