22
Properties=species:S:1:pos:R:3:Z:I:1:forces:R:3 magmom=0 energy=-12017.7824013 dipole="0.4467036 0.2053684 -0.2033767" pbc="F F F"
C      -0.40032214      -0.16725045       0.78911546        6      -0.02996667      -0.01208038      -0.01027053 
C       1.07625676       0.25212598       0.79586746        6      -0.03010464      -0.01920604      -0.00429940 
C      -1.38420097       0.85449202       0.19410411        6      -0.00414668       0.01389712       0.00745538 
C      -0.54598147      -1.54954906       0.15969075        6      -0.00229785       0.00238228      -0.00253824 
C      -1.26082321       1.20142607      -1.29198521        6       0.00751220       0.00810700       0.02292961 
C       1.29091906       1.48280063       1.67194391        6      -0.01522561       0.00794404      -0.01215787 
N       1.67033147       0.31577454      -0.53049388        7      -0.00704354       0.02021782       0.00822460 
O       2.46569592       2.09041103       1.41518636        8       0.00779754       0.03315911      -0.00810839 
H      -0.67657003      -0.24637106       1.84305168        1      -0.00050239      -0.01388026      -0.01048167 
H       1.61875837      -0.53470730       1.33388636        1      -0.01355671      -0.01286853       0.00462907 
H      -2.38239177       0.44423917       0.36551720        1       0.00928585       0.00302711       0.00397986 
H      -1.33452187       1.77254131       0.78107620        1      -0.01228077       0.00513784       0.02337277 
H      -0.20442333      -1.56087963      -0.87403527        1       0.00100628       0.02937861       0.01075529 
H      -1.58781273      -1.87121683       0.18790859        1       0.01894332      -0.00208573      -0.00292756 
H       0.04914125      -2.27990612       0.71031139        1      -0.01363292      -0.02579382      -0.03286158 
H      -2.17646194       1.68433792      -1.63211758        1      -0.00356910      -0.00648103      -0.01459147 
H      -0.45645803       1.91218170      -1.48322431        1       0.02933948      -0.01957026      -0.00751266 
H      -1.09620182       0.32506629      -1.91870369        1       0.01741768      -0.01310455       0.03439524 
O       0.55383764       1.86506240       2.53709861        8       0.01035383      -0.00678643      -0.00376060 
H       2.67270234       0.42929252      -0.46405403        1       0.02025721      -0.00361811       0.00202701 
H       1.31843318       1.10388594      -1.05636602        1      -0.00223588      -0.00401293       0.00461163 
H       2.55311732       2.81231318       2.05064866        1       0.01264942       0.01623708      -0.01287048 
