22
Properties=species:S:1:pos:R:3:Z:I:1:forces:R:3 magmom=0 energy=-12017.9018784 dipole="-0.0073055 -0.4947001 -0.3290192" pbc="F F F"
C      -0.36937622      -0.10790797       0.72751771        6      -0.03208881      -0.01001105       0.00264690 
C       1.13336641       0.25405306       0.75927073        6      -0.04087586      -0.01075426       0.00979806 
C      -1.22298032       1.01421159       0.12665151        6       0.00670143       0.00118173      -0.00453841 
C      -0.65592775      -1.43751267       0.03151919        6      -0.00172665       0.00055412      -0.00575444 
C      -1.14738936       2.34663192       0.86610617        6       0.01699247       0.01223609       0.01933917 
C       1.59708612       0.82536366      -0.57220722        6       0.00846268       0.02454437      -0.00337313 
N       1.92947485      -0.87702746       1.21009982        7      -0.00814119       0.00387260       0.04279170 
O       1.74285062      -0.12217758      -1.52156205        8      -0.01333369       0.00385583      -0.01245221 
H      -0.64388319      -0.22678058       1.77992822        1      -0.00657611       0.03154034       0.00668919 
H       1.26272990       1.06539360       1.47524441        1       0.02766965       0.00038541      -0.03498855 
H      -0.94005964       1.16243510      -0.92069632        1       0.00040176      -0.02486874      -0.01294119 
H      -2.26013653       0.67095179       0.10925372        1       0.02082362      -0.00829623       0.01609367 
H      -0.37037824      -1.41580479      -1.02052154        1       0.00758496       0.01649718       0.00452992 
H      -1.72395147      -1.64986388       0.08440604        1       0.00849148       0.00088276      -0.00472517 
H      -0.13753323      -2.26210525       0.51986339        1      -0.00900735       0.00494655      -0.02518972 
H      -1.86691353       3.05354576       0.45238113        1       0.01857807      -0.00989021       0.02288076 
H      -1.37965486       2.21569679       1.92545147        1       0.01063110       0.00311705      -0.02512971 
H      -0.16035913       2.80185166       0.78384585        1       0.00044382      -0.02968077       0.00011251 
O       1.82635608       1.98323124      -0.78594269        8      -0.03431425      -0.01800883      -0.02195501 
H       2.89439444      -0.60715311       1.35367804        1      -0.01585718       0.00347562       0.01582694 
H       1.92184143      -1.61574706       0.51840234        1       0.02640981      -0.00375386      -0.01542019 
H       2.03342809       0.31809918      -2.33108226        1       0.00873028       0.00817426       0.02575886 
