22
Properties=species:S:1:pos:R:3:Z:I:1:forces:R:3 magmom=0 energy=-12017.915533 dipole="-0.1184894 -0.0091509 0.6112851" pbc="F F F"
C      -0.31511061      -0.08527531       0.86793112        6       0.00258298      -0.01546292      -0.00407155 
C       1.10031898       0.49210513       0.68668214        6      -0.00966210      -0.02060734      -0.00439726 
C      -1.35027637       0.95926173       0.43996150        6       0.01882973      -0.00343952       0.00439078 
C      -0.46540367      -1.40326546       0.11065214        6       0.00610287       0.01094802       0.00222097 
C      -2.79528961       0.53514080       0.68254293        6       0.02268721      -0.00412924      -0.01193892 
C       2.15335407      -0.58423288       0.89727666        6      -0.02496068       0.02669191       0.00546149 
N       1.29446854       1.64867609       1.55101803        7       0.01548627      -0.02948546       0.02147298 
O       2.17657513      -1.02792512       2.17156331        8      -0.01001959       0.00687976       0.00665340 
H      -0.44837334      -0.28619649       1.93788384        1       0.00785251       0.02460608      -0.00741059 
H       1.22191824       0.81015696      -0.35054126        1      -0.03379186       0.00972839       0.00829402 
H      -1.14448013       1.88250494       0.97866177        1       0.01219675       0.01013179       0.01484339 
H      -1.20088449       1.18327704      -0.62136035        1      -0.02640950      -0.03130879      -0.01094123 
H      -0.24489269      -1.26648589      -0.95078932        1      -0.02632985       0.00609614       0.00750474 
H      -1.47781718      -1.79301314       0.20308066        1       0.02466444       0.00787318      -0.00778067 
H       0.21193887      -2.16701792       0.49506571        1       0.00340198       0.00916393      -0.02021412 
H      -3.47629662       1.36767340       0.51125763        1      -0.00183222       0.00500100      -0.00728178 
H      -3.09737017      -0.27529234       0.02218909        1      -0.02602234      -0.03227429      -0.01936869 
H      -2.93810048       0.19630021       1.71023548        1       0.02018794       0.01232515       0.01512889 
O       2.89623619      -1.00857480       0.05827730        8       0.00001944      -0.00984110      -0.00695411 
H       2.16001624       2.12784685       1.34197539        1       0.02524479      -0.00904910       0.00997979 
H       1.32099074       1.36311623       2.52288482        1       0.01090976       0.00584648      -0.00195306 
H       2.86655464      -1.70123240       2.23112903        1      -0.01113864       0.02030601       0.00636153 
