22
Properties=species:S:1:pos:R:3:Z:I:1:forces:R:3 magmom=0 energy=-12017.9303251 dipole="0.2170461 -0.2387299 -0.3544337" pbc="F F F"
C      -0.53301491      -0.01182506       0.90695867        6      -0.03049766      -0.00101944      -0.00838169 
C       0.93567363       0.42115965       1.09685877        6      -0.02550056       0.02846875      -0.02824393 
C      -1.35068744       1.08340821       0.20612834        6       0.01248944      -0.01835336       0.01647542 
C      -0.62765880      -1.35188349       0.17931444        6      -0.00371170      -0.00149880      -0.00530979 
C      -0.83433943       1.49701438      -1.16851299        6       0.02042844      -0.02914721       0.02209395 
C       1.64290760      -0.62581901       1.94210821        6       0.00657647       0.01148831      -0.00766215 
N       1.00320426       1.74038400       1.69978540        7       0.02556854       0.01844705       0.03670924 
O       2.32586326      -1.52630506       1.21429086        8       0.02727072      -0.01389167       0.02487630 
H      -0.94791379      -0.13923329       1.91306039        1      -0.01255809       0.01626223      -0.00729088 
H       1.42299666       0.45323939       0.12241814        1       0.01729705      -0.00300577      -0.03194550 
H      -2.37940527       0.72523171       0.11853022        1       0.00801120      -0.01401724      -0.00117309 
H      -1.37296453       1.96406725       0.84522814        1      -0.01281700       0.00001352       0.01315999 
H      -0.14189069      -1.30457119      -0.79628642        1      -0.00426865       0.00228309      -0.01305596 
H      -1.67163622      -1.62504389       0.02719033        1      -0.00207709       0.01080372      -0.01493307 
H      -0.15180628      -2.15701753       0.73739020        1      -0.01544040      -0.00241000       0.01780201 
H      -1.46303947       2.28777192      -1.57648658        1       0.01817863      -0.02000956      -0.03783523 
H       0.18099138       1.88908350      -1.10135927        1      -0.01980089       0.02578868       0.00018435 
H      -0.83466558       0.67066247      -1.88093870        1      -0.01076763       0.00531853       0.03547182 
O       1.59972879      -0.66707368       3.14016907        8      -0.01475104      -0.00204218       0.03171117 
H       1.95294195       2.08967676       1.69870821        1       0.00917889      -0.01456242       0.03040026 
H       0.70891499       1.68582904       2.67000346        1       0.00463539      -0.00764003      -0.03014572 
H       2.70912913      -2.16178465       1.83488944        1       0.00255593       0.00872375      -0.04290745 
