22
Properties=species:S:1:pos:R:3:Z:I:1:forces:R:3 magmom=0 energy=-12017.9077478 dipole="-0.2961011 0.1887579 0.5832518" pbc="F F F"
C      -0.44422459       0.07330360       0.88856489        6       0.03016665      -0.02940931      -0.00071631 
C       0.96350548       0.68317925       1.03191912        6       0.02345191      -0.00965588       0.02573356 
C      -1.39171577       1.01848898       0.13236076        6       0.03352292      -0.02223264       0.01478364 
C      -0.37973521      -1.30691536       0.23291186        6      -0.00457579      -0.01361553      -0.00255203 
C      -0.87607575       1.47040950      -1.23055364        6       0.00391996      -0.02044644       0.01646591 
C       1.84250025      -0.23452966       1.87211609        6      -0.03864538       0.00953920      -0.02057268 
N       0.88356657       2.03526622       1.56543961        7       0.01608852      -0.01219166      -0.04279494 
O       1.55786831      -0.13879057       3.18865838        8      -0.00660928      -0.00964195      -0.03129496 
H      -0.83973913      -0.04532110       1.90354922        1      -0.00015195      -0.02203682      -0.01241267 
H       1.43765736       0.71607528       0.04863555        1      -0.01506476       0.01691025       0.03066051 
H      -2.34766614       0.50232007       0.01696699        1       0.00332906      -0.01446410      -0.01447351 
H      -1.58187558       1.89802901       0.74590587        1       0.00864544       0.01834780      -0.00489476 
H      -0.01835116      -1.24200435      -0.79442839        1       0.01430865       0.03103903       0.02281093 
H      -1.37160267      -1.75747877       0.20788724        1      -0.00181571       0.00091300       0.00972340 
H       0.28790871      -1.98807356       0.76075005        1      -0.02489095       0.02111724       0.03650355 
H      -1.63712425       2.04104282      -1.76116660        1      -0.00267354       0.00149520       0.01308671 
H      -0.00280278       2.11166523      -1.11593661        1       0.00403494       0.01435977      -0.00311201 
H      -0.60082891       0.62518660      -1.86158870        1      -0.00411582       0.00167430      -0.01231733 
O       2.69483112      -0.96638180       1.45390561        8      -0.02611346       0.02331502      -0.00747841 
H       1.80677348       2.44089297       1.65658035        1      -0.02929536       0.02522520       0.01814854 
H       0.46694527       2.01965665       2.48990666        1       0.02568640       0.01524469      -0.02056214 
H       2.15143346      -0.73738645       3.65879502        1      -0.00920249      -0.02548647      -0.01473494 
