22
Properties=species:S:1:pos:R:3:Z:I:1:forces:R:3 magmom=0 energy=-12017.8228701 dipole="0.1055721 -0.5471208 -0.1287199" pbc="F F F"
C      -0.42635328      -0.18323046       1.00233753        6       0.01300618       0.00352730      -0.00867197 
C       1.01307748       0.37684751       1.02874893        6       0.01500630       0.00110218      -0.02389640 
C      -1.39774504       0.72573366       0.22644563        6       0.00120163      -0.02774971      -0.02447927 
C      -0.50604404      -1.64067431       0.55214445        6       0.00159928       0.00609588       0.00954594 
C      -1.50295707       0.47596520      -1.27923499        6       0.03239822       0.01333570       0.00828368 
C       1.57334200       0.61533449      -0.36415525        6      -0.01163147      -0.00098149      -0.00568132 
N       1.86732852      -0.45577040       1.86340978        7      -0.02938643       0.00587754       0.01447459 
O       1.98178891      -0.52397759      -0.96193819        8       0.00614905       0.04373642      -0.02214363 
H      -0.71775559      -0.15688595       2.05504486        1       0.00191131       0.02787035      -0.00395791 
H       0.96759968       1.37036125       1.47566330        1      -0.02600147      -0.02160025       0.01411700 
H      -2.39087049       0.59201893       0.65899748        1      -0.01938453       0.01393163       0.01064015 
H      -1.12272918       1.76911719       0.40093872        1      -0.01175400      -0.00972196      -0.00051741 
H      -0.17902194      -1.76984483      -0.47807065        1       0.00978253      -0.00972628      -0.00028940 
H      -1.53597231      -1.99235530       0.62455942        1      -0.01078403       0.00724974      -0.00436188 
H       0.10125191      -2.28376023       1.18783400        1      -0.00648561       0.00482714       0.01908170 
H      -2.17046069       1.20953296      -1.73046113        1       0.00483213      -0.00465442       0.00093835 
H      -0.54215214       0.56328799      -1.78646010        1      -0.01202695      -0.00460048       0.01466588 
H      -1.90865299      -0.51292825      -1.49257421        1       0.00812983       0.01202865       0.01340676 
O       1.66082723       1.68557032      -0.89890156        8      -0.00569458      -0.04506851       0.00130489 
H       2.75317546      -0.00200659       2.04413897        1       0.00833901       0.00766677      -0.01099671 
H       2.06611360      -1.33646777       1.40756465        1       0.02383886      -0.03065521      -0.02096483 
H       2.31988619      -0.28820614      -1.83577046        1       0.00695483       0.00750891       0.01950161 
