22
Properties=species:S:1:pos:R:3:Z:I:1:forces:R:3 magmom=0 energy=-12017.7863334 dipole="-0.3147749 -0.5033306 0.0879204" pbc="F F F"
C      -0.50009626      -0.16615195       0.87333938        6       0.01361286      -0.02848417      -0.01755745 
C       0.98005077       0.28408809       0.94189605        6      -0.01510282       0.01104695      -0.02060760 
C      -1.39956529       0.94982481       0.32701988        6       0.03344543      -0.03527955      -0.00641490 
C      -0.63219371      -1.43092489       0.01695549        6       0.00529946       0.01193666       0.00314945 
C      -2.86308279       0.53545193       0.20319058        6       0.01425343       0.00502039       0.00016203 
C       1.78857908      -0.47639258       1.99794505        6      -0.03856100       0.00391116      -0.02593251 
N       1.14077112       1.71860078       1.11468596        7       0.03208855      -0.01593976       0.02695010 
O       1.40413296      -1.75209488       2.18099379        8       0.02070551       0.01516488      -0.00811558 
H      -0.82776473      -0.40170181       1.89263316        1      -0.03274295       0.01679599      -0.03011729 
H       1.44681814       0.02465582      -0.01639952        1      -0.01315022      -0.01129352       0.00256236 
H      -1.32127627       1.82907027       0.96564262        1      -0.03878741      -0.02643907       0.00464568 
H      -1.01488428       1.26237565      -0.64698996        1      -0.00305457       0.00348271      -0.01560243 
H      -0.47135195      -1.18344734      -1.03641394        1      -0.00678355       0.02386102       0.02967927 
H      -1.62863897      -1.86085934       0.10746161        1       0.02269040      -0.00700183       0.01189824 
H       0.08857335      -2.19447314       0.30020538        1      -0.02695961       0.02718993       0.01961628 
H      -3.48458576       1.39567418      -0.04294686        1      -0.00202402      -0.01033661      -0.00465982 
H      -3.00799747      -0.21113483      -0.57720541        1      -0.00957304       0.02324565       0.01060056 
H      -3.23535100       0.11301912       1.13917807        1       0.01595498       0.00789000       0.00612216 
O       2.69894810       0.00677590       2.61137074        8      -0.00195183      -0.03170160       0.03850124 
H       2.12762884       1.92518468       1.21690756        1      -0.00101430       0.01783595      -0.00242753 
H       0.71100424       2.01270416       1.98610227        1       0.00372357      -0.01393322      -0.01951293 
H       1.98405975      -2.13457857       2.85222635        1       0.02793108       0.01302814      -0.00293929 
