22
Properties=species:S:1:pos:R:3:Z:I:1:forces:R:3 magmom=0 energy=-12017.9743504 dipole="0.4916787 -0.308772 -0.0250422" pbc="F F F"
C       0.11224090      -1.57250159      -1.56716000        6       0.00685194      -0.00091665      -0.00583934 
C       0.19174647      -0.22862735       0.65451691        6      -0.00592439       0.03674091       0.00602471 
C      -0.39754142      -0.38362137      -0.75109790        6       0.00153001      -0.00686644      -0.00294324 
C       1.62898459      -1.53535632      -1.74285641        6       0.00108099      -0.00025660      -0.01126102 
C      -0.58376474      -1.58960315      -2.92708675        6       0.02361749       0.01964498      -0.01050255 
C      -0.03173746      -1.52400294       1.41873587        6       0.01605983       0.02765772      -0.03464721 
N      -0.43771284       0.90662645       1.30883587        7      -0.00498773       0.00539855       0.00151135 
O       1.07751963      -2.27856102       1.51181133        8      -0.00483182       0.01009518      -0.03496063 
H      -0.15116850      -2.49753393      -1.04240216        1      -0.00265621       0.01286955       0.01509572 
H       1.26333225      -0.04211986       0.59322488        1       0.00097023      -0.02307185      -0.00620145 
H      -1.48318928      -0.46154641      -0.64105823        1      -0.00682731       0.01133887      -0.00722588 
H      -0.19357218       0.54732321      -1.28644166        1      -0.00007281      -0.01207709       0.01157027 
H       1.92636207      -0.62140364      -2.26255884        1       0.00116420       0.02015647       0.01450879 
H       1.96908566      -2.38082344      -2.34036840        1      -0.00377006      -0.01310440      -0.02773670 
H       2.15416297      -1.57562628      -0.78917884        1      -0.01310754      -0.00750387      -0.00982017 
H      -0.25818996      -2.43962815      -3.52811815        1      -0.02970653      -0.00545501       0.03353511 
H      -1.66898536      -1.63299743      -2.82343239        1       0.02942453      -0.03441592       0.01179936 
H      -0.34083165      -0.68189207      -3.48353999        1       0.00989206       0.01884675      -0.00049473 
O      -1.08530792      -1.85831915       1.88336449        8      -0.01353953      -0.03388293       0.03363615 
H      -0.01377220       1.08155245       2.21133085        1      -0.01299323       0.01717533       0.00763705 
H      -1.41693451       0.70017780       1.47676884        1       0.01812144      -0.00288077      -0.00804940 
H       0.84119064      -3.08974447       1.97985002        1      -0.01029547      -0.03949282       0.02436378 
