22
Properties=species:S:1:pos:R:3:Z:I:1:forces:R:3 magmom=0 energy=-12017.9743504 dipole="-0.5295755 -0.0008234 0.2393006" pbc="F F F"
C      -1.34282294       0.18222403      -1.68018872        6      -0.00667885      -0.00601407       0.00107194 
C       0.30765082       0.95301649       0.17183229        6       0.03235708      -0.01569021       0.01132931 
C       0.09576959       0.23209839      -1.16324077        6      -0.00687652       0.00147057      -0.00292473 
C      -2.28514500      -0.48595364      -0.68102491        6      -0.00447717      -0.00835315      -0.00619384 
C      -1.37499780      -0.55200626      -3.01958704        6      -0.00324802      -0.02746854       0.01699376 
C      -0.25785013       2.35982462       0.05749396        6      -0.00063136      -0.04713496      -0.00061820 
N       1.72692734       0.95918208       0.48610903        7       0.00742843      -0.00045056      -0.00091912 
O      -1.44670967       2.50085276       0.67002687        8      -0.00099065      -0.02965387      -0.02159542 
H      -1.69093257       1.20719499      -1.84958307        1       0.01586859       0.00408348       0.01149314 
H      -0.22074506       0.43007624       0.96817978        1      -0.01944207       0.00905080      -0.01058338 
H       0.72768296       0.72984491      -1.90468987        1       0.01005805      -0.00970031      -0.00566013 
H       0.48055755      -0.78373744      -1.04129627        1      -0.00505083       0.01564666       0.00310353 
H      -1.96394263      -1.51223739      -0.48762253        1       0.01870539      -0.00201811       0.01625421 
H      -3.30023429      -0.52615711      -1.07533683        1      -0.01624341      -0.01087813      -0.02393152 
H      -2.32308808       0.04764734       0.26806164        1      -0.00076058       0.00189403      -0.01789899 
H      -2.38580966      -0.58704371      -3.42801330        1       0.02470753       0.03767263      -0.00270079 
H      -0.72017071      -0.07976421      -3.75342640        1      -0.03905053       0.01913312       0.01728270 
H      -1.03744289      -1.58246852      -2.88997196        1       0.00765957      -0.01506661       0.01295312 
O       0.28177830       3.25682603      -0.52718355        8      -0.00576760       0.04927792      -0.00019175 
H       1.89063498       1.36116413       1.40067571        1       0.02282934      -0.00035466       0.00086821 
H       2.21955631       1.53955553      -0.18484584        1      -0.01559904      -0.01027999       0.00721261 
H      -1.74622602       3.40718511       0.52243789        1      -0.01479747       0.04483408      -0.00534471 
