22
Properties=species:S:1:pos:R:3:Z:I:1:forces:R:3 magmom=0 energy=-12017.8075283 dipole="-0.2469573 -0.4295723 -0.2304674" pbc="F F F"
C       0.38610508      -1.48076816       0.07824532        6       0.01523759      -0.00664790      -0.00205123 
C      -1.22924278      -0.25983513      -1.60159587        6      -0.00361065      -0.01894389       0.00684993 
C      -0.06130517      -0.17580752      -0.60936921        6       0.01218765      -0.00903959      -0.00426202 
C       1.38536061      -2.26484538      -0.77279559        6       0.00325502      -0.01039518      -0.00774565 
C      -0.76873411      -2.37342760       0.53230201        6      -0.00595899       0.01347407      -0.00252385 
C      -2.55687040      -0.35707393      -0.84991342        6      -0.00420072      -0.00778864       0.02320015 
N      -1.02506470      -1.23312986      -2.66098537        7      -0.03189042       0.02033049      -0.00517044 
O      -3.42635877      -1.21787910      -1.41174723        8      -0.01412631      -0.00335904      -0.00842592 
H       0.91753850      -1.16829083       0.98114065        1       0.01025819      -0.00782592       0.00108413 
H      -1.28701028       0.72682307      -2.07444983        1      -0.01798790      -0.04171481      -0.00980213 
H       0.79359517       0.23588037      -1.14849304        1      -0.01850140       0.01602312       0.00470723 
H      -0.35199436       0.55420499       0.14700325        1       0.00037255      -0.02912664      -0.00556695 
H       0.95292253      -2.56705272      -1.72496370        1       0.02837711      -0.00974983      -0.01884135 
H       1.71913508      -3.16358449      -0.25204023        1       0.00904576       0.02516714       0.01825597 
H       2.26066895      -1.65281206      -0.99393321        1       0.00125146      -0.03227069      -0.00796317 
H      -0.38531135      -3.22579818       1.09439013        1      -0.01350076       0.02201271      -0.00036520 
H      -1.47294609      -1.83633299       1.16817800        1       0.00910217       0.02057222       0.00795155 
H      -1.32562619      -2.77755708      -0.31671456        1      -0.03323105       0.00354216       0.01501931 
O      -2.83816211       0.29520100       0.11646141        8      -0.01615902      -0.01042017      -0.00414040 
H      -1.77728056      -1.17734965      -3.33678943        1       0.02724233       0.03737227      -0.00956548 
H      -1.05606332      -2.17610992      -2.29350951        1       0.02093053       0.03044721       0.00548468 
H      -4.24307039      -1.17234085      -0.89754553        1       0.02190683      -0.00165898       0.00387085 
