22
Properties=species:S:1:pos:R:3:Z:I:1:forces:R:3 magmom=0 energy=-12017.9743504 dipole="0.4355521 0.2367511 0.3032469" pbc="F F F"
C       1.57482801      -0.68100257      -0.88673151        6       0.00636276       0.00625750      -0.00150014 
C      -0.58249796      -0.33429098       0.51822483        6      -0.03342172       0.01398593      -0.01043102 
C       0.04730271      -0.61314540      -0.85021502        6       0.00735875      -0.00190118       0.00063136 
C       2.21542500       0.60873404      -0.37783509        6       0.00650026       0.00302161      -0.00875466 
C       2.03498628      -0.98077335      -2.31239241        6      -0.00049540       0.03205060      -0.00515455 
C      -0.07991822      -1.37713421       1.50405712        6       0.00315803       0.03516745      -0.03125361 
N      -2.02999412      -0.36022514       0.38693891        7      -0.00680458      -0.00142465      -0.00282652 
O       0.86860058      -0.90492465       2.33218899        8       0.00876577       0.00866086      -0.03457779 
H       1.90520964      -1.50590400      -0.24577455        1      -0.01872504       0.00179468       0.00683631 
H      -0.28499670       0.65152843       0.87388063        1       0.02120523      -0.01053083       0.00333919 
H      -0.36385135      -1.56110260      -1.20957815        1      -0.00745903       0.00209242      -0.01293661 
H      -0.30465538       0.16877081      -1.52814329        1       0.00312353      -0.00898832       0.01375489 
H       1.90376548       1.45420390      -0.99580161        1      -0.02251932       0.00899110       0.00549131 
H       3.30217601       0.54571427      -0.42788210        1       0.02307617      -0.00458567      -0.02004340 
H       1.94668408       0.82063947       0.65648077        1       0.00587579      -0.01276121      -0.01127619 
H       3.12152906      -1.05738139      -2.37015304        1      -0.02469663      -0.03393903       0.01658660 
H       1.60100983      -1.90826613      -2.68889307        1       0.03125588       0.00278574       0.03471134 
H       1.72661386      -0.17554389      -2.98254778        1      -0.01034741       0.01841913      -0.00262756 
O      -0.46900454      -2.51064902       1.54165757        8       0.00307602      -0.03630424       0.03369560 
H      -2.47452322      -0.10299917       1.25932112        1      -0.02203415      -0.00275761      -0.00538636 
H      -2.33298011      -1.30339967       0.16712275        1       0.01330412       0.01480842       0.00231682 
H       1.15217209      -1.63423871       2.89842072        1       0.01344096      -0.03484272       0.02940504 
