22
Properties=species:S:1:pos:R:3:Z:I:1:forces:R:3 magmom=0 energy=-12017.9743504 dipole="0.2221566 0.5309622 0.0802571" pbc="F F F"
C       1.29809002       0.16953329       0.21854119        6       0.00679039       0.00484375      -0.00351357 
C      -1.22303456       0.49277696      -0.31775274        6      -0.02053931      -0.01428361      -0.02820603 
C       0.01666489      -0.40459790      -0.38775423        6       0.00555528       0.00252652       0.00455841 
C       1.69343285       1.49365915      -0.43196264        6       0.01051705      -0.00217217      -0.00358268 
C       2.42581749      -0.85196717       0.08111963        6       0.00590500       0.01288493      -0.02920635 
C      -1.45770394       0.88194746       1.13326423        6       0.02352344      -0.00326294      -0.04072566 
N      -2.35663266      -0.22166287      -0.88138804        7      -0.00426155      -0.00567412      -0.00242625 
O      -1.07021379       2.13952367       1.41043907        8       0.02710082      -0.01737300      -0.01762466 
H       1.13246516       0.34659194       1.28702554        1      -0.01909034      -0.00179967      -0.00573474 
H      -1.06227439       1.40009595      -0.89892948        1       0.01464284       0.00575953       0.01800862 
H      -0.23234395      -1.34208051       0.11814467        1       0.00109611      -0.01157752      -0.00959623 
H       0.17984927      -0.64069417      -1.44249779        1      -0.00589791       0.00674323       0.01413012 
H       1.86430866       1.35227397      -1.50184366        1      -0.02072381      -0.00058261      -0.01372398 
H       2.61662385       1.87653084       0.00235524        1       0.02960384      -0.00763402       0.00450514 
H       0.92873914       2.25896195      -0.30354879        1       0.00964210      -0.01262890       0.00849030 
H       3.35156029      -0.48205960       0.52378078        1      -0.03327974      -0.01592356       0.02599684 
H       2.16944277      -1.80085666       0.55462985        1       0.00732086       0.04019622       0.02281042 
H       2.62351379      -1.05183702      -0.97413586        1      -0.00514668       0.00345464      -0.02037137 
O      -1.92536381       0.14961211       1.95948290        8      -0.01980182       0.00707958       0.04493996 
H      -3.17400148       0.37438399      -0.91957531        1      -0.01566630      -0.01462582      -0.00792039 
H      -2.59143977      -1.00822728      -0.28483192        1       0.01140289       0.01506060      -0.00665119 
H      -1.22348213       2.29217443       2.35178773        1      -0.00869316       0.00898894       0.04584334 
