22
Properties=species:S:1:pos:R:3:Z:I:1:forces:R:3 magmom=0 energy=-12017.9743504 dipole="-0.1889168 -0.1352841 -0.5326579" pbc="F F F"
C      -0.35228180      -1.66049475      -1.23518147        6      -0.00804581      -0.00106007      -0.00400670 
C       1.20849559       0.39889977      -1.50170425        6      -0.00003492       0.03270413       0.01876042 
C       0.32710920      -0.45465576      -0.58429628        6      -0.00174203      -0.00669068      -0.00320971 
C      -1.23421590      -1.25128365      -2.41310301        6      -0.01004705      -0.00427965       0.00297358 
C      -1.17382224      -2.40714491      -0.18556149        6      -0.02449542       0.02001578      -0.00730193 
C       2.24763525      -0.50205757      -2.15011645        6      -0.04317957       0.01543824       0.01097152 
N       1.81902425       1.46003219      -0.71786341        7       0.00249104       0.00383902       0.00594516 
O       1.96135980      -0.79987841      -3.42989042        8      -0.02964189      -0.00616386       0.02074757 
H       0.42149493      -2.34246087      -1.60481920        1       0.01131584       0.01632368       0.00246085 
H       0.60402133       0.85242006      -2.28641327        1      -0.00071991      -0.02228396      -0.00864528 
H       0.95616622      -0.79851394       0.24205804        1      -0.00536054       0.00510338       0.01313551 
H      -0.42858079       0.21093380      -0.15911689        1       0.01251402      -0.00608601      -0.00928281 
H      -2.01749900      -0.56707373      -2.07820292        1       0.00741172       0.02358062       0.00267343 
H      -1.72127008      -2.12205180      -2.85133270        1      -0.01895690      -0.02331317       0.00722727 
H      -0.66443164      -0.76246559      -3.20262038        1      -0.00046835      -0.01420931       0.01106228 
H      -1.65594279      -3.28752249      -0.61249877        1       0.04392082      -0.00046964       0.01037867 
H      -0.55791929      -2.72318204       0.65771508        1       0.00348210      -0.01686227      -0.04351150 
H      -1.96103287      -1.75861611       0.20470250        1      -0.00924466       0.01917858       0.00017843 
O       3.21900764      -0.92298084      -1.58716244        8       0.04246630      -0.02052795      -0.01541443 
H       2.34675553       2.08733052      -1.31184863        1       0.00896827       0.01415840       0.01553142 
H       2.47450841       1.05754962      -0.05601309        1      -0.01487754      -0.00032319      -0.01341519 
H       2.64914831      -1.39642617      -3.75239345        1       0.03424442      -0.02807203      -0.01725863 
