22
Properties=species:S:1:pos:R:3:Z:I:1:forces:R:3 magmom=0 energy=-12017.897149 dipole="0.0820629 0.5056073 0.0878047" pbc="F F F"
C       1.19445271       0.29272964       0.15799324        6       0.00785683      -0.03150810       0.02258586 
C       0.29558605      -0.18717380      -2.23039351        6      -0.00610359       0.00409762       0.00268485 
C      -0.02185690       0.15822076      -0.76522925        6      -0.02712288       0.00123670       0.01950645 
C       2.08287570       1.46105460      -0.26818673        6       0.00796101      -0.00769125       0.01223737 
C       1.99509401      -0.99955604       0.29384453        6       0.02333317      -0.03888084       0.01157979 
C      -0.81213686       0.37623168      -3.10546241        6      -0.01331893      -0.00111241      -0.03772282 
N       0.47811367      -1.61401772      -2.40452694        7      -0.02741336       0.01107189      -0.00800950 
O      -0.75479613       1.71924137      -3.18866321        8       0.00294756      -0.01585569      -0.01246486 
H       0.78831697       0.53493003       1.14475095        1      -0.01318524       0.01029439      -0.00548180 
H       1.21368106       0.32526042      -2.52377747        1       0.01447495       0.01884007      -0.01500172 
H      -0.56772542       1.10233412      -0.73413383        1      -0.00630460       0.01313695      -0.00907805 
H      -0.69984558      -0.61145532      -0.38583801        1       0.00792486      -0.02075585       0.00467221 
H       2.65963111       1.21883089      -1.16188713        1       0.00483676      -0.01023818      -0.01142079 
H       2.79661157       1.71311633       0.51543067        1       0.01715816      -0.02317845       0.01606199 
H       1.48792584       2.34979496      -0.48389543        1       0.01408682       0.02325789       0.00911590 
H       2.80145036      -0.87815194       1.01904341        1      -0.01124611       0.03328520      -0.00667366 
H       1.36025734      -1.82237082       0.62641916        1       0.00161213       0.01879559      -0.00547727 
H       2.42914387      -1.30049112      -0.65907385        1       0.00910788       0.03554396       0.00424916 
O      -1.65711864      -0.27167758      -3.65635892        8       0.00851724       0.01348122      -0.00064000 
H       0.69715129      -1.82652763      -3.37078337        1      -0.00639464      -0.00624475       0.01613378 
H      -0.39623712      -2.08685218      -2.20428273        1       0.00024436      -0.02109385      -0.01215762 
H      -1.49217557       2.01169577      -3.73942364        1      -0.00897228      -0.00648216       0.00530079 
