22
Properties=species:S:1:pos:R:3:Z:I:1:forces:R:3 magmom=0 energy=-12017.9743504 dipole="-0.1578961 0.4928046 0.2644381" pbc="F F F"
C      -1.43070593       0.61842052      -1.08614252        6      -0.00474795       0.00222879       0.00737300 
C       1.15818493       0.68198818      -1.29052162        6       0.02544842      -0.02615532       0.00945734 
C      -0.12518559      -0.15459525      -1.27936564        6      -0.00621055       0.00437787      -0.00071343 
C      -1.43257192       1.41870131       0.21474473        6      -0.00925304      -0.00393780       0.00518010 
C      -2.60642299      -0.35672044      -1.11625308        6       0.00452463      -0.00388694       0.03191464 
C       1.02425488       1.75986949      -2.35457437        6      -0.01121783      -0.02405658       0.03897926 
N       2.29145534      -0.19353177      -1.54015423        7       0.00392320      -0.00602394      -0.00216045 
O       0.75707128       2.97451306      -1.84298274        8      -0.02316621      -0.02454463       0.01444970 
H      -1.55171707       1.31769191      -1.92089755        1       0.01947385      -0.00402804      -0.00226360 
H       1.29978450       1.16405107      -0.32387655        1      -0.01817215       0.01377253      -0.00718721 
H      -0.16602977      -0.69885982      -2.22747951        1       0.00003692      -0.01487414       0.00248579 
H      -0.01415955      -0.89765265      -0.48539279        1       0.00254164       0.01311612      -0.01005636 
H      -1.31106782       0.74931188       1.06972305        1       0.02346091      -0.00700394       0.00431678 
H      -2.37679288       1.94787409       0.34094555        1      -0.03044567      -0.00495832       0.00198458 
H      -0.63500087       2.16037007       0.24199715        1      -0.01334907      -0.00677594      -0.01002088 
H      -3.55727663       0.16547277      -1.00235912        1       0.02191382       0.00026631      -0.03945281 
H      -2.63271301      -0.92709593      -2.04593672        1      -0.00769675       0.04602794       0.00340296 
H      -2.52282345      -1.06964361      -0.29324154        1       0.01115247      -0.00725617       0.01661761 
O       1.12902458       1.56003314      -3.53217630        8       0.00703305       0.02938792      -0.03937485 
H       3.16217907       0.31895926      -1.47678954        1       0.01502275      -0.01626033      -0.00566764 
H       2.23288738      -0.56212038      -2.48376972        1      -0.00678113       0.00933326       0.01639176 
H       0.65695417       3.58787316      -2.58237153        1      -0.00349115       0.03125135      -0.03565637 
