22
Properties=species:S:1:pos:R:3:Z:I:1:forces:R:3 magmom=0 energy=-12017.9743504 dipole="-0.4016765 0.0392085 -0.4181319" pbc="F F F"
C       0.40962420      -0.20256311      -2.40448216        6      -0.00496316      -0.00580185      -0.00486011 
C      -0.45313751       1.22106803      -0.41021963        6      -0.00297060      -0.00912006       0.03646323 
C       0.46969229       0.10373699      -0.90720355        6       0.00058354       0.00001219      -0.00759694 
C      -0.99994050      -0.58331719      -2.85271670        6       0.00167867      -0.01015797      -0.00470481 
C       1.39627077      -1.32184246      -2.73290171        6      -0.02384570      -0.02086872       0.00705758 
C      -0.16716363       2.47905603      -1.21499213        6      -0.01252724      -0.04486293       0.00729067 
N      -0.23050326       1.42083772       1.01234137        7       0.00333220      -0.00021685       0.00671737 
O      -1.09731137       2.72607058      -2.15429046        8       0.01087680      -0.03494983      -0.00268202 
H       0.71760842       0.69112789      -2.95846980        1      -0.00355352       0.00854876       0.01774437 
H      -1.49518937       0.94158499      -0.56139898        1       0.00505859       0.00393291      -0.02303976 
H       1.49237947       0.38358906      -0.63774775        1       0.00597879      -0.01029367       0.00925340 
H       0.21962768      -0.79380381      -0.33558945        1      -0.00029563       0.01545053      -0.00640801 
H      -1.33928162      -1.47248561      -2.31600372        1      -0.00847487       0.00446056       0.02294422 
H      -1.01725775      -0.81350051      -3.91771438        1       0.01269626      -0.01892594      -0.02087181 
H      -1.71692337       0.21835398      -2.67895296        1       0.01626115      -0.00389702      -0.00670271 
H       1.39450354      -1.55129647      -3.79926374        1       0.02143380       0.03646544       0.01574168 
H       2.41329934      -1.06220530      -2.43529011        1      -0.02405817       0.02094776      -0.03423548 
H       1.11864361      -2.23397195      -2.20041795        1      -0.01298855      -0.00966827       0.01382770 
O       0.79152454       3.18011008      -1.05037666        8       0.01157716       0.04620900      -0.01388226 
H      -0.88116347       2.10051247       1.38584573        1       0.00720387       0.00146429       0.02163393 
H       0.70237700       1.79181106       1.16002544        1      -0.01478184      -0.00850470      -0.01050959 
H      -0.82400608       3.51756590      -2.63571544        1       0.01177848       0.03977641      -0.02318066 
