22
Properties=species:S:1:pos:R:3:Z:I:1:forces:R:3 magmom=0 energy=-12017.9743504 dipole="-0.082471 -0.0903718 0.5681084" pbc="F F F"
C      -1.15153338      -1.12197537      -0.22697074        6       0.00273776      -0.00608549       0.00611460 
C      -0.23242215       1.29568286      -0.46848575        6       0.03008715       0.01242866      -0.01902133 
C      -0.39588614      -0.10027626      -1.07808735        6      -0.00518226      -0.00412225       0.00377299 
C      -0.49378525      -1.32678291       1.13618073        6       0.00186765      -0.01116347       0.00006839 
C      -1.23881980      -2.44644495      -0.98346175        6       0.02868837      -0.00754722       0.01318961 
C      -1.60910393       1.83009820      -0.10637909        6       0.03657292      -0.02974088       0.00097404 
N       0.45151021       2.15187660      -1.42364151        7       0.00270583       0.00254344      -0.00651800 
O      -1.86999723       1.76348292       1.21118284        8       0.01244769      -0.03255454      -0.01150039 
H      -2.17242687      -0.75838257      -0.06567287        1       0.00837773       0.01715348      -0.00601258 
H       0.36825883       1.24053678       0.43869632        1      -0.01962096      -0.01011580       0.00919411 
H      -0.91090086       0.02197592      -2.03549370        1       0.00867022      -0.00498506      -0.01128246 
H       0.60851496      -0.47177390      -1.29722737        1      -0.01270727       0.00931105       0.00562825 
H       0.52969715      -1.68816759       1.01080688        1       0.01657395       0.01774046      -0.00535869 
H      -1.03744352      -2.06970426       1.71928263        1      -0.00923648      -0.02947595      -0.00095110 
H      -0.46534944      -0.40793073       1.72084900        1      -0.01050717      -0.01063542      -0.01004977 
H      -1.79181433      -3.19325230      -0.41227340        1      -0.02165229       0.03282893      -0.02214522 
H      -1.72139882      -2.32452769      -1.95432988        1      -0.02136921       0.00493431       0.04133650 
H      -0.23698491      -2.84372301      -1.15979409        1       0.02106582       0.00251973       0.00179818 
O      -2.39681067       2.25641056      -0.90352014        8      -0.04107065       0.02760635       0.00364958 
H       0.64281895       3.06004654      -1.01935165        1       0.00931598       0.01081293      -0.01784341 
H      -0.14673169       2.30625556      -2.22860811        1       0.00572914      -0.00887874       0.01701988 
H      -2.76852007       2.09020580       1.34843969        1      -0.04349386       0.01742545       0.00793684 
