22
Properties=species:S:1:pos:R:3:Z:I:1:forces:R:3 magmom=0 energy=-12017.9743504 dipole="0.0667378 0.4369274 -0.3773009" pbc="F F F"
C       1.20303791       1.03616374      -0.62277231        6       0.00502687       0.00156920      -0.00735942 
C      -1.32461689       0.43689640      -0.62020569        6      -0.01668065      -0.03360982      -0.00368187 
C       0.11398441       0.00713824      -0.31562316        6       0.00478210       0.00594100      -0.00008397 
C       1.18735422       1.46287124      -2.08920857        6       0.01056436      -0.00239565      -0.00326885 
C       2.56674435       0.45815623      -0.24816686        6       0.00101754      -0.01266078      -0.02987838 
C      -1.60795103       1.73649096       0.11650959        6       0.02205091      -0.02884058      -0.03009178 
N      -2.23097569      -0.62654732      -0.21926325        7      -0.00258010      -0.00614823       0.00344476 
O      -1.57982891       2.81432214      -0.68720758        8       0.03025392      -0.02002118      -0.00559637 
H       1.03204825       1.92394545      -0.00386489        1      -0.01800518      -0.00852182       0.00194175 
H      -1.44576026       0.61010276      -1.68892539        1       0.01305786       0.01954373       0.00438713 
H       0.15631472      -0.25603168       0.74539621        1       0.00396541      -0.01445305       0.00165960 
H       0.29970099      -0.90866522      -0.88278058        1      -0.00705233       0.01396783       0.00590696 
H       1.35330960       0.59780376      -2.73569958        1      -0.02019309      -0.01398870      -0.00383069 
H       1.98050471       2.18260562      -2.29020285        1       0.03070052       0.00323095       0.00152014 
H       0.24348110       1.92787229      -2.37171955        1       0.01309309      -0.00020034       0.01237153 
H       3.36627802       1.17622394      -0.43499561        1      -0.02653101       0.00390263       0.03630141 
H       2.60407452       0.16220579       0.80128585        1      -0.00346801       0.04409062      -0.01528326 
H       2.77536675      -0.42921436      -0.84953726        1      -0.00662460      -0.01386791      -0.01473227 
O      -1.82168379       1.81000510       1.29403741        8      -0.01940278       0.03504378       0.02929721 
H      -3.18368488      -0.40358000      -0.47898003        1      -0.01119345      -0.01784911       0.00884598 
H      -2.21423003      -0.72255247       0.79078646        1       0.00647054       0.00652654      -0.01780983 
H      -1.73658468       3.59314253      -0.13784741        1      -0.00925191       0.03874097       0.02594038 
