22
Properties=species:S:1:pos:R:3:Z:I:1:forces:R:3 magmom=0 energy=-12017.9743504 dipole="0.128372 0.0634292 0.5632168" pbc="F F F"
C       1.41140151      -0.72037645      -0.13477525        6       0.00480596       0.00582262       0.00499159 
C      -1.18005348      -0.78569647      -0.30288390        6      -0.02307030       0.01953859      -0.02252909 
C       0.16293739      -0.55256112      -1.00221206        6       0.00582859      -0.00256637       0.00418632 
C       1.39423068       0.21071138       1.07582017        6       0.00969738       0.00569875      -0.00126555 
C       2.65632064      -0.47057503      -0.98441805        6      -0.00318261       0.03142552       0.00750063 
C      -1.16282033      -2.16814985       0.32996630        6       0.01425800       0.04425450      -0.00783446 
N      -2.25087306      -0.64411090      -1.27574193        7      -0.00351825       0.00034540      -0.00661658 
O      -0.97250068      -2.13570574       1.66082999        8       0.02541983       0.02083005      -0.01633869 
H       1.45194099      -1.75404166       0.22624145        1      -0.01917405       0.00042881      -0.00572173 
H      -1.32674463      -0.04581427       0.48317849        1       0.01683522      -0.01262885       0.01135538 
H       0.21454478      -1.24737105      -1.84565059        1       0.00117402       0.00759252      -0.01297240 
H       0.13436843       0.45795799      -1.41801168        1      -0.00385573      -0.01389028       0.00848685 
H       1.35157748       1.25270827       0.74984947        1      -0.02271200       0.00784392      -0.00638528 
H       2.29902603       0.08727750       1.67047447        1       0.03077590       0.00186708      -0.00210224 
H       0.54383623       0.01925564       1.72935584        1       0.01349654      -0.00771660      -0.00909929 
H       3.56786078      -0.60340853      -0.40026895        1      -0.02313016      -0.03567339      -0.01514519 
H       2.69600261      -1.13810541      -1.84648522        1       0.00427729      -0.01355203       0.04458437 
H       2.65372695       0.55482065      -1.36012152        1      -0.01002972       0.01872154      -0.00149720 
O      -1.28991577      -3.19076737      -0.28302481        8      -0.01050841      -0.04674220       0.01292478 
H      -3.15557285      -0.71656602      -0.82731081        1      -0.01391666       0.00132324      -0.01807429 
H      -2.19482204      -1.39790783      -1.95275447        1       0.00657534       0.01160488       0.01494855 
H      -0.94317880      -3.04874473       1.97456652        1      -0.00004607      -0.04452770       0.01660347 
