22
Properties=species:S:1:pos:R:3:Z:I:1:forces:R:3 magmom=0 energy=-12017.9743504 dipole="0.1111051 -0.5690426 0.0395158" pbc="F F F"
C       0.13063276      -1.08491813      -2.13091017        6       0.00734847      -0.00526552      -0.00038921 
C      -1.14028743      -0.42429070       0.03623086        6       0.00664959       0.02828358       0.02402074 
C      -0.29850910       0.01991463      -1.16423862        6       0.00042583      -0.00547121      -0.00530815 
C       0.93404757      -2.17736393      -1.42816741        6       0.00958605      -0.00010737      -0.00600137 
C       0.94252067      -0.47334831      -3.27149669        6       0.02620001      -0.00378816       0.01879847 
C      -2.35903462      -1.17411787      -0.47795607        6       0.04585563       0.00900174       0.00636353 
N      -1.50837160       0.74661229       0.81511064        7      -0.00129131       0.00718191       0.00176553 
O      -2.25320451      -2.50774316      -0.34115116        8       0.03048290       0.01296499      -0.01583249 
H      -0.76665063      -1.54138555      -2.56329912        1      -0.00855941       0.00934817       0.01549007 
H      -0.56263354      -1.09478271       0.67152152        1      -0.00336228      -0.01552607      -0.01786531 
H      -0.88040250       0.76906512      -1.70920254        1       0.00736909       0.01315366      -0.00031455 
H       0.58443635       0.52541122      -0.76457079        1      -0.01414652      -0.00882773      -0.00123542 
H       1.83738225      -1.75393927      -0.98259880        1      -0.00365338       0.01136978       0.02180491 
H       1.24376308      -2.94502922      -2.13687749        1       0.01609824      -0.00374687      -0.02612102 
H       0.36040322      -2.66849638      -0.64289303        1      -0.00041014       0.00555014      -0.01713239 
H       1.24719198      -1.23293553      -3.99259515        1      -0.04221361       0.01596234       0.00028678 
H       0.37930026       0.29884083      -3.79765046        1      -0.01036905      -0.04562680      -0.00033666 
H       1.85041907      -0.01066295      -2.87876367        1       0.01184461       0.00514334       0.01692208 
O      -3.31632757      -0.64582642      -0.97004937        8      -0.04634655      -0.01491939      -0.00965382 
H      -2.00050403       0.47737222       1.65780714        1      -0.00519260       0.02047606       0.00871733 
H      -2.14179036       1.32688908       0.27496469        1       0.01320478      -0.01480565       0.00288524 
H      -3.04877126      -2.90465367      -0.71859695        1      -0.03952038      -0.02035105      -0.01686433 
