22
Properties=species:S:1:pos:R:3:Z:I:1:forces:R:3 magmom=0 energy=-12017.9743504 dipole="-0.48388 -0.1217158 0.297928" pbc="F F F"
C      -0.80405928      -1.52704034      -1.00127006        6      -0.00204079      -0.00443248       0.00762219 
C      -0.72919949       1.05534774      -1.27299468        6       0.02813209       0.02406018       0.00715286 
C       0.03028108      -0.27514515      -1.27678048        6      -0.00475916      -0.00594866      -0.00027670 
C      -1.52115647      -1.44971850       0.34504104        6       0.00370126      -0.00935259       0.00518797 
C       0.09719942      -2.75938821      -1.05756127        6       0.00610925       0.00504744       0.03148316 
C      -1.87675140       0.96060179      -2.26603119        6       0.02571962      -0.01169235       0.03774961 
N       0.19375271       2.12786083      -1.60620422        7       0.00609593       0.00350148      -0.00262093 
O      -3.07095357       0.77896814      -1.67496210        8       0.02399179      -0.02424036       0.01356442 
H      -1.55944506      -1.62603441      -1.78869162        1       0.00500707       0.01913842      -0.00303719 
H      -1.14152749       1.24875409      -0.28333939        1      -0.01522731      -0.01748674      -0.00584330 
H       0.51160186      -0.37128140      -2.25448223        1       0.01497282      -0.00079267       0.00158935 
H       0.82619294      -0.18971705      -0.53241453        1      -0.01354601       0.00308008      -0.00931773 
H      -0.79426563      -1.34795808       1.15442857        1       0.00860934       0.02309879       0.00323234 
H      -2.09562773      -2.35727132       0.52898351        1       0.00329235      -0.03062565       0.00252184 
H      -2.21199453      -0.60876980       0.39487013        1       0.00535617      -0.01396793      -0.01003604 
H      -0.47146481      -3.67427348      -0.88613712        1      -0.00142743       0.02093619      -0.03995711 
H       0.60652507      -2.84211941      -2.01884903        1      -0.04610225      -0.00484380       0.00638446 
H       0.86328160      -2.69882822      -0.28164457        1       0.00890903       0.01109632       0.01583697 
O      -1.74431394       1.02486620      -3.45598425        8      -0.03130632       0.00782803      -0.03769819 
H      -0.26224165       3.02896446      -1.53618016        1       0.01672508       0.01388144      -0.00704935 
H       0.49927698       2.02465785      -2.56833812        1      -0.00867717      -0.00581470       0.01709763 
H      -3.73362754       0.69797735      -2.37298367        1      -0.03353531      -0.00247042      -0.03358622 
