22
Properties=species:S:1:pos:R:3:Z:I:1:forces:R:3 magmom=0 energy=-12017.9743504 dipole="-0.3893524 0.427986 -0.0542972" pbc="F F F"
C      -1.44678003      -0.34155171      -1.51594460        6      -0.00712607       0.00298793       0.00470944 
C       0.89778509       0.77527677      -1.57819723        6       0.02916834      -0.00414539       0.02352374 
C       0.04383919      -0.43479306      -1.18635077        6      -0.00686752       0.00021916      -0.00331492 
C      -2.10130199       0.87224966      -0.85940232        6      -0.00835315      -0.00476014       0.00596419 
C      -2.14431005      -1.62818011      -1.07758812        6      -0.00372949       0.01387445       0.02911492 
C       0.70439024       1.04416401      -3.06220254        6      -0.01270593      -0.00531416       0.04510003 
N       2.28691836       0.50021637      -1.24986181        7       0.00622850      -0.00383850       0.00167420 
O      -0.10640355       2.08879856      -3.30679245        8      -0.01617507      -0.02244090       0.02413279 
H      -1.56136181      -0.24948108      -2.60168592        1       0.01942453       0.00462495       0.00136752 
H       0.57844265       1.65549483      -1.02135395        1      -0.01898240      -0.00098746      -0.01450406 
H       0.46955136      -1.30862836      -1.68834012        1       0.00454077      -0.01018224       0.01015349 
H       0.17654596      -0.58370229      -0.11160939        1       0.00053957       0.00648828      -0.01540435 
H      -2.00255033       0.81259723       0.22711652        1       0.02214347       0.00719760       0.00871619 
H      -3.16502462       0.91056373      -1.09291911        1      -0.02597231      -0.01654320       0.00266449 
H      -1.65820235       1.80942370      -1.19451776        1      -0.00665926      -0.01582046      -0.00546596 
H      -3.20797787      -1.60388572      -1.31800618        1       0.03072957      -0.00825977      -0.03200545 
H      -1.70172751      -2.50685682      -1.54915897        1      -0.02398911       0.03326072      -0.02253377 
H      -2.05493845      -1.75293067       0.00363634        1       0.00773933       0.00718335       0.01848520 
O       1.20469756       0.39218870      -3.93528813        8       0.00721544       0.00732440      -0.04855333 
H       2.86534436       1.31206067      -1.42636721        1       0.02072160      -0.00829299       0.00489913 
H       2.63388997      -0.24538295      -1.84432814        1      -0.01400814       0.01168304       0.00830405 
H      -0.19947811       2.16892852      -4.26483544        1      -0.00388278       0.00574127      -0.04702749 
