22
Properties=species:S:1:pos:R:3:Z:I:1:forces:R:3 magmom=0 energy=-12017.973262 dipole="0.3929206 -0.3897887 0.1712557" pbc="F F F"
C       1.28779440      -0.81817018      -1.45016863        6      -0.00576236       0.00354139       0.01086584 
C      -0.94161077      -1.13096680      -0.15360883        6      -0.00370820      -0.02803017      -0.01093634 
C      -0.02329197      -0.20191394      -0.95939135        6      -0.01569273      -0.01230839       0.01030771 
C       2.16496826      -1.28024348      -0.28953055        6       0.02156256      -0.00455990       0.01247335 
C       2.03953263       0.19454869      -2.31041408        6      -0.01043251       0.00082568      -0.00257064 
C      -1.15317542      -2.40556924      -0.95881155        6      -0.01542904      -0.01261296       0.00504193 
N      -2.19083698      -0.44453644       0.12997115        7       0.02982608       0.00231698      -0.01710108 
O      -0.36958346      -3.41969530      -0.54858616        8       0.00420478       0.01352714       0.00339298 
H       1.05363942      -1.68511797      -2.07751932        1       0.00107081       0.01345865      -0.00203318 
H      -0.46660631      -1.39745051       0.79094796        1       0.00596789      -0.00586623      -0.02511305 
H      -0.59720505       0.15678104      -1.81924473        1      -0.00150055      -0.01039605       0.00928616 
H       0.19323542       0.66538772      -0.33064881        1      -0.03469714       0.00317408      -0.00496655 
H       2.38953779      -0.43444212       0.36469952        1      -0.00074094      -0.00869156       0.02355388 
H       3.11232068      -1.67942739      -0.65193675        1       0.01677650       0.01314276      -0.02499359 
H       1.68943814      -2.05895815       0.30448696        1      -0.02257881      -0.00252709      -0.00130216 
H       2.93344536      -0.25106450      -2.74818703        1       0.00692018       0.02184507       0.03197635 
H       1.41545916       0.56700830      -3.12329692        1       0.00401313      -0.00246404      -0.00170006 
H       2.34866471       1.04934460      -1.70315663        1      -0.00211484      -0.01639382      -0.03279057 
O      -1.91821117      -2.50957188      -1.87668402        8       0.00928029       0.00658208       0.01890280 
H      -2.79680257      -1.01852674       0.70419057        1       0.02020100       0.02664352      -0.01016064 
H      -2.68553577      -0.27385220      -0.73949860        1       0.00997588      -0.00839229       0.01766147 
H      -0.53333539      -4.17452130      -1.12962272        1      -0.01714201       0.00718505      -0.00979457 
