22
Properties=species:S:1:pos:R:3:Z:I:1:forces:R:3 magmom=0 energy=-12017.9743504 dipole="-0.4271697 0.3295517 0.215957" pbc="F F F"
C      -1.42034351       0.08347175      -1.57781043        6      -0.00736467      -0.00135425       0.00508107 
C       0.81138476       1.12764408      -0.75485295        6       0.02946268      -0.01651260       0.01675583 
C       0.07300792      -0.09818898      -1.30181643        6      -0.00686546       0.00185968      -0.00276419 
C      -2.18284981       0.51726738      -0.32754398        6      -0.00786824      -0.00807928       0.00088523 
C      -1.99585484      -1.21938171      -2.13051004        6      -0.00495009      -0.00897711       0.03080681 
C       0.59190580       2.29078343      -1.70926881        6      -0.01209761      -0.03451393       0.02977528 
N       2.22041390       0.80318837      -0.60478906        7       0.00655827      -0.00354457      -0.00088492 
O      -0.31194816       3.17859017      -1.25835948        8      -0.01400670      -0.03383737       0.00255475 
H      -1.54449080       0.85779148      -2.34296186        1       0.01891828       0.00393893       0.00521178 
H       0.41319294       1.40010779       0.22189919        1      -0.01883133       0.00745116      -0.01270907 
H       0.57661016      -0.39441493      -2.22672036        1       0.00547311      -0.01399338       0.00126323 
H       0.22041860      -0.90667354      -0.58106904        1      -0.00008181       0.01502753      -0.00733587 
H      -2.07744799      -0.23434190       0.45846333        1       0.02139919       0.00123526       0.01259460 
H      -3.24592193       0.62460916      -0.54169168        1      -0.02433626      -0.01599612      -0.01035676 
H      -1.82837511       1.47208080       0.05925545        1      -0.00518268      -0.00875276      -0.01486622 
H      -3.05759205      -1.11802623      -2.35903043        1       0.03131419       0.01698713      -0.02770883 
H      -1.47496392      -1.53803844      -3.03464595        1      -0.02698100       0.03808426       0.00334835 
H      -1.89380993      -2.01703903      -1.39164186        1       0.00707244      -0.00620366       0.01909445 
O       1.14882703       2.41013273      -2.76437641        8       0.00644139       0.03790372      -0.03138968 
H       2.72140599       1.56924462      -0.17236944        1       0.02140387      -0.00798626      -0.00050270 
H       2.63367264       0.65843647      -1.52019186        1      -0.01501432       0.00233101       0.01307946 
H      -0.41339527       3.86156946      -1.93376878        1      -0.00446313       0.03493266      -0.03193269 
