22
Properties=species:S:1:pos:R:3:Z:I:1:forces:R:3 magmom=0 energy=-12017.8350771 dipole="0.3036121 -0.0895561 -0.4158841" pbc="F F F"
C      -1.00699590      -1.24699825      -0.79538865        6       0.00112249      -0.02055129      -0.01368233 
C       0.81356208       0.04530336      -2.13206215        6      -0.01372656       0.00451311       0.00028426 
C      -0.09897577      -0.00650088      -0.91347638        6      -0.00672847      -0.03488576      -0.01184312 
C      -0.34983751      -2.52366495      -1.31998792        6       0.00680149       0.01306866       0.00994215 
C      -2.36390613      -1.03274640      -1.46499448        6       0.00037456      -0.01218703      -0.01334644 
C       1.67598791       1.29869831      -2.07750431        6       0.00121073      -0.01036350      -0.00213952 
N       0.06167330       0.01572878      -3.38768913        7       0.00297261       0.02161825       0.01256169 
O       2.70570367       1.23118797      -2.94653579        8      -0.00799171       0.01070289      -0.01498501 
H      -1.19213604      -1.38210924       0.27424716        1      -0.00889921      -0.00509068      -0.02394587 
H       1.48615435      -0.81498918      -2.13958174        1      -0.00882963       0.01545907       0.00762450 
H       0.54103851       0.06268636      -0.03133366        1       0.01317079       0.00053674      -0.02219263 
H      -0.71269202       0.89859436      -0.90734037        1       0.03147946      -0.00336804       0.03321547 
H      -0.22207340      -2.46279906      -2.40229677        1       0.00719878      -0.01481922       0.02045431 
H      -0.97508274      -3.39105591      -1.10402684        1       0.00847287       0.02676369       0.00001224 
H       0.62740617      -2.69848745      -0.86558976        1      -0.00723596       0.01430516       0.02019041 
H      -3.00995534      -1.90018037      -1.31703686        1       0.01839573       0.01946865       0.00603114 
H      -2.86991108      -0.16152200      -1.04644042        1      -0.00768991      -0.00331533      -0.02232463 
H      -2.24106866      -0.88215942      -2.53713512        1      -0.00850367      -0.00994081      -0.01050913 
O       1.46658232       2.27132139      -1.40973548        8       0.01458155       0.03013066       0.01620206 
H       0.69051112       0.04169687      -4.18171730        1      -0.01303930       0.00343453       0.00900848 
H      -0.54405655       0.82699648      -3.44848759        1      -0.03311180      -0.00822876      -0.00821473 
H       3.16124956       2.08289784      -2.91949520        1       0.00997521      -0.03725097       0.00765664 
