22
Properties=species:S:1:pos:R:3:Z:I:1:forces:R:3 magmom=0 energy=-12017.9743504 dipole="-0.3730614 0.4455679 0.0031661" pbc="F F F"
C      -0.23490918       0.81385019       0.54692991        6       0.00049427       0.00894538      -0.00127696 
C      -1.14991304      -0.90847846      -1.16902995        6       0.01774586      -0.01727776      -0.02842519 
C       0.04476121      -0.37775317      -0.37020565        6      -0.00221994       0.00471782       0.00556999 
C      -0.79616532       2.00724320      -0.22350199        6       0.00738853       0.00816649       0.00259054 
C       1.04924783       1.20409983       1.27683624        6       0.00680638       0.01891772      -0.02549311 
C      -2.27039755      -1.24541397      -0.19796731        6       0.03173698       0.02723045      -0.02179900 
N      -0.72741586      -2.06735769      -1.93821703        7       0.00408039      -0.00590310      -0.00220040 
O      -3.24905571      -0.32320604      -0.18270757        8       0.03246327       0.01679470       0.00341396 
H      -0.97178166       0.51241148       1.29965424        1      -0.00276661      -0.01492160      -0.01304912 
H      -1.50711233      -0.14595943      -1.86026894        1      -0.00813991       0.01044866       0.01990584 
H       0.43075367      -1.20900075       0.22716325        1       0.01427754      -0.00300325      -0.00380770 
H       0.81994714      -0.11353354      -1.09417308        1      -0.01454946      -0.00459256       0.00684834 
H      -0.08452096       2.33250653      -0.98612878        1      -0.00030375      -0.01360432      -0.02080681 
H      -0.97237402       2.84973539       0.44482526        1       0.01464490       0.01860054       0.01987165 
H      -1.74140073       1.77313153      -0.71202688        1       0.00915976      -0.00115134       0.01546807 
H       0.87991631       2.03959015       1.95732363        1      -0.01293579      -0.04179586       0.01107570 
H       1.45771546       0.36876033       1.84753168        1      -0.04016902       0.02195604       0.00969285 
H       1.80914859       1.51577494       0.55711001        1       0.00563570       0.00274805      -0.02034365 
O      -2.28660537      -2.22097559       0.49893617        8      -0.03545459      -0.02322200       0.02582627 
H      -1.47611018      -2.39409907      -2.53614584        1       0.00961953      -0.01855041      -0.00924672 
H      -0.49967315      -2.82809596      -1.30646665        1      -0.00421275       0.01896142      -0.00494927 
H      -3.89835803      -0.59649588       0.47808681        1      -0.03330129      -0.01346497       0.03113467 
