22
Properties=species:S:1:pos:R:3:Z:I:1:forces:R:3 magmom=0 energy=-12017.9743504 dipole="0.4010651 -0.3593909 0.2184041" pbc="F F F"
C      -0.05536029      -0.68899601       0.74815962        6       0.00097774      -0.00895556       0.00085710 
C       1.15673971       0.80188247      -1.00005710        6      -0.00955875       0.00777245      -0.03563143 
C      -0.16145507       0.22660504      -0.47236903        6       0.00084286      -0.00303699       0.00694398 
C       0.85696512      -1.88553977       0.48604152        6      -0.00683512      -0.00872530       0.00227933 
C      -1.45176554      -1.15909618       1.15210931        6       0.00396073      -0.02447876      -0.02095542 
C       1.85982007       1.52431568       0.13824951        6      -0.01970339      -0.03636913      -0.02263728 
N       0.87268653       1.68859048      -2.11639769        7      -0.00380672       0.00449393      -0.00465015 
O       2.88128019       0.82039633       0.65746911        8      -0.02967840      -0.02150548      -0.00202906 
H       0.36120308      -0.11459604       1.58301280        1       0.00506708       0.01231857      -0.01493821 
H       1.80216095      -0.00197642      -1.35230734        1       0.00247248      -0.00464706       0.02332438 
H      -0.81175764       1.07288624      -0.23210441        1      -0.01254745      -0.00049864      -0.00834796 
H      -0.62755194      -0.31339970      -1.30062189        1       0.01095295       0.00846022       0.00939173 
H       0.47004167      -2.48015679      -0.34495451        1       0.00539160       0.00907168      -0.02251135 
H       0.90536053      -2.53296983       1.36125363        1      -0.01799747      -0.01671803       0.01875728 
H       1.87531499      -1.58111215       0.24682981        1      -0.01370676       0.00245031       0.01143015 
H      -1.41454297      -1.79866932       2.03491219        1       0.00379078       0.04481392       0.00377135 
H      -2.11511355      -0.31827073       1.36022736        1       0.03718484      -0.01180610       0.02583527 
H      -1.89938264      -1.74113523       0.34373709        1       0.00154153      -0.00768518      -0.01979508 
O       1.53907420       2.60352655       0.55066165        8       0.02237132       0.03398659       0.02841115 
H       1.73067901       2.02436450      -2.53583388        1      -0.00821601       0.01426602      -0.01584638 
H       0.36825695       2.50301025      -1.78178012        1       0.00772930      -0.01844520       0.00124781 
H       3.24824865       1.33343836       1.38894178        1       0.01976680       0.02523774       0.03509273 
