22
Properties=species:S:1:pos:R:3:Z:I:1:forces:R:3 magmom=0 energy=-12017.9743504 dipole="-0.3590887 0.3050796 -0.3401437" pbc="F F F"
C      -0.03896750       1.54087325      -0.75883702        6       0.00053793       0.00410749      -0.00804658 
C      -1.20589930      -0.73391160      -0.29863081        6       0.01355697      -0.03502172      -0.00335832 
C       0.09320082       0.07729874      -0.33486451        6      -0.00137647       0.00748546      -0.00049473 
C      -0.66614826       1.67889570      -2.14460570        6       0.00784845       0.00596208      -0.00555837 
C       1.33676115       2.20448466      -0.72555182        6       0.00393117      -0.01035728      -0.03051797 
C      -2.20052684      -0.01531683       0.59931762        6       0.02931289      -0.00549049      -0.03652936 
N      -0.91242867      -2.07608226       0.17634996        7       0.00362829      -0.00567802       0.00330505 
O      -3.14739790       0.64742078      -0.08820415        8       0.03301394       0.00868447      -0.01349068 
H      -0.68033900       2.05903697      -0.03731829        1      -0.00476091      -0.01885035       0.00475016 
H      -1.63068389      -0.80620452      -1.29921556        1      -0.00528043       0.02306336       0.00346071 
H       0.53292286       0.03067452       0.66577691        1       0.01359754      -0.00649054      -0.00055227 
H       0.77537022      -0.44380672      -1.01158317        1      -0.01365816       0.00456294       0.00850603 
H      -0.05050095       1.16955065      -2.88984369        1      -0.00328186      -0.02462598      -0.00094169 
H      -0.73570784       2.72717270      -2.43405497        1       0.01749677       0.02508404      -0.00445824 
H      -1.67131231       1.26054825      -2.18417131        1       0.01103389       0.01071641       0.00937383 
H       1.27541218       3.25768606      -1.00265026        1      -0.01238526      -0.01381809       0.04114156 
H       1.79526056       2.13134980       0.26174795        1      -0.03807717       0.02527960      -0.01003867 
H       2.00542531       1.71614265      -1.43759588        1       0.00304881      -0.01545968      -0.01431421 
O      -2.15022777      -0.01821512       1.79728228        8      -0.03239235       0.01149890       0.03579850 
H      -1.73887628      -2.65946579       0.13801081        1       0.00792028      -0.01935079       0.00921720 
H      -0.62356947      -2.03546146       1.14825955        1      -0.00436676       0.00751446      -0.01806061 
H      -3.71304452       1.09755644       0.55238310        1      -0.02934770       0.02118378       0.03080861 
