22
Properties=species:S:1:pos:R:3:Z:I:1:forces:R:3 magmom=0 energy=-12017.9743504 dipole="-0.0359327 -0.3481135 -0.4639411" pbc="F F F"
C      -1.32403002      -1.00856229      -1.12731911        6      -0.00315891       0.00068181      -0.00845374 
C       1.18050681      -0.94226903      -0.44097575        6       0.02214743       0.02967943       0.00707511 
C      -0.20179028      -0.28437806      -0.38206316        6      -0.00547300      -0.00475109      -0.00235513 
C      -1.00094674      -1.18898587      -2.60915077        6      -0.00886568       0.00497673      -0.00497498 
C      -2.62945550      -0.23385182      -0.95467747        6       0.00867367       0.01722331      -0.02611670 
C       1.05732779      -2.37321175       0.05822715        6      -0.00878042       0.03714602      -0.02767644 
N       2.10991723      -0.16284180       0.36017537        7       0.00254899       0.00486581       0.00510842 
O       1.06636794      -3.27997039      -0.93483849        8      -0.02426828       0.02636214      -0.00794769 
H      -1.45929644      -2.00002858      -0.68107055        1       0.01801876       0.00427189       0.00759273 
H       1.54231861      -0.96289655      -1.46835334        1      -0.01665869      -0.01693915      -0.00271730 
H      -0.47228385      -0.19157805       0.67388854        1      -0.00192848       0.01450005       0.00365657 
H      -0.08940034       0.72885107      -0.77651173        1       0.00301251      -0.01587281       0.00433951 
H      -0.85739810      -0.21606290      -3.08522675        1       0.02244542       0.01003445       0.00369642 
H      -1.81939701      -1.69135178      -3.12419628        1      -0.03017575       0.00285758      -0.00602677 
H      -0.10170020      -1.78420555      -2.76408343        1      -0.01562326       0.00086554       0.00892775 
H      -3.45735694      -0.73558421      -1.45729468        1       0.01539572      -0.01496418       0.03969856 
H      -2.88705299      -0.10854343       0.09806776        1       0.00027058      -0.04084810      -0.02282518 
H      -2.53463517       0.76203317      -1.39264805        1       0.01227517       0.01441880      -0.00973574 
O       0.94816628      -2.67622549       1.21318361        8       0.00548288      -0.04247715       0.02505628 
H       3.04990248      -0.52968696       0.27847893        1       0.01122590       0.01355671       0.01457029 
H       1.85052545      -0.22854951       1.33899904        1      -0.00264371      -0.00213926      -0.01974078 
H       0.95250154      -4.15214593      -0.53574599        1      -0.00392088      -0.04344851       0.01884881 
