22
Properties=species:S:1:pos:R:3:Z:I:1:forces:R:3 magmom=0 energy=-12017.7614159 dipole="1.1310875 -0.764176 -0.1831463" pbc="F F F"
C       0.28032126      -0.58050987      -2.37814617        6      -0.00320725       0.00106511       0.00752248 
C      -1.34482128      -0.86497254      -0.33944363        6      -0.00425579      -0.00367611      -0.00436136 
C      -0.16454293      -0.12360081      -0.98658184        6      -0.00703742       0.01220786       0.01547295 
C       0.74409921      -2.03650834      -2.37367015        6      -0.00197070      -0.01446343      -0.00305324 
C       1.41272004       0.32106583      -2.86402280        6      -0.00085823       0.00861047       0.01140665 
C      -2.60841339      -0.64585943      -1.17489854        6       0.00151675      -0.00380770      -0.01602579 
N      -1.49913013      -0.40501792       1.02672428        7      -0.00613553       0.00412287      -0.00070674 
O      -2.76260771      -1.44510960      -2.25145258        8      -0.03998847      -0.01682242       0.02022630 
H      -0.55154428      -0.46995336      -3.07929170        1      -0.00942546      -0.00665592       0.00523029 
H      -1.12455739      -1.93508935      -0.31038835        1       0.00332089      -0.01398428       0.00823612 
H      -0.42037074       0.93905590      -1.01925877        1      -0.01602569       0.02750679       0.00088456 
H       0.67546075      -0.22276238      -0.29523614        1       0.00365164      -0.00655986       0.01161727 
H       1.57027828      -2.15997113      -1.66876286        1      -0.01202233      -0.01959798      -0.02697972 
H       1.09261839      -2.33800082      -3.36154115        1       0.00942536       0.00911868       0.01332063 
H      -0.03560378      -2.74207195      -2.07552021        1       0.01061701       0.00362166      -0.00367375 
H       1.76654971       0.01755313      -3.84937487        1      -0.01290817      -0.00679985       0.00345783 
H       1.08823749       1.35931402      -2.92530609        1      -0.00027177       0.01930482       0.00073215 
H       2.25720609       0.27432285      -2.17336321        1       0.01874278      -0.00642760      -0.00642005 
O      -3.42108403       0.19327949      -0.92915632        8       0.02174721       0.00081170      -0.01461883 
H      -2.22884977      -0.92913312       1.49469643        1       0.00500450      -0.00041616      -0.00267477 
H      -1.81658798       0.55875412       1.01659486        1       0.01384025       0.00672873      -0.01009333 
H      -2.04018510      -2.07735231      -2.31441626        1       0.02624048       0.00611270      -0.00949961 
