22
Properties=species:S:1:pos:R:3:Z:I:1:forces:R:3 magmom=0 energy=-12017.9743504 dipole="-0.4476455 0.3602029 0.0870791" pbc="F F F"
C       0.20811593       1.36864032      -0.08365169        6      -0.00375592       0.00694239      -0.00442286 
C      -0.74758652      -1.04425748       0.02914788        6       0.00441731      -0.02869161      -0.02405324 
C       0.37518101      -0.11067071      -0.43436560        6      -0.00044156       0.00682571       0.00339879 
C      -1.08733228       1.94637226      -0.65004413        6       0.00379428       0.00867418      -0.00618391 
C       1.41408432       2.15143559      -0.60036157        6      -0.01603191       0.00299158      -0.02807609 
C      -0.92704935      -0.87784663       1.52983914        6       0.00140619       0.01330222      -0.04523013 
N      -0.40599796      -2.41042231      -0.33149668        7       0.00411891      -0.00595684      -0.00198859 
O      -2.00301467      -0.13857845       1.85272158        8       0.01965027       0.01775460      -0.02543222 
H       0.18275311       1.47037983       1.00696559        1      -0.00343721      -0.01967701      -0.00125686 
H      -1.68242920      -0.77977697      -0.46375884        1       0.00073698       0.01891586       0.01459960 
H       1.30683882      -0.48137586       0.00313110        1       0.00974597      -0.00380590      -0.01086049 
H       0.45905274      -0.22684689      -1.51802713        1      -0.00537859      -0.00105605       0.01579419 
H      -1.09532351       1.85831407      -1.73908741        1      -0.00632224      -0.02251176      -0.00844489 
H      -1.17856697       3.00388025      -0.40335281        1       0.01460582       0.02701947      -0.00350071 
H      -1.96889125       1.44092951      -0.25721316        1       0.01568908       0.00764564       0.00445834 
H       1.33727967       3.20976397      -0.34773054        1       0.01238809      -0.03031778       0.03105168 
H       2.34958982       1.76439710      -0.19371458        1      -0.03313818       0.02162555       0.02497323 
H       1.47065584       2.07696087      -1.68841021        1      -0.00790666      -0.00807995      -0.01803418 
O      -0.18623738      -1.33973800       2.35173410        8      -0.00352071      -0.00797798       0.04886865 
H      -1.16478012      -3.04174473      -0.10676654        1       0.00926950      -0.02010557      -0.00566265 
H       0.39916644      -2.71150110       0.20772530        1      -0.01311571       0.01326844      -0.00735711 
H      -2.02376733      -0.05674540       2.81490774        1      -0.00277371       0.00321491       0.04735947 
