22
Properties=species:S:1:pos:R:3:Z:I:1:forces:R:3 magmom=0 energy=-12017.9743504 dipole="-0.4272045 0.015144 -0.3936781" pbc="F F F"
C       0.20860484      -0.71964394      -2.32529176        6      -0.00654618      -0.00560567      -0.00275941 
C      -0.12306885       1.34921998      -0.78972627        6      -0.00088215       0.00203426       0.03763694 
C       0.49029863      -0.04115712      -0.98380908        6      -0.00024317      -0.00218117      -0.00730286 
C      -1.28886377      -0.87496823      -2.58262942        6      -0.00096946      -0.01115375      -0.00164345 
C       0.90164026      -2.08074252      -2.36035845        6      -0.02675336      -0.01215016       0.01380821 
C       0.32920258       2.24200157      -1.93443814        6      -0.02068190      -0.03711485       0.02044798 
N       0.28671761       1.87068785       0.50383472        7       0.00391944       0.00085813       0.00634183 
O      -0.62466442       2.43098991      -2.86335866        8       0.00305822      -0.03589816       0.00702924 
H       0.63374476      -0.10455377      -3.12614152        1       0.00020862       0.01361440       0.01466897 
H      -1.21044462       1.28509807      -0.80817263        1       0.00326998      -0.00372311      -0.02339169 
H       1.57155214       0.05979254      -0.85147461        1       0.00467900      -0.00848264       0.01155490 
H       0.12257441      -0.66830789      -0.16752785        1       0.00222118       0.01277509      -0.01056497 
H      -1.74540994      -1.48334420      -1.79823295        1      -0.00486977       0.01232386       0.02103661 
H      -1.46706507      -1.37489102      -3.53437806        1       0.00620387      -0.02625822      -0.01507592 
H      -1.80183345       0.08560080      -2.61585814        1       0.01429307      -0.00917586      -0.00600337 
H       0.73856656      -2.58390792      -3.31430385        1       0.03006638       0.03346358       0.00361759 
H       1.97621846      -1.98976945      -2.19502011        1      -0.02272243       0.01580647      -0.03772811 
H       0.49991449      -2.72584011      -1.57609973        1      -0.01315274      -0.00232176       0.01657878 
O       1.42410821       2.72300452      -2.02090009        8       0.01933845       0.03680288      -0.02709753 
H      -0.16563991       2.75616272       0.69391086        1       0.00962148       0.00558588       0.01995829 
H       1.28646416       2.04436247       0.49737346        1      -0.01726635      -0.00742283      -0.00695720 
H      -0.24663126       2.97811659      -3.56383961        1       0.01720793       0.02822357      -0.03415490 
