22
Properties=species:S:1:pos:R:3:Z:I:1:forces:R:3 magmom=0 energy=-12017.9743504 dipole="-0.21451 -0.3753786 0.3883188" pbc="F F F"
C       0.75504931      -1.55838247      -0.47302667        6       0.00131656      -0.00179818       0.00877014 
C      -1.27393404      -0.27277605      -1.46227404        6      -0.00518725       0.03711496      -0.00408913 
C       0.23592011      -0.32117412      -1.20725559        6       0.00226895      -0.00697216       0.00210363 
C       0.08709180      -1.73548605       0.88904069        6       0.00889993      -0.00023942       0.00698199 
C       2.27129278      -1.45576288      -0.31620816        6      -0.00559215       0.01622742       0.02755832 
C      -1.67966534      -1.53420508      -2.20803037        6       0.01801310       0.02559446       0.03526962 
N      -1.58833666       0.93084513      -2.21433818        7       0.00091716       0.00603222      -0.00436815 
O      -2.28401281      -2.44065466      -1.41962344        8       0.03103913       0.01120225       0.01608472 
H       0.53851965      -2.44404458      -1.08061010        1      -0.01241072       0.01289141      -0.00896487 
H      -1.81301482      -0.24022899      -0.51613961        1       0.00675984      -0.02287793       0.00159270 
H       0.73184003      -0.24498020      -2.17940277        1       0.00870612       0.01230330      -0.00049381 
H       0.49263648       0.57897979      -0.64274361        1      -0.00859206      -0.01211308      -0.00769125 
H       0.28218261      -0.86571215       1.52091598        1      -0.01461734       0.01956651      -0.00464912 
H       0.48269904      -2.61186528       1.40183523        1       0.02648879      -0.01201929       0.01045010 
H      -0.99137157      -1.86446553       0.80409403        1       0.01593894      -0.00541022      -0.00642082 
H       2.67804334      -2.33452706       0.18589510        1      -0.01176480      -0.00165697      -0.04353932 
H       2.76924422      -1.34536217      -1.28067023        1      -0.02257238      -0.03843414       0.01423759 
H       2.52695952      -0.58384913       0.28959467        1      -0.00657431       0.01724665       0.01061135 
O      -1.47566154      -1.72159597      -3.37461719        8      -0.01795257      -0.03209992      -0.03332114 
H      -2.58894072       1.03004391      -2.33169677        1      -0.00099939       0.01873902      -0.01303950 
H      -1.18647570       0.86379595      -3.14369807        1      -0.00268567      -0.00531761       0.01913127 
H      -2.47763976      -3.21666806      -1.96114159        1      -0.01139986      -0.03797931      -0.02621425 
