22
Properties=species:S:1:pos:R:3:Z:I:1:forces:R:3 magmom=0 energy=-12017.9743504 dipole="0.1777501 0.023597 0.5527788" pbc="F F F"
C      -0.76335605      -0.90661177       0.41728231        6       0.00524382      -0.00503062       0.00539865 
C      -0.08196520       1.34789238      -0.67865697        6       0.01842807       0.00637706      -0.03227362 
C      -0.47593728      -0.12104571      -0.86316573        6      -0.00292329      -0.00294669       0.00638148 
C       0.43090147      -0.90224147       1.36938032        6       0.00187526      -0.01106798       0.00149109 
C      -1.15479310      -2.33861512       0.05636581        6       0.03167450      -0.00708349       0.00062581 
C      -1.16615368       2.04197501       0.13051449        6       0.03370840      -0.03168294      -0.00907862 
N       0.09777245       1.95729405      -1.98612703        7      -0.00048002       0.00107025      -0.00740617 
O      -0.81859635       2.24197185       1.41413346        8       0.00658994      -0.03496186      -0.00898128 
H      -1.61410418      -0.44394588       0.92973544        1       0.00460850       0.01505504      -0.01235569 
H       0.85781998       1.41810432      -0.13211113        1      -0.01340841      -0.00672770       0.01862908 
H      -1.36200028      -0.14129837      -1.50448887        1       0.00289172      -0.00763602      -0.01267143 
H       0.33463695      -0.60100879      -1.41765612        1      -0.00907044       0.01112491       0.00860055 
H       1.29977182      -1.35623853       0.88690238        1       0.01223845       0.01514282      -0.01546200 
H       0.21134728      -1.48056863       2.26650816        1      -0.00825643      -0.02835716       0.00908052 
H       0.70001227       0.10477870       1.68627887        1      -0.01369447      -0.01150749      -0.00212805 
H      -1.38791902      -2.92227150       0.94786899        1      -0.02969696       0.02965089      -0.01661313 
H      -2.01767160      -2.36413437      -0.61080801        1      -0.00103518       0.01414343       0.04459635 
H      -0.32725968      -2.83565729      -0.45425493        1       0.01966226       0.00122786      -0.00808226 
O      -2.23098962       2.36987802      -0.31250051        8      -0.03566671       0.03079338       0.01552653 
H       0.43372828       2.90801933      -1.89625471        1       0.00033296       0.00656855      -0.02188091 
H      -0.79629579       2.00317151      -2.46386587        1       0.01277360      -0.00595246       0.01422890 
H      -1.56954600       2.65487714       1.85968358        1      -0.03579562       0.02180018       0.02237415 
