22
Properties=species:S:1:pos:R:3:Z:I:1:forces:R:3 magmom=0 energy=-12017.9743504 dipole="0.07059 -0.5518823 0.1678045" pbc="F F F"
C       0.67994302      -0.51204630       0.66550161        6      -0.00471643      -0.00601201       0.00484915 
C       0.88788811      -0.49088577      -1.92379919        6      -0.02284153       0.01535453      -0.02576328 
C       0.39071989       0.20629030      -0.65344258        6       0.00310502      -0.00303056       0.00626321 
C       0.08555112      -1.91874448       0.69117043        6      -0.00651980       0.00035553       0.00924672 
C       0.13610645       0.31997059       1.82572003        6      -0.02822737      -0.01544616      -0.00430403 
C       2.37982854      -0.74809620      -1.78262519        6      -0.04570959      -0.00285382       0.01118430 
N       0.58475937       0.34668514      -3.07259916        7      -0.00174079       0.00607624      -0.00403607 
O       2.66816317      -2.02911511      -1.49223553        8      -0.02603787       0.01200464       0.02291228 
H       1.76537775      -0.59443503       0.78993490        1      -0.00046090       0.00424664      -0.01955309 
H       0.38108827      -1.44702877      -2.04942699        1       0.01382045      -0.00671649       0.01832173 
H       0.84649451       1.20052453      -0.62935184        1      -0.01066427       0.01065717      -0.00024436 
H      -0.68695644       0.34817625      -0.76892676        1       0.01581578      -0.00488340      -0.00242702 
H      -0.99899547      -1.87242962       0.56688362        1      -0.00753596       0.00278039      -0.02352981 
H       0.28839236      -2.40606838       1.64451986        1      -0.00454936       0.00342512       0.03037455 
H       0.49546485      -2.55237463      -0.09458942        1       0.00419738       0.01157110       0.01315536 
H       0.34490298      -0.15440897       2.78548467        1       0.03231563       0.02230262      -0.02225254 
H       0.56173931       1.32450099       1.83501822        1       0.02394314      -0.03930754       0.00843666 
H      -0.94776174       0.42095086       1.73837854        1      -0.01773059      -0.00393703      -0.01111689 
O       3.22269902       0.09644800      -1.90083051        8       0.04911846      -0.00119561      -0.00692254 
H       0.83232574      -0.12265697      -3.93471913        1      -0.00480195       0.01625817      -0.01532084 
H       1.13885076       1.19562208      -3.02803610        1      -0.00792846      -0.01697612       0.00706940 
H       3.62610839      -2.09731307      -1.38917921        1       0.04714910      -0.00467344       0.00365703 
