22
Properties=species:S:1:pos:R:3:Z:I:1:forces:R:3 magmom=0 energy=-12014.7772983 dipole="1.3023511 -0.6281209 -0.9538752" pbc="F F F"
C       0.07835485      -1.14788840       0.23461402        6       0.00264608       0.00330875      -0.02021679 
C      -1.56064534       0.26739735      -1.27420617        6       0.00132540       0.02025731       0.00978593 
C      -0.12364702      -0.03849439      -0.81901431        6      -0.00910037       0.00077812      -0.00281685 
C      -0.79392386      -2.37270006      -0.00761118        6       0.01494181      -0.00576287       0.01593899 
C      -0.11005918      -0.64982356       1.66818736        6      -0.01760059      -0.00262340      -0.02946150 
C      -2.52409722       0.54355471      -0.10123426        6       0.02385372       0.01408821       0.01960471 
N      -2.13904341      -0.69987957      -2.21716636        7       0.01281777       0.00841656      -0.00637197 
O      -3.62232988      -0.08574415      -0.31584295        8       0.02619985       0.00011585      -0.02231995 
H       1.11998581      -1.47782120       0.13905756        1       0.00662573       0.00010901       0.01175395 
H      -1.52523645       1.25038930      -1.75770586        1       0.00189346      -0.01398151      -0.02106397 
H       0.44487494      -0.28002019      -1.71968151        1       0.01108819      -0.00586746       0.02727385 
H       0.29878690       0.88420173      -0.41628432        1       0.00130663      -0.02089834      -0.00391070 
H      -1.84977092      -2.09388040      -0.00541552        1       0.00343839      -0.02457579       0.01841183 
H      -0.65356896      -3.09848778       0.79743787        1       0.02098488      -0.00855679       0.01598548 
H       0.35323154      -3.29025496      -1.30045436        1       0.00867053      -0.00424186      -0.01711116 
H       0.07592029      -1.45356932       2.38263525        1       0.00314184       0.01948459      -0.00384771 
H       0.58519216       0.16210469       1.88198179        1      -0.01644863      -0.00882063      -0.00184785 
H      -1.11701771      -0.26524178       1.82560761        1      -0.02724418      -0.00798184      -0.00723791 
O      -0.55696839      -2.98890911      -1.26807388        8      -0.02547907       0.04006607       0.00583440 
H      -2.21531040      -0.33556124      -3.15449736        1      -0.01263209       0.00887128      -0.00503432 
H      -1.62483376      -1.57333841      -2.24885549        1      -0.01007363      -0.00661159      -0.00199919 
H      -3.50750080      -0.60300426      -1.18385583        1      -0.02035568      -0.00557369       0.01865078 
