22
Properties=species:S:1:pos:R:3:Z:I:1:forces:R:3 magmom=0 energy=-12017.9743504 dipole="-0.0922133 0.5120338 -0.2589084" pbc="F F F"
C       0.94887732       1.22176475      -0.47501255        6       0.00324334       0.00433390      -0.00725149 
C      -1.35811382       0.03632657      -0.33115479        6      -0.00964678      -0.03500521      -0.01014362 
C       0.16905637      -0.08422566      -0.31519968        6       0.00334418       0.00680206       0.00087484 
C       0.59212504       1.94401531      -1.77264213        6       0.01010670       0.00104397      -0.00497493 
C       2.44706555       0.92746501      -0.42081930        6      -0.00150749      -0.00511922      -0.03202546 
C      -1.77642315       1.03157991       0.73957477        6       0.02209349      -0.01519882      -0.03879116 
N      -1.93873609      -1.27808742      -0.11127471        7      -0.00059974      -0.00719631       0.00204655 
O      -2.11344681       2.23325581       0.23871332        8       0.03235446      -0.01026132      -0.01398531 
H       0.70472993       1.88168211       0.36483349        1      -0.01521080      -0.01288426       0.00179046 
H      -1.69484685       0.40574363      -1.29913193        1       0.00922723       0.02068278       0.00766189 
H       0.44745389      -0.55618805       0.63166809        1       0.00713126      -0.01304100      -0.00254112 
H       0.44215213      -0.77839898      -1.11419665        1      -0.00869820       0.01015756       0.01004134 
H       0.82192237       1.31039045      -2.63261084        1      -0.01716345      -0.01730934      -0.00488931 
H       1.17019092       2.86211641      -1.87478923        1       0.02913667       0.01023597      -0.00128756 
H      -0.46243145       2.21414556      -1.81594424        1       0.01477161       0.00029136       0.01030616 
H       3.03406148       1.84243372      -0.51053171        1      -0.02011066      -0.01081411       0.03892908 
H       2.72552915       0.42587775       0.50718898        1      -0.01520551       0.04414656      -0.00305848 
H       2.73036681       0.27328733      -1.24809696        1      -0.00600548      -0.01146764      -0.01689976 
O      -1.79500576       0.78910715       1.91367837        8      -0.02098000       0.02187706       0.03930091 
H      -2.94716240      -1.24366345      -0.19320935        1      -0.00551517      -0.02154374       0.00525549 
H      -1.72875947      -1.58725183       0.83213672        1       0.00179638       0.01167307      -0.01619461 
H      -2.33302499       2.80911123       0.98242425        1      -0.01256210       0.02859658       0.03583604 
