22
Properties=species:S:1:pos:R:3:Z:I:1:forces:R:3 magmom=0 energy=-12017.9293918 dipole="-0.2669741 0.3962156 -0.0378146" pbc="F F F"
C      -0.07935977      -0.32534895      -2.34225515        6      -0.00113463      -0.00379953       0.00637320 
C      -0.13551819       1.32755107      -0.36175329        6       0.00585343       0.01359610      -0.00438656 
C       0.15246836      -0.08408378      -0.84828904        6       0.01849652      -0.00214322       0.01343710 
C      -1.42505173       0.21983048      -2.81651905        6      -0.00962770      -0.00097779      -0.00335493 
C       0.03556149      -1.81927613      -2.63357098        6       0.00722115      -0.00798112       0.00081622 
C       0.61281164       2.35884821      -1.18992185        6       0.01009852       0.01708961      -0.01472841 
N       0.24849141       1.45744696       1.04233650        7      -0.00347875      -0.01393883       0.00943867 
O      -0.09053872       3.49941812      -1.32612177        8      -0.00421754       0.01869583      -0.02358951 
H       0.71374751       0.19286448      -2.88783870        1      -0.02278322      -0.00332778      -0.01034998 
H      -1.20050246       1.54701580      -0.43233444        1       0.00170145      -0.00141786       0.00179566 
H       1.19341717      -0.31891390      -0.61384243        1       0.02899850      -0.01692840       0.01504759 
H      -0.46943873      -0.76090052      -0.25693735        1      -0.01893294       0.00922867      -0.00020199 
H      -2.24748093      -0.21881461      -2.24557951        1       0.01338686      -0.02462659       0.00879076 
H      -1.58439012      -0.01618251      -3.86864054        1      -0.01013940      -0.01816505      -0.00096977 
H      -1.49028841       1.30391314      -2.71146006        1       0.00853375       0.01011971      -0.01353706 
H      -0.01099618      -2.02371881      -3.70385275        1      -0.02438198       0.02396551       0.01519034 
H       0.97743110      -2.22083222      -2.25559327        1      -0.02381407       0.00483388      -0.00906005 
H      -0.78035176      -2.36241594      -2.14920938        1       0.02902513       0.00034453      -0.02158241 
O       1.72448905       2.23195806      -1.62251387        8       0.00188287      -0.01010217       0.01295795 
H       0.02961862       2.38008006       1.39739539        1      -0.00966838      -0.00403838       0.01825370 
H       1.24647434       1.31243790       1.14693341        1      -0.00587785       0.00112403      -0.00390705 
H       0.46341991       4.12892313      -1.80597393        1       0.00885817       0.00844890       0.00356658 
