22
Properties=species:S:1:pos:R:3:Z:I:1:forces:R:3 magmom=0 energy=-12017.9743504 dipole="-0.0012783 0.3045479 -0.4949386" pbc="F F F"
C       1.32768294      -0.07423405      -1.81687460        6      -0.00182358      -0.00168022      -0.00870231 
C      -0.22956508       1.18779975      -0.16447745        6      -0.02834585      -0.01319614       0.02106258 
C       0.46685654      -0.12013867      -0.55348927        6       0.00540533       0.00115556      -0.00526151 
C       0.52273045       0.35993179      -3.04011294        6       0.00167903      -0.00863274      -0.00711532 
C       1.95843672      -1.44596005      -2.05061504        6      -0.02690197      -0.00775455      -0.01643943 
C       0.82240347       2.27896182      -0.04322906        6      -0.02513675      -0.03380780      -0.02118985 
N      -0.95307405       0.98648545       1.08017544        7      -0.00208676      -0.00304059       0.00653847 
O       0.84033514       3.11267928      -1.09824836        8       0.00055094      -0.03468537      -0.01201651 
H       2.13787797       0.64729848      -1.66385508        1      -0.01197589       0.00571875       0.01498187 
H      -0.94227398       1.47683234      -0.93606284        1       0.01969805       0.00524330      -0.01249438 
H       1.08835143      -0.42164285       0.29483347        1      -0.00444127      -0.01342316       0.00524469 
H      -0.31471997      -0.87607169      -0.66554903        1       0.00793041       0.01457548       0.00207262 
H      -0.29726670      -0.33944242      -3.21987338        1      -0.01992883       0.00360392       0.01442086 
H       1.14993870       0.36982856      -3.93118849        1       0.01787956      -0.01842093      -0.01721647 
H       0.10393291       1.35884135      -2.92296708        1       0.01495642      -0.00989366       0.00171554 
H       2.59777492      -1.44265049      -2.93436610        1       0.01421702       0.01802220       0.03885739 
H       2.55229135      -1.76732957      -1.19364982        1       0.01069800       0.03589687      -0.02804328 
H       1.17920616      -2.19385661      -2.21200512        1      -0.02076027      -0.00462886      -0.00089022 
O       1.57467047       2.38876817       0.88396809        8       0.02913399       0.03664193       0.01648972 
H      -1.48684208       1.81169201       1.32296719        1      -0.00869023      -0.00624500       0.02019046 
H      -0.29229860       0.82893879       1.83400089        1      -0.00579239       0.00177478      -0.01910679 
H       1.55222513       3.74972334      -0.95570912        1       0.03373498       0.03277627       0.00690197 
