22
Properties=species:S:1:pos:R:3:Z:I:1:forces:R:3 magmom=0 energy=-12017.83459 dipole="-0.4938453 -0.2846268 0.3062838" pbc="F F F"
C       0.60977760      -1.24289512      -1.73940589        6      -0.00262916      -0.01801598      -0.00527297 
C      -0.61769063       1.03576675      -1.43173558        6      -0.01474991       0.01926692      -0.00529287 
C       0.00127083      -0.20757013      -0.77951113        6      -0.00775265       0.00161728      -0.01285120 
C       1.65045462      -0.61009147      -2.66145728        6       0.00607644      -0.01615800       0.00673639 
C      -0.41677980      -2.03816764      -2.54337547        6      -0.03016907       0.00219690      -0.01112270 
C      -0.67972998       2.14607714      -0.39334871        6      -0.02216116       0.00191804      -0.01139667 
N      -1.90648078       0.72995824      -2.03644382        7       0.00832626       0.01397282       0.00532599 
O      -1.66187789       1.94185987       0.50813321        8      -0.01371103      -0.02253562      -0.01003990 
H       1.13268035      -1.95435976      -1.09358371        1       0.02799721       0.00414827       0.00699664 
H       0.04878264       1.40993088      -2.20780569        1      -0.00101548       0.02802256       0.01454334 
H       0.79743329       0.12634261      -0.10764802        1      -0.01890712       0.00556994       0.00022358 
H      -0.76313936      -0.67820335      -0.15391350        1       0.01999794      -0.00291779       0.01198288 
H       1.17584491       0.00200065      -3.43129170        1       0.01790110      -0.00706123       0.02594449 
H       2.22953646      -1.37881485      -3.17279722        1      -0.01224586      -0.01848711      -0.00294273 
H       2.34530635       0.01775658      -2.10085707        1       0.00125074       0.02690269      -0.03514338 
H       0.08820188      -2.79319396      -3.14942518        1      -0.01787035       0.00623436       0.03388874 
H      -1.12527120      -2.54875639      -1.88849448        1       0.01722866       0.01406579       0.00711913 
H      -0.98896632      -1.39067176      -3.20462451        1       0.01212784       0.02141343      -0.00889622 
O       0.04619215       3.09882584      -0.34486700        8       0.01814129      -0.04110968       0.00245227 
H      -2.30243384       1.55111370      -2.47695731        1      -0.01656372      -0.01809388      -0.01249356 
H      -2.56291230       0.41984959      -1.32889379        1       0.02068602      -0.00051623      -0.00706987 
H      -1.63386031       2.67277966       1.13803183        1       0.00804195      -0.00043354       0.00730852 
