22
Properties=species:S:1:pos:R:3:Z:I:1:forces:R:3 magmom=0 energy=-12017.9743504 dipole="-0.3170565 0.4636129 -0.1491774" pbc="F F F"
C      -1.58515128      -0.22043806      -1.15785445        6      -0.00534733       0.00591261       0.00428330 
C       0.83882672       0.24618557      -1.96702655        6       0.03252821      -0.00276702       0.01886017 
C      -0.09393158      -0.53905347      -1.03945019        6      -0.00729345       0.00068448      -0.00211761 
C      -1.87481743       1.25716241      -0.90182517        6      -0.00751359      -0.00049633       0.00844690 
C      -2.36966947      -1.09640697      -0.18249455        6       0.00501149       0.02311406       0.02224097 
C       0.37274029       0.05045419      -3.40105110        6      -0.00325419       0.01282194       0.04526021 
N       2.20259441      -0.21626841      -1.76846242        7       0.00573515      -0.00439324       0.00202870 
O      -0.29128513       1.11337327      -3.88864261        8      -0.01394700      -0.00895937       0.03274994 
H      -1.91724367      -0.46572747      -2.17273769        1       0.01974211       0.00024261      -0.00328140 
H       0.79582612       1.30862219      -1.72992458        1      -0.02159177      -0.00131620      -0.01018872 
H       0.06443130      -1.60200573      -1.24406242        1       0.00493055      -0.00704097       0.01238794 
H       0.24397794      -0.35361700      -0.01656959        1      -0.00178712       0.00077395      -0.01661226 
H      -1.55252720       1.53604439       0.10425010        1       0.02437894       0.00438569       0.00213242 
H      -2.94318270       1.45921219      -0.97445847        1      -0.02709604      -0.00834575       0.01230309 
H      -1.36935856       1.90490156      -1.61728320        1      -0.01016841      -0.01476837       0.00173369 
H      -3.44176269      -0.90948269      -0.25635768        1       0.02125228      -0.02509623      -0.03091032 
H      -2.18922374      -2.15768709      -0.35985024        1      -0.02260082       0.02859216      -0.02934806 
H      -2.06812800      -0.87678204       0.84387472        1       0.01264587       0.01087263       0.01323342 
O       0.55797589      -0.94786176      -4.03878995        8      -0.00245659      -0.01085000      -0.04836328 
H       2.85252755       0.33761090      -2.31217796        1       0.01966272      -0.01073811       0.00449434 
H       2.28583096      -1.17397052      -2.09338716        1      -0.00977256       0.01663458       0.00541891 
H      -0.57677107       0.89407607      -4.78493318        1      -0.01305858      -0.00926307      -0.04475232 
