22
Properties=species:S:1:pos:R:3:Z:I:1:forces:R:3 magmom=0 energy=-12017.950633 dipole="-0.506816 0.119955 0.3709837" pbc="F F F"
C       1.11080338       0.38875976       0.25531309        6       0.02085201       0.01487460       0.01934226 
C       0.04927210       0.85278138      -2.04552421        6      -0.01849086      -0.01616278       0.01337205 
C       0.02117281       0.03117254      -0.75569133        6       0.02802261       0.01528824       0.02293136 
C       2.50914527       0.28762156      -0.34845936        6       0.01176054      -0.02048074      -0.00775177 
C       0.99804853      -0.49973465       1.48997971        6      -0.00061573      -0.01825735      -0.00440286 
C       0.21046974       2.33010571      -1.72403223        6      -0.00389954      -0.01137523      -0.02222421 
N      -1.15640587       0.57388199      -2.81254741        7      -0.01415562       0.00493770      -0.00816639 
O      -0.82387293       2.80038779      -0.99633628        8       0.01310502       0.00516159      -0.01836585 
H       0.95023465       1.42375670       0.57405948        1      -0.00623842       0.02828939      -0.00244368 
H       0.91335332       0.58338931      -2.65323487        1      -0.01241195       0.01966976       0.03787199 
H      -0.95881059       0.17260388      -0.28953609        1       0.02683589      -0.01566481      -0.00747636 
H       0.09690383      -1.02334529      -1.03557977        1      -0.00946181       0.02943384       0.00224483 
H       2.68495312      -0.72489553      -0.71788541        1       0.00428978      -0.03052722      -0.02649969 
H       3.26925370       0.50013924       0.40380694        1       0.00030529       0.01506008      -0.00821612 
H       2.65034901       0.98392833      -1.17487684        1       0.01812705       0.01075996       0.01913297 
H       1.68866245      -0.17250593       2.26838040        1      -0.02092312      -0.02711959      -0.01252287 
H      -0.01256397      -0.48990482       1.90066573        1       0.01681836       0.02035897       0.00989129 
H       1.24679346      -1.53144516       1.23295670        1      -0.01228237      -0.01906000       0.01274676 
O       1.12363990       3.02688284      -2.06803483        8      -0.00744376      -0.00175329       0.03197203 
H      -1.17095695       1.08908847      -3.68342559        1       0.00935661      -0.01093860      -0.02247324 
H      -1.97433093       0.84528199      -2.28004614        1      -0.02838390      -0.00351053      -0.02310162 
H      -0.65856386       3.73699686      -0.83061591        1      -0.01516612       0.01101605      -0.00586088 
