22
Properties=species:S:1:pos:R:3:Z:I:1:forces:R:3 magmom=0 energy=-12017.9743504 dipole="-0.1271185 -0.5272557 0.2087046" pbc="F F F"
C      -1.38167739      -0.42462547       0.01125494        6      -0.00461266      -0.00723241      -0.00288205 
C       1.20642838      -0.20828443       0.06668303        6       0.02374378       0.01083360      -0.02720469 
C      -0.12686719       0.27617681      -0.51181210        6      -0.00591981      -0.00254668       0.00407767 
C      -1.33544373      -1.93213192      -0.22967506        6      -0.00949478      -0.00174059      -0.00590444 
C      -2.61614985       0.18547771      -0.65053733        6       0.00422160      -0.02151402      -0.02394412 
C       1.14200240      -0.10666793       1.58243268        6      -0.01276327      -0.01438908      -0.04305040 
N       2.28299266       0.59513074      -0.48891295        7       0.00354247       0.00570384      -0.00334876 
O       0.95066041      -1.29500439       2.18219677        8      -0.02468213       0.00407571      -0.02686258 
H      -1.45730205      -0.25042494       1.09031714        1       0.01918717       0.00510611      -0.00252308 
H       1.37643094      -1.24960994      -0.20456987        1      -0.01726336      -0.00421620       0.01599638 
H      -0.20023996       1.34786007      -0.30463162        1      -0.00089932       0.00777928      -0.01288642 
H      -0.06388788       0.16099151      -1.59699420        1       0.00337473      -0.00079231       0.01636250 
H      -1.25748639      -2.14108327      -1.29929905        1       0.02297019       0.00220637      -0.00925371 
H      -2.24484203      -2.40926424       0.13480195        1      -0.03069599       0.00051252      -0.00356874 
H      -0.49300166      -2.40329250       0.27553178        1      -0.01373221       0.01148044       0.00204110 
H      -3.53258551      -0.27804059      -0.28300956        1       0.02194982       0.03063644       0.02482894 
H      -2.67666288       1.26072220      -0.47584172        1      -0.00480226      -0.03280604       0.03301801 
H      -2.57870044       0.02758059      -1.73047348        1       0.01064972      -0.00745306      -0.01686284 
O       1.23590707       0.92107307       2.19283270        8       0.00892224       0.01105091       0.04754968 
H       3.18402299       0.24842359      -0.18434687        1       0.01398202       0.01546421      -0.00935450 
H       2.20293376       1.54851120      -0.15075053        1      -0.00620932      -0.01876561      -0.00327394 
H       0.89035341      -1.13650998       3.13307681        1      -0.00146867       0.00660660       0.04704605 
