22
Properties=species:S:1:pos:R:3:Z:I:1:forces:R:3 magmom=0 energy=-12017.8425603 dipole="-0.0567126 -0.4137564 -0.3432886" pbc="F F F"
C      -1.30037365       0.43514845      -1.28923734        6       0.01862168      -0.00561678      -0.01416765 
C       0.75251310      -1.01021076      -1.85081847        6      -0.01257969       0.00806653       0.01169821 
C       0.05957317      -0.10031914      -0.83454320        6       0.00531509       0.00194607      -0.00621050 
C      -1.22891862       1.22380953      -2.59351676        6       0.00521991      -0.01261928      -0.01852645 
C      -1.90452643       1.30917454      -0.19385384        6       0.01215535      -0.01058919      -0.00606333 
C       1.65295521      -2.01242860      -1.14755450        6      -0.02152800       0.00808561      -0.01395256 
N       1.55593512      -0.23455360      -2.79851149        7      -0.03533071       0.00124477       0.01569345 
O       1.61914102      -3.22570678      -1.73170000        8       0.01077513      -0.00157537       0.00691077 
H      -1.95329017      -0.43118607      -1.44297028        1      -0.02788932       0.02031048       0.00481403 
H       0.00708833      -1.56434625      -2.42529643        1       0.01553080      -0.00046136       0.01809378 
H      -0.07538687      -0.64961739       0.10008585        1      -0.00243427       0.01246795      -0.01387763 
H       0.72542431       0.73620796      -0.59973550        1       0.01976978      -0.01513706      -0.00822661 
H      -0.52845840       2.05515942      -2.48870247        1      -0.01118924       0.00870905      -0.02742689 
H      -2.21008868       1.63140491      -2.84171361        1       0.00677136       0.00340244       0.00160154 
H      -0.88583942       0.61630022      -3.42793026        1       0.02483799      -0.01598470      -0.00121238 
H      -2.90775885       1.63612747      -0.46816085        1       0.00903589       0.01473165       0.01316847 
H      -1.96493752       0.78563305       0.76012336        1       0.00214692      -0.02526227       0.01394608 
H      -1.28833509       2.19999332      -0.05142724        1      -0.02244907       0.00626691       0.02447685 
O       2.37209581      -1.75967212      -0.22190223        8      -0.00529457      -0.01767387       0.00780464 
H       1.96818154      -0.83740075      -3.50130673        1       0.01320868       0.04166257       0.01558407 
H       2.30809090       0.23580987      -2.30580234        1      -0.01257100      -0.03621250      -0.02850253 
H       2.25591466      -3.79005851      -1.27369271        1       0.00787730       0.01423826       0.00437458 
