22
Properties=species:S:1:pos:R:3:Z:I:1:forces:R:3 magmom=0 energy=-12017.9193317 dipole="-0.2063032 -0.3275048 -0.3312379" pbc="F F F"
C      -0.87570332      -0.42147697       0.34146567        6       0.00718197       0.00593981      -0.00447691 
C      -0.28239003       1.38415977      -1.44727653        6      -0.00129419       0.00955880       0.01611624 
C       0.02420184       0.00837571      -0.83329446        6      -0.00374620       0.00653204      -0.01023201 
C      -2.34064170      -0.06563818       0.10453724        6      -0.00096026      -0.00798847      -0.01250626 
C      -0.40355572       0.11005206       1.69362551        6      -0.00106973       0.01509073       0.00261337 
C       0.66995411       1.60185723      -2.61368758        6      -0.00288293      -0.01041374       0.00245695 
N      -0.20417809       2.44428016      -0.46359548        7      -0.00533643       0.00493009       0.02274018 
O       0.36774623       0.82699394      -3.67115020        8      -0.00046074      -0.00481552       0.01088790 
H      -0.79842359      -1.51195695       0.38346973        1      -0.00614566       0.00426428      -0.01467375 
H      -1.29185210       1.36196691      -1.86449741        1       0.00181669      -0.00987237       0.02974443 
H      -0.06382282      -0.72745359      -1.63420753        1       0.00039127       0.00399200      -0.01637428 
H       1.07128779      -0.00225734      -0.51166230        1      -0.01172418       0.00762990      -0.00098396 
H      -2.47947701       1.01595885       0.14729102        1       0.00569366      -0.00524258       0.00042968 
H      -2.97255694      -0.51431974       0.87112764        1       0.00186719      -0.00142912      -0.00209087 
H      -2.68776184      -0.41996498      -0.86740504        1      -0.02056754      -0.02150265      -0.01075570 
H      -0.98758744      -0.33707559       2.49999523        1       0.00971162      -0.00023325      -0.01115741 
H       0.64612849      -0.13552259       1.86384784        1      -0.00912346       0.01176223       0.01900179 
H      -0.52112600       1.19084910       1.74614909        1       0.02018306       0.00795633      -0.00788480 
O       1.60108910       2.35728205      -2.60981815        8      -0.00583692      -0.00948804      -0.00755694 
H      -0.46875836       3.33078244      -0.87612988        1       0.02253289      -0.00389656      -0.01470728 
H       0.75884987       2.55174306      -0.16218103        1      -0.00621477      -0.00146280       0.02062765 
H       1.02955882       0.99543958      -4.35384050        1       0.00598460      -0.00131111      -0.01121803 
