22
Properties=species:S:1:pos:R:3:Z:I:1:forces:R:3 magmom=0 energy=-12017.8943326 dipole="-0.396145 -0.3520341 0.2552983" pbc="F F F"
C      -1.06899216      -0.03534878      -1.88637996        6       0.00061640      -0.00412570      -0.02245283 
C       0.51669371       1.22130721      -0.29986995        6      -0.00470250       0.00308615       0.01119037 
C      -0.03777758      -0.13376125      -0.74355830        6      -0.01453851       0.00223028       0.00069260 
C      -2.26213084      -0.94525586      -1.60828527        6      -0.00490479      -0.00350817      -0.01306131 
C      -0.45118043      -0.37507624      -3.24269284        6       0.02495667      -0.01432110      -0.03104350 
C      -0.61742212       2.14456627       0.13394312        6      -0.00965172       0.00200207       0.02709845 
N       1.35187793       1.81781826      -1.32112784        7       0.01293882       0.00238146      -0.00890568 
O      -1.45862219       1.55536494       1.00335001        8      -0.01451558       0.00250677       0.02312183 
H      -1.44024849       0.99575557      -1.93398797        1      -0.00876011      -0.00538903       0.00198695 
H       1.12329341       1.06142952       0.59647903        1       0.02787431       0.00435524      -0.00693859 
H       0.80855699      -0.74917726      -1.05395084        1      -0.00568327       0.00386519       0.01578179 
H      -0.48963498      -0.61456010       0.12343502        1      -0.02307601       0.01186415       0.00381464 
H      -1.92492174      -1.97877688      -1.50232925        1      -0.01213741      -0.00969486       0.00031079 
H      -2.98605231      -0.91146878      -2.42262629        1      -0.01450658       0.00595766      -0.00865768 
H      -2.76602446      -0.65842806      -0.68491150        1       0.00940828      -0.00224653      -0.00038973 
H      -1.15285744      -0.18555453      -4.05657911        1      -0.00153006      -0.01740226       0.03418184 
H       0.45790963       0.19426475      -3.43676877        1       0.00011899       0.00772488       0.01345042 
H      -0.18174561      -1.43353586      -3.27120104        1       0.00298135       0.00682957      -0.00625812 
O      -0.76449775       3.27773872      -0.22868054        8       0.02071409       0.00313243      -0.03278388 
H       1.64089375       2.74427647      -1.03001556        1       0.01771017       0.00314518      -0.00740982 
H       0.80754242       1.95760447      -2.16490040        1      -0.00634790       0.02642061      -0.00867907 
H      -2.12607328       2.21282349       1.24064337        1       0.00303539      -0.02881394       0.01495066 
