22
Properties=species:S:1:pos:R:3:Z:I:1:forces:R:3 magmom=0 energy=-12017.9743504 dipole="-0.3907719 -0.0089501 -0.4300381" pbc="F F F"
C      -0.12249914       1.12783164      -1.88416803        6      -0.00007595      -0.00245458      -0.00870848 
C      -1.14574626      -0.23360311       0.07736887        6       0.01516879      -0.02791478       0.02029876 
C       0.10615831       0.34280333      -0.59160529        6      -0.00179340       0.00515517      -0.00534347 
C      -0.82359697       0.28457402      -2.94724804        6       0.00724486       0.00062689      -0.00865963 
C       1.21692271       1.64354245      -2.40772200        6       0.00295281      -0.02832178      -0.01560192 
C      -2.13079393       0.89924994       0.31882038        6       0.02772904      -0.02872133      -0.02511829 
N      -0.75998055      -0.89417246       1.31348643        7       0.00407782      -0.00189701       0.00601602 
O      -3.14352890       0.91396954      -0.56583946        8       0.03181962      -0.00266382      -0.01812679 
H      -0.75350509       1.99535612      -1.66129356        1      -0.00353506      -0.01062128       0.01659118 
H      -1.61505563      -0.96849274      -0.57571903        1      -0.00629185       0.01924173      -0.01271585 
H       0.59653745       0.99055817       0.14102964        1       0.01387594      -0.00507016       0.00302794 
H       0.78021955      -0.49625151      -0.78260809        1      -0.01343530       0.00906077       0.00410831 
H      -0.21987729      -0.59271562      -3.19162238        1      -0.00203914      -0.01872339       0.01622747 
H      -0.96162976       0.85662209      -3.86442385        1       0.01593071       0.01545583      -0.02151669 
H      -1.80643559      -0.05378884      -2.62094516        1       0.01091043       0.01428356      -0.00118713 
H       1.08743387       2.22763235      -3.31978121        1      -0.00960636       0.01776252       0.04036149 
H       1.72674690       2.26286849      -1.66823185        1      -0.03978392       0.01155217      -0.02175493 
H       1.87407229       0.80445815      -2.64581590        1       0.00313371      -0.02105070      -0.00022081 
O      -2.02137220       1.71140265       1.19408730        8      -0.03113951       0.03262586       0.02073975 
H      -1.55594108      -1.35196706       1.73974097        1       0.00936144      -0.00789514       0.01929366 
H      -0.42601952      -0.20262090       1.97675491        1      -0.00564321      -0.00678884      -0.01801017 
H      -3.69946852       1.67693422      -0.36152224        1      -0.02886141       0.03635838       0.01029953 
