22
Properties=species:S:1:pos:R:3:Z:I:1:forces:R:3 magmom=0 energy=-12017.9310979 dipole="-0.1851246 -0.3777414 -0.2817106" pbc="F F F"
C       1.25506833      -0.93612312      -0.46198817        6      -0.01893684       0.01129691      -0.01514220 
C      -0.90631943      -0.77094668      -1.86949627        6      -0.01022955       0.00111139      -0.01441947 
C      -0.07414114      -0.22293923      -0.72065103        6      -0.01112239       0.00357044      -0.01588782 
C       1.09102770      -2.45036808      -0.34260891        6      -0.00661339       0.00699181      -0.00966354 
C       1.89437573      -0.35766047       0.79624863        6       0.00162149       0.00247026      -0.00232541 
C      -0.11309760      -0.81301733      -3.16643655        6      -0.02353310       0.01782870      -0.02380004 
N      -2.08987828       0.06924594      -2.05593108        7       0.00814387      -0.01537381      -0.01112547 
O      -0.51130360      -1.81788987      -3.97209117        8       0.02422134       0.02211591       0.03683969 
H       1.91674122      -0.72944583      -1.30704782        1      -0.00275813       0.00238526       0.00162411 
H      -1.25207434      -1.78003046      -1.64665091        1       0.00108732      -0.00167317      -0.00796646 
H       0.12124740       0.83465604      -0.91751293        1       0.02232587      -0.00045143      -0.00721817 
H      -0.70304163      -0.26765570       0.17268936        1       0.01622495      -0.01866210       0.00246708 
H       0.34720889      -2.70522275       0.41773052        1       0.02569612       0.02055057      -0.00711995 
H       2.03667042      -2.91347367      -0.05733920        1      -0.02789822      -0.00459353       0.00132078 
H       0.77697196      -2.90250126      -1.28521891        1      -0.01126740      -0.00122811       0.01377104 
H       2.89187231      -0.76610473       0.95808825        1      -0.00165893      -0.01188796       0.00608344 
H       1.97902990       0.72770712       0.72519161        1       0.01348575      -0.01394237       0.02610529 
H       1.28655307      -0.59281933       1.67328695        1       0.01331214       0.01245648       0.00036710 
O       0.71435847      -0.01051931      -3.49918529        8      -0.00509413      -0.01693935       0.00248111 
H      -2.71541194      -0.32095183      -2.74982137        1       0.01080074      -0.00405170      -0.01278466 
H      -1.81381775       0.99361996      -2.36905539        1      -0.02173575      -0.00533334       0.02804272 
H      -0.02806659      -1.73216576      -4.80445587        1       0.00392813      -0.00664075       0.00835094 
