22
Properties=species:S:1:pos:R:3:Z:I:1:forces:R:3 magmom=0 energy=-12017.9203767 dipole="0.214666 0.0848873 -0.4542241" pbc="F F F"
C      -1.07900683       1.01029699      -0.69692381        6      -0.03057782      -0.01166808       0.01759550 
C       0.74443077      -0.38332231       0.53495889        6       0.01841239      -0.02221567      -0.02751543 
C      -0.23416501      -0.27201579      -0.64230592        6      -0.01840607      -0.00942839       0.00065059 
C      -0.24261866       2.25801745      -0.42408446        6      -0.03123119      -0.01111771      -0.00930025 
C      -2.30962136       0.96379586       0.20922471        6      -0.02579387      -0.00446272       0.01119988 
C       1.50661844      -1.69358613       0.38870477        6       0.01589626      -0.01011313      -0.01073266 
N       0.08440603      -0.26462065       1.81864562        7       0.02125151      -0.01024060      -0.01213648 
O       2.26763209      -1.72702740      -0.72108659        8       0.02058703       0.02049211       0.02283376 
H      -1.44534145       1.07180663      -1.72602842        1       0.01771722      -0.00259239      -0.00330006 
H       1.47681612       0.42254611       0.44480198        1       0.03216106      -0.00358258       0.00304953 
H       0.35646858      -0.34680029      -1.55671354        1      -0.00442482      -0.00281361       0.01360834 
H      -0.89744689      -1.14290526      -0.62561987        1      -0.01518499      -0.01134355      -0.00566363 
H       0.05230017       2.29643735       0.62678407        1       0.00577773      -0.00937327      -0.03240212 
H      -0.82260896       3.15524103      -0.64147481        1       0.02811244       0.01447793       0.01063126 
H       0.65877232       2.27829730      -1.04166176        1      -0.03552925       0.01764661       0.02004427 
H      -2.97198900       1.80361189      -0.00797769        1       0.02426165       0.00034232       0.02602754 
H      -2.87752106       0.04502985       0.05085680        1      -0.00763273       0.01096925      -0.02856851 
H      -2.02565165       1.00577696       1.25918461        1       0.01762856       0.03403817      -0.01584674 
O       1.44152068      -2.61607632       1.15125862        8      -0.00341355      -0.00809682       0.02519671 
H       0.76035731      -0.36649447       2.56645036        1      -0.00322900      -0.00666019       0.00233652 
H      -0.57087017      -1.03042936       1.93535422        1      -0.02036175       0.00606986      -0.01033141 
H       2.69880475      -2.59114384      -0.75066856        1      -0.00602075       0.01967254       0.00262330 
