22
Properties=species:S:1:pos:R:3:Z:I:1:forces:R:3 magmom=0 energy=-12017.9743504 dipole="0.5147688 -0.1974636 0.1836766" pbc="F F F"
C       1.43699349       0.23785420      -1.58584807        6       0.00670256       0.00310569       0.00523004 
C      -0.33036232      -1.53223917      -0.88485670        6      -0.03269852       0.00465555       0.01818485 
C      -0.02974849      -0.08873859      -1.30075798        6       0.00701397       0.00068427      -0.00289990 
C       2.33066323      -0.05349688      -0.38200852        6       0.00496069       0.01002447       0.00174007 
C       1.55869501       1.70324328      -2.00050563        6       0.00270773       0.00701608       0.03158138 
C       0.21773014      -2.46743776      -1.95114560        6       0.00143720       0.03346831       0.03317957 
N      -1.76536982      -1.68512310      -0.71011768        7      -0.00735634       0.00136274      -0.00054358 
O       1.36665031      -3.06447713      -1.58782923        8       0.00272501       0.03609855       0.00602970 
H       1.77752141      -0.37894317      -2.42492019        1      -0.01657241      -0.01019669       0.00468656 
H       0.15950320      -1.75944573       0.06131824        1       0.01987088       0.00015087      -0.01330387 
H      -0.62571168       0.12257130      -2.19350026        1      -0.00955401       0.01135687       0.00265261 
H      -0.40428926       0.55731677      -0.50251858        1       0.00460474      -0.01344466      -0.00882614 
H       2.01562468       0.54573563       0.47560729        1      -0.01957911      -0.00915267       0.01228885 
H       3.36740837       0.20146965      -0.60031090        1       0.01777939       0.02378605      -0.00855134 
H       2.30484020      -1.10441277      -0.09592483        1       0.00176491       0.01135440      -0.01387301 
H       2.59190349       1.96484584      -2.23250709        1      -0.02512313      -0.02319881      -0.02945559 
H       0.93983575       1.92823928      -2.87040292        1       0.03766558      -0.02776519      -0.00038849 
H       1.23109684       2.35161357      -1.18509684        1      -0.00814865       0.00175977       0.01959263 
O      -0.30172440      -2.65245371      -3.01584934        8       0.00496002      -0.03473082      -0.03509078 
H      -1.98832601      -2.60855514      -0.36028095        1      -0.02283335       0.00083540       0.00019839 
H      -2.22773517      -1.58922109      -1.60829279        1       0.01532444       0.00125804       0.01284066 
H       1.65935075      -3.61100612      -2.32847973        1       0.01434840      -0.02842828      -0.03527256 
