22
Properties=species:S:1:pos:R:3:Z:I:1:forces:R:3 magmom=0 energy=-12017.9743504 dipole="-0.1386352 0.5554942 0.0996092" pbc="F F F"
C      -1.28914991       0.61025653      -1.49639243        6      -0.00545681       0.00445598       0.00567962 
C       1.29457719       0.44077611      -1.28711435        6       0.02090785      -0.02428165       0.01986429 
C      -0.06102698      -0.27271809      -1.26980548        6      -0.00553955       0.00442867      -0.00281263 
C      -1.38441520       1.73096830      -0.46310144        6      -0.01025577      -0.00175272       0.00444328 
C      -2.54808497      -0.25474818      -1.46530228        6      -0.00039014       0.00459790       0.03213704 
C       1.42697900       1.19694696      -2.59961163        6      -0.01904864      -0.01179139       0.04149612 
N       2.34983663      -0.54424237      -1.11588436        7       0.00350627      -0.00663484       0.00012814 
O       1.22478449       2.51990803      -2.46784088        8      -0.02746674      -0.01809049       0.01630681 
H      -1.21683795       1.06403291      -2.49102714        1       0.01904720      -0.00579789       0.00204248 
H       1.35233858       1.15573366      -0.46715265        1      -0.01540122       0.01250986      -0.01334012 
H      -0.02891395      -1.04921155      -2.03976584        1      -0.00192051      -0.01361070       0.00619970 
H      -0.14226668      -0.77890399      -0.30438847        1       0.00531776       0.00970242      -0.01254035 
H      -1.45580353       1.31132716       0.54319798        1       0.02173888      -0.00714443       0.00971995 
H      -2.27402484       2.33718994      -0.63219880        1      -0.03078130      -0.00216554      -0.00177771 
H      -0.52264642       2.39658893      -0.49829486        1      -0.01248728      -0.00831562      -0.00997084 
H      -3.44327572       0.34188899      -1.64540755        1       0.02706683      -0.01190493      -0.03409592 
H      -2.50702825      -1.05231338      -2.20862941        1      -0.00305725       0.04564398      -0.00983869 
H      -2.65707939      -0.72228021      -0.48441985        1       0.00789123      -0.00322555       0.01950722 
O       1.67156339       0.67924256      -3.65309077        8       0.01556217       0.01709079      -0.04391969 
H       3.25376931      -0.09387787      -1.04588806        1       0.01381058      -0.01816449       0.00121947 
H       2.38292462      -1.14961720      -1.92959462        1      -0.00793335       0.01385634       0.01211483 
H       1.29514093       2.91558055      -3.34614794        1       0.00488978       0.02059428      -0.04256297 
