22
Properties=species:S:1:pos:R:3:Z:I:1:forces:R:3 magmom=0 energy=-12017.9743504 dipole="-0.1239049 0.4746747 -0.3115237" pbc="F F F"
C       0.74342434       0.20244780      -2.25493756        6      -0.00565226       0.00209607      -0.00674992 
C       0.42002712       0.84686916       0.24071912        6      -0.01944855      -0.01770590       0.02701114 
C       0.50805943      -0.25899244      -0.81585880        6       0.00282009       0.00262175      -0.00657914 
C      -0.34546979       1.16146270      -2.73176090        6      -0.00383979      -0.00521245      -0.00928302 
C       0.82158409      -1.01703197      -3.17193118        6      -0.03228704       0.00202166      -0.00272614 
C       1.68004461       1.69419015       0.16086485        6      -0.03979765      -0.02003584      -0.01542132 
N       0.25391625       0.23789903       1.55019082        7       0.00006999      -0.00516936       0.00543629 
O       1.48396959       2.87248044      -0.45692061        8      -0.01391522      -0.02693740      -0.02068746 
H       1.70634213       0.72286336      -2.30389839        1      -0.00262643       0.00041487       0.01983694 
H      -0.44066521       1.48521871       0.04436104        1       0.01334254       0.00786716      -0.01821699 
H       1.31802642      -0.93048958      -0.51609625        1      -0.00532779      -0.01390756       0.00235636 
H      -0.42234460      -0.82980969      -0.75780406        1       0.01170829       0.01172598       0.00228432 
H      -1.32198408       0.67282907      -2.69315240        1      -0.01033553      -0.00053263       0.02260591 
H      -0.16815122       1.46448453      -3.76338101        1       0.00337442      -0.01168515      -0.02841121 
H      -0.38923141       2.06670976      -2.12715558        1       0.01101101      -0.01114193      -0.00889648 
H       1.01068774      -0.72409033      -4.20547133        1       0.03337158      -0.00034072       0.03038299 
H       1.60574529      -1.70745401      -2.85770234        1       0.00739228       0.04288230      -0.01720557 
H      -0.12508201      -1.56114475      -3.15294127        1      -0.01965516      -0.00189069       0.00796548 
O       2.74798690       1.35430233       0.58704959        8       0.04208156       0.02411489       0.01049195 
H       0.11532936       0.94567709       2.26058919        1      -0.00085988      -0.01288704       0.01884979 
H       1.09784454      -0.26842023       1.79742206        1      -0.01247114       0.00975461      -0.01227378 
H       2.33423983       3.32933156      -0.49238895        1       0.04104473       0.02394736      -0.00077025 
