22
Properties=species:S:1:pos:R:3:Z:I:1:forces:R:3 magmom=0 energy=-12017.8598585 dipole="0.2774075 0.4472886 -0.377787" pbc="F F F"
C      -1.29928100       0.53199922      -0.46956474        6      -0.01159799      -0.01412343      -0.01308316 
C       0.12640155      -0.91432269      -2.08486457        6      -0.00562172       0.00100057      -0.00686773 
C       0.09143701       0.17824742      -1.00326826        6      -0.01198432      -0.01306624       0.00049936 
C      -2.25545864       1.02493072      -1.55101778        6      -0.01654526       0.01407314      -0.00250713 
C      -1.16657505       1.58474471       0.62814324        6       0.00702472      -0.02176125      -0.01506003 
C       1.49495228      -1.57498697      -2.02188549        6      -0.01648705      -0.00158997      -0.01980927 
N      -0.23296250      -0.38611976      -3.39011692        7       0.02042567       0.00837480      -0.00915853 
O       2.42001829      -0.90437405      -2.73679237        8       0.01329538       0.01031444       0.01319043 
H      -1.71969289      -0.37426962      -0.02220655        1       0.00931963      -0.02186415      -0.00125017 
H      -0.58664280      -1.69652981      -1.81717052        1       0.01343376      -0.00374949       0.02295939 
H       0.69953529      -0.15827825      -0.15951732        1       0.00712103       0.02593544      -0.00294006 
H       0.57300659       1.07989603      -1.40029351        1      -0.00049031      -0.03541397      -0.01656115 
H      -1.81592274       1.87419287      -2.07893662        1      -0.02233481       0.01454514      -0.01550242 
H      -3.19180975       1.35475213      -1.09960764        1      -0.01879934      -0.00294726      -0.00168032 
H      -2.47065035       0.26019420      -2.29279134        1       0.00511305       0.00423306       0.01379793 
H      -2.13617113       1.79355491       1.08007976        1       0.00814772       0.01516462       0.01175745 
H      -0.48311961       1.26387982       1.41487270        1      -0.00251274       0.00317516       0.01016419 
H      -0.78621919       2.51784417       0.20707990        1       0.01242301       0.01945132       0.01747759 
O       1.75746293      -2.55781257      -1.38808302        8       0.01343371       0.00824723       0.00700944 
H      -0.17541223      -1.10236135      -4.10294816        1      -0.01423018      -0.00242003      -0.00037734 
H       0.40066643       0.35588386      -3.66028809        1       0.03150599       0.00291974       0.01167039 
H       3.26729124      -1.34916629      -2.60631902        1      -0.02063999      -0.01049889      -0.00372897 
