22
Properties=species:S:1:pos:R:3:Z:I:1:forces:R:3 magmom=0 energy=-12017.9743504 dipole="0.014026 0.4446418 0.3739155" pbc="F F F"
C       0.84555883       1.28824279      -1.12059566        6      -0.00469555       0.00763407       0.00125192 
C       0.62340584      -0.87286564       0.30363182        6      -0.02423203      -0.02866991      -0.00353573 
C       0.45299975      -0.18859574      -1.05643159        6       0.00361507       0.00671639      -0.00023721 
C       0.06001059       2.13134206      -0.11816941        6      -0.00477305       0.00777533      -0.00668857 
C       0.63161704       1.80837065      -2.54109320        6      -0.03054409       0.00664533       0.00877867 
C       2.06268240      -0.69226311       0.75952608        6      -0.04315474       0.01330181      -0.01360124 
N       0.26324836      -2.27541595       0.17598729        7      -0.00143987      -0.00665720      -0.00316035 
O       2.20020378       0.25128235       1.70783078        8      -0.01981524       0.01358545      -0.02775665 
H       1.91193297       1.37876165      -0.88587694        1      -0.00305020      -0.01850454       0.00698882 
H      -0.03438964      -0.41240598       1.03991986        1       0.01549681       0.01815256      -0.00142881 
H       1.04996446      -0.75153499      -1.77999560        1      -0.00884007      -0.00561328      -0.01084836 
H      -0.59543454      -0.30555153      -1.34271963        1       0.01427852      -0.00011549       0.00870288 
H      -1.01086781       2.06115200      -0.32341663        1      -0.01081931      -0.02058225       0.00879739 
H       0.34247132       3.18124234      -0.19185239        1       0.00109858       0.02340856      -0.02015524 
H       0.23496648       1.81623005       0.90995006        1       0.00799634       0.00413835      -0.01560089 
H       0.92288033       2.85597884      -2.62748322        1       0.03115632      -0.03264237       0.00084157 
H       1.19829261       1.22905890      -3.27157797        1       0.01885688       0.02774709       0.03262242 
H      -0.42431845       1.73795653      -2.81060894        1      -0.01969918      -0.00601345       0.00537160 
O       2.99109715      -1.30950390       0.31825811        8       0.04657590      -0.00769845       0.01532738 
H       0.29188619      -2.73708038       1.07646928        1      -0.00478025      -0.02152147      -0.00600959 
H       0.93771392      -2.74516326      -0.41910267        1      -0.00911688       0.01581023       0.00830780 
H       3.14088374       0.32305313       1.91495420        1       0.04588597       0.00310332       0.01203220 
