22
Properties=species:S:1:pos:R:3:Z:I:1:forces:R:3 magmom=0 energy=-12017.9565705 dipole="0.0001505 -0.2073111 -0.572808" pbc="F F F"
C      -0.86882999       0.90132257      -0.18182071        6      -0.02698939       0.00103641       0.00293198 
C       1.60877140       0.18743664      -0.42782775        6       0.01552432      -0.00732235      -0.01518226 
C       0.13097485      -0.20555637      -0.51501520        6      -0.01593961      -0.01764013      -0.01861407 
C      -0.60691569       1.49311952       1.20110191        6      -0.01210691       0.01529765       0.01115581 
C      -2.28825596       0.34805990      -0.27631165        6      -0.02106428      -0.00944042      -0.00115653 
C       1.82859626       1.44032533      -1.26062917        6      -0.00674354       0.01958070      -0.00753812 
N       2.42320316      -0.95549655      -0.80257954        7       0.02982033      -0.00135451      -0.00800390 
O       1.89708552       1.17391414      -2.57957578        8      -0.00104125       0.00590130      -0.02130025 
H      -0.76719445       1.70346815      -0.92063850        1       0.00766960      -0.01110053       0.00231029 
H       1.85140268       0.46677291       0.59632248        1       0.00977544      -0.00075117       0.00834225 
H      -0.05739410      -0.57791989      -1.52664973        1      -0.01415156      -0.00985905       0.00182343 
H      -0.01439732      -1.04724324       0.16763986        1       0.01990487       0.00997254      -0.01504949 
H      -0.59200924       0.70067886       1.95482637        1      -0.00816032       0.01735217      -0.00517985 
H      -1.39196125       2.19915289       1.47345913        1       0.00617409      -0.00360350      -0.00352766 
H       0.34429080       2.02385601       1.23553513        1      -0.02985884      -0.00452458       0.01724588 
H      -3.02651976       1.12861660      -0.08955990        1       0.00963079      -0.01651178       0.01071425 
H      -2.48899371      -0.07734417      -1.26113089        1       0.01838154       0.00704724       0.01485974 
H      -2.43720723      -0.44123045       0.46514952        1      -0.00529200       0.02661874      -0.00979914 
O       1.89661860       2.55820377      -0.83080228        8       0.03634877      -0.02227373       0.02592048 
H       3.41173633      -0.76018910      -0.71342647        1       0.00220236       0.02567046       0.00088729 
H       2.24890171      -1.21926826      -1.76482985        1      -0.00654665       0.01537309       0.00112805 
H       1.99679892       2.01914618      -3.03749864        1      -0.00753776      -0.03946854       0.00803182 
