22
Properties=species:S:1:pos:R:3:Z:I:1:forces:R:3 magmom=0 energy=-12017.9743504 dipole="-0.0308016 0.50927 -0.2782281" pbc="F F F"
C       0.19237655       1.33540546      -0.01510709        6       0.00588613       0.00578287      -0.00372280 
C      -1.33227441      -0.31580805      -1.31783533        6       0.00752526      -0.03472851      -0.01259907 
C      -0.17464432      -0.11455484      -0.33476527        6       0.00032051       0.00716536       0.00252986 
C       0.55956274       2.12129271      -1.27221324        6       0.01038556       0.00376646       0.00250796 
C       1.34636664       1.35733562       0.98586392        6       0.02000642      -0.00132859      -0.02552741 
C      -2.54883970       0.42973300      -0.79237271        6       0.04421053      -0.00531781      -0.01544148 
N      -1.58609899      -1.73959177      -1.46469078        7       0.00001923      -0.00735006       0.00145360 
O      -2.77741912       1.58646394      -1.43905485        8       0.03525266      -0.00143925       0.01006793 
H      -0.67025958       1.82068436       0.45479009        1      -0.00936077      -0.01590392      -0.00774601 
H      -1.07033136       0.09136260      -2.29376357        1      -0.00285531       0.02105765       0.01097820 
H      -0.44232470      -0.63081671       0.59185982        1       0.01003404      -0.01083489       0.00303467 
H       0.69241073      -0.63203313      -0.75343796        1      -0.01517964       0.00679579       0.00188102 
H       1.41769375       1.66099110      -1.76776086        1      -0.00560686      -0.01978582      -0.01397580 
H       0.83349671       3.14560468      -1.02071759        1       0.02005764       0.01618258       0.01704071 
H      -0.26464003       2.16757793      -1.98318620        1       0.00454155       0.00210584       0.01730697 
H       1.61997969       2.37894665       1.25274766        1      -0.03659755      -0.01950691       0.01780720 
H       1.09757765       0.81467882       1.89907740        1      -0.02003939       0.04001341      -0.01367740 
H       2.22900203       0.88428205       0.55023741        1       0.00879610      -0.01030447      -0.01643593 
O      -3.23432228       0.04576920       0.11335571        8      -0.04530336       0.01198047       0.01626434 
H      -2.29527242      -1.90749628      -2.16733080        1      -0.00220256      -0.02269852       0.00139693 
H      -1.94174855      -2.11186114      -0.59026233        1       0.00859242       0.01368058      -0.01180332 
H      -3.54178317       2.00721884      -1.02475504        1      -0.03848268       0.02066776       0.01865978 
