22
Properties=species:S:1:pos:R:3:Z:I:1:forces:R:3 magmom=0 energy=-12017.9743504 dipole="-0.3633257 0.4414897 0.1039076" pbc="F F F"
C      -0.86300858      -0.00644483       0.59187430        6       0.00043693       0.00795026       0.00430223 
C      -0.81048997      -0.33420640      -1.98455364        6       0.02957160      -0.00283942      -0.02321429 
C      -0.13039645      -0.56130983      -0.63069497        6      -0.00474873       0.00139626       0.00579588 
C      -1.09921428       1.49843421       0.48093990        6       0.00493446       0.00386761       0.00942304 
C      -0.06340481      -0.33114805       1.85255615        6       0.01618165       0.02767721      -0.00510842 
C      -2.22137356      -0.89720466      -1.91811478        6       0.03629755       0.02750988       0.01219305 
N      -0.01786812      -0.96925539      -3.02456182        7       0.00500023      -0.00452535      -0.00328710 
O      -3.16186307       0.05392787      -1.77919503        8       0.02643367       0.00543932       0.02487692 
H      -1.83637114      -0.50280642       0.67330334        1       0.00426160      -0.00484792      -0.01894482 
H      -0.87192330       0.73213955      -2.19896031        1      -0.01677192      -0.00024580       0.01704312 
H       0.00278016      -1.64059193      -0.51141929        1       0.01464506      -0.00336280       0.00125362 
H       0.86684085      -0.11860814      -0.69693203        1      -0.01575603      -0.00444924      -0.00343114 
H      -0.14553392       2.02479493       0.39566510        1       0.00982002      -0.00016635      -0.02284040 
H      -1.60676339       1.87585800       1.36832334        1       0.00309792       0.00186261       0.03069270 
H      -1.71277965       1.75550999      -0.38183731        1       0.00140567      -0.01098057       0.01421224 
H      -0.56975122       0.03268287       2.74755371        1      -0.01381464      -0.03768132      -0.02064457 
H       0.10195409      -1.40428245       1.95918724        1      -0.04161007       0.02114532       0.00333030 
H       0.91526257       0.15154527       1.80997258        1       0.01388910       0.01186703      -0.01093655 
O      -2.48272651      -2.06631395      -1.96847400        8      -0.04166571      -0.02557101      -0.00850830 
H      -0.40130360      -0.77070313      -3.94019068        1       0.01388221      -0.01236325      -0.01328664 
H      -0.04591190      -1.97640759      -2.90391581        1      -0.00277911       0.01909116       0.00539875 
H      -4.01796423      -0.38846584      -1.71355153        1      -0.04271148      -0.02077364       0.00168037 
