22
Properties=species:S:1:pos:R:3:Z:I:1:forces:R:3 magmom=0 energy=-12017.966821 dipole="0.5143745 0.2484639 -0.0392942" pbc="F F F"
C       0.60716180       1.15071695      -1.51404299        6      -0.02217366       0.03051483      -0.00886563 
C       0.72034760      -1.38977172      -1.02508947        6      -0.00852624       0.01219294       0.01500105 
C      -0.12324056      -0.11206152      -1.05759212        6      -0.02282626       0.02242691      -0.00869923 
C       1.70930876       1.54132244      -0.53173595        6       0.00280667       0.00047211      -0.02105209 
C      -0.39265609       2.29220796      -1.67601248        6      -0.01307535       0.01943497       0.01085571 
C       1.25059960      -1.64048062      -2.42725649        6       0.01834148      -0.01142994      -0.00309823 
N      -0.09200045      -2.48748260      -0.53427059        7      -0.02285315      -0.03388303       0.00759710 
O       2.52106498      -1.22726217      -2.58483412        8       0.02173935      -0.01146542      -0.02031701 
H       1.05855863       0.96317743      -2.49345173        1       0.01954270      -0.00154379       0.02070983 
H       1.56963936      -1.25571968      -0.35708313        1       0.01727524      -0.01571525       0.01918300 
H      -0.97504078      -0.29950502      -1.71795469        1      -0.01238038      -0.01633340      -0.01106238 
H      -0.52410806       0.04112217      -0.05257521        1       0.00401246      -0.02739536       0.00616664 
H       1.28016173       1.71949481       0.45788422        1       0.01488777      -0.00044002      -0.01950146 
H       2.20678415       2.45768775      -0.85031556        1      -0.00010686      -0.00195121      -0.00130427 
H       2.46894249       0.76577453      -0.43741801        1       0.01397806       0.01772981      -0.02394196 
H       0.09920949       3.19588995      -2.03717349        1      -0.00455137      -0.00375592       0.01041343 
H      -1.18360629       2.03100051      -2.38058964        1       0.01886192       0.00475798       0.01785189 
H      -0.85871800       2.52586234      -0.71618106        1      -0.01264859       0.00170438      -0.00123403 
O       0.61450746      -2.13460585      -3.31555194        8       0.01489594      -0.00469828      -0.00611727 
H       0.44547401      -3.34458117      -0.49419853        1       0.00590968      -0.00370265       0.02774133 
H      -0.85615366      -2.65718802      -1.17852280        1      -0.02040248       0.01060385      -0.02518308 
H       2.77312959      -1.39535647      -3.50307379        1      -0.01270701       0.01247643       0.01485666 
