22
Properties=species:S:1:pos:R:3:Z:I:1:forces:R:3 magmom=0 energy=-12017.966821 dipole="0.0881086 -0.4752451 -0.3069828" pbc="F F F"
C       1.27199730      -0.85656547      -1.37445694        6       0.03508774       0.00343253       0.01607757 
C      -1.06795238       0.19117371      -1.73893942        6       0.00411114      -0.00759890       0.01928076 
C       0.19979080       0.11576758      -0.88314630        6       0.02863772       0.00813317       0.01460901 
C       0.78130590      -2.30154534      -1.31544119        6       0.01080624       0.00769660      -0.01659215 
C       2.53882631      -0.68854750      -0.54031911        6       0.01333241      -0.00632322       0.02118291 
C      -0.66507425       0.61357630      -3.14227822        6      -0.01234412      -0.00530660      -0.01720798 
N      -2.00381990       1.11662082      -1.12780821        7      -0.02546205       0.03056296       0.01206207 
O      -0.57727820      -0.42460839      -3.99323466        8      -0.00413207       0.00044089      -0.03161655 
H       1.52237184      -0.61174031      -2.41154174        1      -0.01728460      -0.02264664       0.00125362 
H      -1.53376579      -0.79119301      -1.79786645        1      -0.02733294      -0.01276347      -0.00185603 
H       0.61908897       1.12482359      -0.83049306        1      -0.00411963       0.02262895      -0.00366511 
H      -0.10499410      -0.15822507       0.12989522        1      -0.02643058       0.00891741      -0.00515162 
H       0.51218889      -2.56179072      -0.28825620        1       0.00611593      -0.00102618      -0.02374183 
H       1.56111514      -2.99025410      -1.64144409        1      -0.00085700       0.00173184      -0.00133605 
H      -0.09189626      -2.46467393      -1.94656787        1       0.02337735      -0.00800472      -0.02173421 
H       3.33240535      -1.34648161      -0.89579785        1      -0.00736925       0.00029501       0.00942638 
H       2.90620338       0.33804966      -0.57763972        1      -0.01050455      -0.02418915       0.00126303 
H       2.33986526      -0.93849942       0.50420129        1       0.00530928       0.00854712       0.00794918 
O      -0.42861210       1.74250487      -3.47007028        8      -0.00441520      -0.00505911      -0.01537139 
H      -2.85654478       1.17853635      -1.67014505        1      -0.01921859      -0.01523728       0.01471998 
H      -1.60145509       2.04709793      -1.11752001        1       0.02719358       0.02051704      -0.00157650 
H      -0.29192718      -0.07909916      -4.85006285        1       0.00549923      -0.00474816       0.02202489 
