22
Properties=species:S:1:pos:R:3:Z:I:1:forces:R:3 magmom=0 energy=-12017.9743504 dipole="0.0606215 -0.5595693 0.1446473" pbc="F F F"
C      -0.10236740      -0.63834534       0.76302387        6      -0.00552314      -0.00705413       0.00128128 
C       1.38705067      -0.24663856      -1.32895276        6      -0.00863752       0.01631879      -0.03287073 
C       0.21122777       0.21887213      -0.46421191        6      -0.00008176      -0.00352354       0.00675938 
C      -0.39909803      -2.08820366       0.38537013        6      -0.01027696      -0.00155187       0.00447932 
C      -1.28275884      -0.02973199       1.51826097        6      -0.01930693      -0.01748309      -0.01937985 
C       2.61878928      -0.36915216      -0.44589891        6      -0.04395322      -0.00892425      -0.01454792 
N       1.58373673       0.70371597      -2.41121634        7      -0.00037050       0.00636579      -0.00395235 
O       2.91531184      -1.64209504      -0.12941338        8      -0.03557615       0.00611475       0.00664214 
H       0.76636094      -0.62717063       1.43057642        1       0.00888800       0.00678129      -0.01660089 
H       1.17107386      -1.22312312      -1.76100586        1       0.00343505      -0.00770462       0.02237477 
H       0.42967961       1.24149211      -0.14274697        1      -0.01056960       0.00946475      -0.00510374 
H      -0.66477142       0.26591518      -1.11633667        1       0.01538769      -0.00289424       0.00588603 
H      -1.26151608      -2.13486678      -0.28387667        1       0.00514966       0.00516200      -0.02376903 
H      -0.63601021      -2.67699336       1.27120505        1      -0.01983334      -0.00118677       0.02367174 
H       0.44650290      -2.56534540      -0.10882587        1      -0.00494110       0.01004900       0.01411078 
H      -1.51991117      -0.60602996       2.41348145        1       0.03519779       0.02824285      -0.00063522 
H      -1.08391662       1.00200378       1.81205387        1       0.02212342      -0.03747810       0.01719220 
H      -2.17192491      -0.02743625       0.88424633        1      -0.00874160      -0.00416292      -0.01896230 
O       3.26076015       0.56409233      -0.05272463        8       0.04530387       0.00470198       0.01969578 
H       2.30503913       0.38250007      -3.04475016        1       0.00118672       0.01761345      -0.01450817 
H       1.89772004       1.59024032      -2.03018284        1      -0.00765968      -0.01849441       0.00079267 
H       3.68473709      -1.62687033       0.45426757        1       0.03879913      -0.00035682       0.02744401 
