22
Properties=species:S:1:pos:R:3:Z:I:1:forces:R:3 magmom=0 energy=-12017.9743504 dipole="0.5433975 -0.0970434 0.1817081" pbc="F F F"
C       0.40578013      -0.27172018       0.80215379        6       0.00499041      -0.00725319       0.00210177 
C       0.59154996       1.10618922      -1.39216177        6      -0.01638065      -0.00585121      -0.03345401 
C      -0.25092504       0.18884976      -0.50010760        6       0.00296608      -0.00061614       0.00699026 
C       1.71774141      -1.01154966       0.54883448        6      -0.00184559      -0.00991212       0.00514709 
C      -0.56850465      -1.15924858       1.57492787        6       0.01188981      -0.02500928      -0.01694455 
C       1.03073596       2.30890330      -0.57205918        6      -0.00391404      -0.04558155      -0.01140027 
N      -0.19669538       1.49382471      -2.55041992        7      -0.00596331       0.00123542      -0.00438018 
O       2.31516845       2.23825257      -0.17999541        8      -0.01685667      -0.03156631       0.00813996 
H       0.62020391       0.60875794       1.41796304        1      -0.00290221       0.00922810      -0.01752094 
H       1.47981603       0.57927204      -1.73883138        1       0.00717137       0.00266551       0.02265872 
H      -1.17647797       0.72351069      -0.26707898        1      -0.01190951      -0.00764806      -0.00519193 
H      -0.52380229      -0.68017191      -1.10442030        1       0.00706107       0.01423949       0.00522201 
H       1.53910086      -1.89664668      -0.06640908        1      -0.00209977       0.00465869      -0.02433143 
H       2.16005684      -1.34518091       1.48721162        1      -0.00608899      -0.01746766       0.02475417 
H       2.45237887      -0.38442336       0.04489469        1      -0.01180805      -0.00067851       0.01358689 
H      -0.13866030      -1.48870954       2.52174871        1      -0.01630018       0.04182907      -0.00465303 
H      -1.50714673      -0.64263298       1.78081793        1       0.04141790       0.01126277       0.01864214 
H      -0.80368357      -2.05269719       0.99265935        1       0.00235503      -0.01097265      -0.01809388 
O       0.31358707       3.22578765      -0.28452032        8       0.00807064       0.04600074       0.01675876 
H       0.35957763       2.03830970      -3.19765899        1      -0.01564285       0.00525683      -0.01580262 
H      -0.96714132       2.08363871      -2.25338457        1       0.01527246      -0.01270809       0.00256889 
H       2.50041252       3.01909527       0.35749878        1       0.01051720       0.03888830       0.02520216 
