22
Properties=species:S:1:pos:R:3:Z:I:1:forces:R:3 magmom=0 energy=-12017.9743504 dipole="0.4642514 -0.1692787 -0.3058281" pbc="F F F"
C       0.24562677       0.31838754      -2.38041923        6       0.00812685       0.00344960      -0.00199502 
C      -0.21493450      -1.54944762      -0.63478402        6      -0.00553101       0.00277376       0.03719080 
C      -0.40750462      -0.09002625      -1.05909851        6       0.00192658       0.00108264      -0.00728435 
C       1.75305205       0.07272551      -2.37149737        6       0.00408872       0.01027963      -0.00241869 
C      -0.05515316       1.78974147      -2.66107218        6       0.02651383       0.00703654       0.01735788 
C      -0.70073214      -2.44901107      -1.76028828        6       0.02619147       0.03336963       0.02055242 
N      -0.94183854      -1.78226682       0.60237374        7      -0.00492613       0.00095162       0.00557045 
O       0.30321002      -2.98273743      -2.47841703        8       0.00532362       0.03616997       0.00316415 
H      -0.19538324      -0.27558371      -3.18859522        1      -0.00601638      -0.01111761       0.01551656 
H       0.84087996      -1.75252776      -0.45913585        1       0.00148075       0.00129887      -0.02383469 
H      -1.48473652       0.09110914      -1.11888389        1      -0.00403643       0.01080157       0.00971347 
H      -0.02046682       0.53141844      -0.24739473        1      -0.00380621      -0.01313916      -0.00963768 
H       2.22479673       0.65050560      -1.57308590        1      -0.00183207      -0.01026791       0.02257012 
H       2.20062603       0.38554923      -3.31453684        1       0.00325646       0.02476296      -0.01819313 
H       1.99706654      -0.97902113      -2.22582322        1      -0.01030195       0.01148625      -0.00930153 
H       0.37918859       2.10904359      -3.60931978        1      -0.03792408      -0.02444919       0.00096031 
H      -1.12854630       1.98319132      -2.68819213        1       0.02339349      -0.02563082      -0.03139173 
H       0.37392699       2.41603736      -1.87606307        1       0.01056955       0.00124148       0.01844741 
O      -1.85594677      -2.65873426      -2.00350355        8      -0.02378718      -0.03427250      -0.02684659 
H      -0.77068356      -2.71788190       0.94900372        1      -0.01371571      -0.00043256       0.01826836 
H      -1.93879069      -1.70893557       0.42800143        1       0.01944279       0.00206305      -0.00429991 
H      -0.09078946      -3.50955172      -3.18563845        1      -0.01843687      -0.02745784      -0.03410862 
