22
Properties=species:S:1:pos:R:3:Z:I:1:forces:R:3 magmom=0 energy=-12017.9543718 dipole="0.2983722 0.3128348 -0.4621683" pbc="F F F"
C       0.77080991      -1.34051413      -0.49035936        6      -0.00219809       0.00604117       0.00201888 
C      -1.49834585      -0.12430514      -0.63602374        6       0.00571448      -0.00702575       0.00322704 
C       0.01446416      -0.01137047      -0.46283034        6      -0.00150425      -0.01877836      -0.01240393 
C       0.23699619      -2.31929105       0.55440174        6      -0.00253475       0.00499576      -0.00347109 
C       2.26204286      -1.08603750      -0.28940897        6       0.00805912      -0.00027372      -0.00018085 
C      -1.85352246      -0.95018731      -1.86117722        6       0.01631319      -0.00605299       0.00857638 
N      -2.07707839       1.21124241      -0.69175832        7       0.00522027       0.00322607       0.01425044 
O      -1.37069870      -0.40271586      -2.99590562        8      -0.00899660      -0.00798328       0.00099353 
H       0.63917190      -1.79124228      -1.48096188        1      -0.01259136       0.01523363       0.01196412 
H      -1.93727366      -0.65488098       0.20783332        1       0.00594398       0.01930112       0.01307056 
H       0.40272403       0.63815115      -1.25267555        1      -0.01581007       0.00344250       0.00007770 
H       0.19142503       0.50131797       0.48712260        1      -0.00286889      -0.02949822      -0.01751765 
H       0.25322785      -1.86239533       1.54737844        1       0.00950892       0.00634564      -0.00915884 
H       0.84913714      -3.22044702       0.59315933        1       0.01274028       0.00108881      -0.01775943 
H      -0.78614459      -2.62468293       0.33579258        1      -0.00869912      -0.00932035       0.00622469 
H       2.83915972      -1.99914429      -0.43102884        1       0.00545969      -0.02432901       0.02145195 
H       2.63470807      -0.33952844      -0.99165711        1       0.00074094      -0.00529956      -0.01360134 
H       2.45535681      -0.72029077       0.72125488        1      -0.01473232       0.00876263       0.00696795 
O      -2.50807187      -1.95481128      -1.85855849        8       0.04062163      -0.01432907      -0.02418899 
H      -3.08549372       1.17078546      -0.76740745        1      -0.00749862       0.03249540      -0.00969563 
H      -1.72096893       1.70836607      -1.49973937        1      -0.03938174       0.02927757       0.00672667 
H      -1.65784384      -0.95610055      -3.73323248        1       0.00649327      -0.00731988       0.01242794 
