22
Properties=species:S:1:pos:R:3:Z:I:1:forces:R:3 magmom=0 energy=-12017.9277264 dipole="-0.0728053 0.4316176 0.2613455" pbc="F F F"
C       0.40892276      -0.80079316       0.48088069        6      -0.00109832       0.00162082       0.01173976 
C      -0.42226566       1.40870012      -0.57156458        6      -0.00004340      -0.01241668       0.01259887 
C       0.23129155       0.05063763      -0.77927540        6      -0.00041266      -0.01324113       0.00861644 
C       1.07658919      -0.02774468       1.61772559        6      -0.00533098      -0.00058955      -0.00068067 
C       1.20803623      -2.05348666       0.13371412        6       0.00903738       0.00412703      -0.00465318 
C      -1.73161068       1.29063199       0.19221483        6      -0.00266536       0.00042598       0.00411397 
N      -0.67417346       2.03699514      -1.86811061        7       0.00962549       0.00888476       0.01575582 
O      -1.97712478       2.38230935       0.94179856        8      -0.02524114       0.01365055       0.03894039 
H      -0.58224963      -1.11275229       0.81726151        1      -0.00623801      -0.00238305      -0.00035826 
H       0.24179387       2.06715499      -0.01164422        1      -0.02630984       0.00746880       0.00895310 
H      -0.36306196      -0.50784518      -1.50670808        1      -0.02903038      -0.02313232       0.01107256 
H       1.20408010       0.23584555      -1.24240968        1       0.00311690       0.00149325       0.00079709 
H       2.03077212       0.39717647       1.29507815        1       0.00072392      -0.02082707      -0.00942284 
H       1.27143710      -0.68845683       2.46322729        1       0.01846638       0.00714648      -0.01123778 
H       0.45283903       0.78958380       1.98441144        1      -0.00704575       0.01107559      -0.03241935 
H       1.27862490      -2.73152189       0.98489166        1      -0.00374003       0.02908247       0.00539561 
H       0.74534497      -2.59573390      -0.69185537        1       0.01042793      -0.00634965       0.00221598 
H       2.22307101      -1.78508021      -0.16765490        1       0.00952208      -0.01160735      -0.00166109 
O      -2.51156261       0.38379452       0.10108232        8      -0.00911307       0.00344831      -0.02329127 
H      -1.01809293       2.98267362      -1.75639147        1      -0.01214224       0.00127362      -0.00458376 
H      -1.37163870       1.50921619      -2.38156891        1       0.03160071       0.00688392      -0.01100525 
H      -2.85205843       2.27539615       1.33933695        1       0.03589044      -0.00603474      -0.02088610 
