22
Properties=species:S:1:pos:R:3:Z:I:1:forces:R:3 magmom=0 energy=-12017.857834 dipole="0.4753654 -0.1807608 0.2706542" pbc="F F F"
C      -0.21801245       1.20809898      -0.26899627        6       0.02746041      -0.00381505      -0.00049802 
C      -0.44098199      -0.36640263      -2.37476672        6      -0.00806812       0.00096704       0.02198849 
C      -0.11607777      -0.20081053      -0.88185105        6      -0.01419768      -0.00869743       0.02153983 
C      -1.64087896       1.61872888       0.11428194        6       0.00707182      -0.00435051      -0.00745224 
C       0.45826434       2.27760049      -1.12462653        6       0.01460382       0.00359764      -0.00936231 
C       0.64790238       0.18684105      -3.28831202        6       0.01384010       0.02963233      -0.02544924 
N      -1.76520992       0.10347679      -2.72719157        7       0.00065543      -0.01876016      -0.01976448 
O       1.86786581      -0.28858030      -2.97241446        8       0.00354293       0.01204012      -0.01467812 
H       0.34423512       1.15142694       0.66717635        1       0.00506441      -0.01613316       0.01688233 
H      -0.41309498      -1.44387196      -2.56493806        1      -0.00677835      -0.01664728       0.00570600 
H      -0.78363769      -0.86931288      -0.33721144        1      -0.03018203       0.00017957       0.01073605 
H       0.89838466      -0.57368085      -0.73207239        1      -0.01099368       0.01011210      -0.00936925 
H      -2.28700121       1.74300085      -0.75277083        1       0.00175426      -0.00175540      -0.00316703 
H      -1.62295528       2.56567950       0.65618712        1       0.00223362      -0.00414693      -0.00973826 
H      -2.10349822       0.87208034       0.76077092        1       0.01054692      -0.00668970      -0.02287855 
H       0.51513178       3.21924565      -0.57878652        1      -0.00872345       0.01343381      -0.01271858 
H       1.47456336       1.98683802      -1.39691703        1       0.00826810       0.01551825       0.02161599 
H      -0.08807339       2.46861654      -2.05083779        1      -0.01801032      -0.00055968       0.00647558 
O       0.46692275       0.91746380      -4.22158065        8      -0.01750412      -0.01260288       0.02420534 
H      -1.97233618      -0.15267792      -3.68522677        1      -0.00790115       0.00320689      -0.00117911 
H      -1.79454187       1.11587047      -2.70775531        1       0.02246584       0.01063655       0.00631489 
H       2.49035348       0.06826825      -3.61910630        1       0.00485136      -0.00516617       0.00079056 
