22
Properties=species:S:1:pos:R:3:Z:I:1:forces:R:3 magmom=0 energy=-12017.8411888 dipole="-0.3139698 -0.387137 -0.3854666" pbc="F F F"
C       0.30338103      -1.37294899       0.19963479        6      -0.01125423       0.01788573      -0.01383521 
C       1.12750502       0.35830634      -1.55873093        6      -0.00025295       0.00269009      -0.02661251 
C      -0.05540378      -0.29024065      -0.83734853        6       0.02002941       0.03125716      -0.00855334 
C       1.54647123      -1.02052653       1.01321326        6      -0.01680931       0.00967763       0.00670873 
C       0.44993796      -2.76671312      -0.40864576        6      -0.00562095      -0.00824990      -0.00769254 
C       0.64753920       1.51576931      -2.42148237        6       0.01011138      -0.01812751       0.00669736 
N       1.87937933      -0.62013055      -2.33582373        7       0.00370933      -0.01420370       0.00329050 
O      -0.20567950       1.11400600      -3.38606830        8       0.02424931      -0.03354914       0.00644822 
H      -0.54510548      -1.40978206       0.88840602        1      -0.00022189      -0.01581429       0.00709712 
H       1.80247461       0.81128440      -0.83238025        1      -0.01101733      -0.03994291      -0.01647244 
H      -0.60278431       0.51134859      -0.33411537        1       0.00175848       0.00991885       0.00068710 
H      -0.73564986      -0.70679007      -1.58643324        1       0.01355187       0.01207791       0.02577202 
H       2.44080103      -1.09435552       0.39139255        1      -0.01038715       0.01425420       0.02179956 
H       1.65872438      -1.71424301       1.84608756        1       0.02359311      -0.01055201      -0.00264273 
H       1.49255455      -0.01171857       1.42511759        1      -0.00714448       0.01689601       0.00443649 
H       0.61579211      -3.50224888       0.37856458        1       0.00067749      -0.03084033       0.02239889 
H      -0.44926108      -3.06048233      -0.95160673        1      -0.00795098       0.01930914      -0.02650962 
H       1.29683863      -2.80422794      -1.09119956        1       0.00818007       0.01581429      -0.01377911 
O       0.99312065       2.65792323      -2.30926237        8      -0.01481351       0.02918598       0.02816165 
H       2.69077513      -0.19681495      -2.76903330        1      -0.00143642       0.00181571      -0.01374332 
H       1.29824012      -1.00129231      -3.07400684        1       0.00542559      -0.02243123       0.00161326 
H      -0.42966428       1.89046573      -3.91377554        1      -0.02437689       0.01292833      -0.00526999 
