22
Properties=species:S:1:pos:R:3:Z:I:1:forces:R:3 magmom=0 energy=-12017.9743504 dipole="0.2003719 0.5454214 -0.0090504" pbc="F F F"
C       0.20650963       0.78651404       0.57799990        6       0.00804534       0.00402445       0.00098288 
C      -1.02885613       0.41182334      -1.67625062        6       0.00349418      -0.02811316      -0.02487368 
C      -0.33479960      -0.20184848      -0.45611588        6       0.00097543       0.00513588       0.00555245 
C       1.20814555       1.76269067      -0.03564915        6       0.00914002      -0.00161429       0.00647239 
C       0.84837200       0.01451629       1.72958546        6       0.02747414       0.00027099      -0.01729484 
C      -2.14276970       1.32588052      -1.19079243        6       0.04416878      -0.01588896      -0.00447125 
N      -1.53071184      -0.65802133      -2.52284775        7      -0.00228761      -0.00681656      -0.00214600 
O      -1.82313789       2.63009815      -1.26375908        8       0.02714951      -0.01816191       0.01674740 
H      -0.63147530       1.36324588       0.98494192        1      -0.00903295      -0.00732518      -0.01628907 
H      -0.31932772       1.00483319      -2.25222512        1      -0.00189717       0.01522145       0.01834133 
H      -1.05571614      -0.86861571       0.02608027        1       0.00520520      -0.01415207       0.00010248 
H       0.47958623      -0.82586049      -0.83326166        1      -0.01265014       0.01090282       0.00091938 
H       2.05797816       1.21807839      -0.45399770        1      -0.00415943      -0.00987155      -0.02243617 
H       1.59357265       2.44629793       0.72041371        1       0.01500018       0.00023094       0.02702209 
H       0.76267288       2.36566822      -0.82615980        1      -0.00222292      -0.00602070       0.01683312 
H       1.22687500       0.69050918       2.49740658        1      -0.04410152      -0.00908016      -0.00307329 
H       0.14333438      -0.67726734       2.19293031        1      -0.00314132       0.04665097       0.00181751 
H       1.69364542      -0.57142975       1.36246677        1       0.01182980      -0.00634965      -0.01652453 
O      -3.19658205       0.93816932      -0.77029588        8      -0.04391198       0.02169631       0.00798477 
H      -1.92713733      -0.28484501      -3.37631614        1      -0.00782053      -0.01907790      -0.00984979 
H      -2.27588373      -1.14983652      -2.04062968        1       0.01548097       0.01262247      -0.00157130 
H      -2.56701410       3.13395233      -0.90920388        1      -0.03673803       0.02571582       0.01575413 
