22
Properties=species:S:1:pos:R:3:Z:I:1:forces:R:3 magmom=0 energy=-12017.8986402 dipole="0.4495188 -0.040162 0.4100923" pbc="F F F"
C      -1.05550120      -0.95945733      -1.35232124        6      -0.00208126      -0.02478235       0.01023448 
C       0.91554291       0.67863491      -1.76027937        6       0.02927469      -0.00636888      -0.01654783 
C       0.01401539      -0.04534106      -0.74788617        6       0.00801865      -0.00858188      -0.00590798 
C      -2.14240830      -0.15138878      -2.06063484        6       0.01978654      -0.01918948       0.00739074 
C      -1.67735120      -1.83249529      -0.26305821        6      -0.00467992       0.00597576       0.01133965 
C       1.86622400      -0.34072044      -2.37102551        6       0.02472733       0.03727061      -0.01447680 
N       1.56094412       1.80986814      -1.11766761        7      -0.02284492       0.00998730       0.00497601 
O       3.02954738      -0.43440812      -1.69536901        8      -0.01318241       0.01045642       0.02343689 
H      -0.57601177      -1.61436127      -2.08444341        1       0.00140300      -0.00361214      -0.02407993 
H       0.31030053       1.04752271      -2.58835531        1      -0.00046208      -0.00181710       0.00859576 
H       0.65659075      -0.62038364      -0.07394176        1      -0.00958183       0.00002124       0.04030544 
H      -0.46462484       0.73146794      -0.14633602        1      -0.02205528      -0.00255285       0.00199806 
H      -2.64114307       0.51385382      -1.35062670        1       0.01241504      -0.01002699      -0.02685831 
H      -2.89790051      -0.80983270      -2.48997481        1       0.01210244      -0.00977554       0.01435020 
H      -1.74110439       0.45592280      -2.87110370        1      -0.00665011       0.00540184       0.00657904 
H      -2.44164742      -2.49023922      -0.67820970        1       0.00635232       0.01760337      -0.01244445 
H      -0.93161516      -2.45641023       0.23074969        1       0.02605304       0.01955365      -0.01788151 
H      -2.15313904      -1.21358884       0.50126766        1       0.00497524       0.02329558      -0.00167497 
O       1.62765991      -1.01622600      -3.33247577        8      -0.03413099      -0.01610791      -0.01575192 
H       2.21487807       2.26293551      -1.74388989        1      -0.00480621       0.00041559       0.01699458 
H       2.09029817       1.50040585      -0.31125139        1       0.01742709      -0.00278111      -0.00090966 
H       3.56613466      -1.11000005      -2.12860242        1      -0.04206027      -0.02438501      -0.00966745 
