22
Properties=species:S:1:pos:R:3:Z:I:1:forces:R:3 magmom=0 energy=-12017.8354009 dipole="0.0659954 0.6059741 -0.2241954" pbc="F F F"
C      -1.45957015      -0.71789136      -0.89545469        6       0.00276898      -0.00846166       0.01474934 
C       1.10128290      -0.89807507      -1.33082891        6      -0.00492845      -0.00579979       0.00515856 
C      -0.05229223      -0.17517739      -0.61690914        6      -0.00303478      -0.00910623      -0.00003219 
C      -1.62895281      -2.14955148      -0.38766719        6      -0.00512868      -0.00534851      -0.00541505 
C      -1.88029632      -0.60872606      -2.35928371        6       0.00247901       0.00192745       0.02864528 
C       2.35144670      -0.69111199      -0.49192396        6      -0.01203971       0.00060436      -0.00535592 
N       1.21756205      -0.46316153      -2.71361843        7      -0.00091356      -0.00206408       0.00868827 
O       2.87799216       0.53968511      -0.65332554        8      -0.01809378      -0.01472090      -0.03198751 
H      -2.13123035      -0.08361567      -0.30879015        1       0.00147335       0.00552669      -0.00404933 
H       0.92460188      -1.97339282      -1.31769412        1       0.00332485      -0.00492711       0.00406692 
H       0.12013037      -0.23270781       0.46118354        1       0.00061311      -0.00255886       0.00316709 
H      -0.00180642       0.88382105      -0.88564625        1       0.00880382      -0.00037949      -0.00993911 
H      -1.09873496      -2.86415628      -1.01935471        1       0.01740277       0.01632589      -0.01385830 
H      -2.68130301      -2.43230546      -0.39917051        1      -0.01188487      -0.01631720      -0.00209977 
H      -1.25661814      -2.26508383       0.63136652        1      -0.01913482       0.02022749       0.00563303 
H      -2.94041076      -0.84298304      -2.46381061        1       0.00011277      -0.01949760      -0.00460762 
H      -1.70965984       0.39594780      -2.74565635        1      -0.01220780       0.01396001      -0.01240100 
H      -1.30845167      -1.29524379      -2.98169242        1      -0.00708545       0.00495637      -0.00436856 
O       2.81569237      -1.49357546       0.26781742        8       0.01744509      -0.00829746       0.01048846 
H       1.94304852      -0.97415886      -3.20027188        1       0.00961176       0.02011683       0.00342476 
H       1.45029555       0.52139119      -2.75865786        1       0.01173662       0.00448462       0.01407437 
H       3.63240759       0.60963716      -0.05514331        1       0.01867979       0.00934925      -0.00398182 
