22
Properties=species:S:1:pos:R:3:Z:I:1:forces:R:3 magmom=0 energy=-12017.9743504 dipole="0.5609639 -0.1331215 -0.0728921" pbc="F F F"
C       1.01696029       0.75832444      -1.79636661        6       0.00786295       0.00260155       0.00364644 
C      -0.21600438      -1.47190792      -1.29235316        6      -0.02405190      -0.00834657       0.02780232 
C      -0.21100660       0.05800454      -1.21248225        6       0.00538883       0.00302573      -0.00446513 
C       2.30989517       0.29274460      -1.12979689        6       0.00438841       0.00974793       0.00371278 
C       0.85471411       2.27055633      -1.65163257        6       0.01345916      -0.00301812       0.02938895 
C      -0.01875033      -1.88162046      -2.74328391        6       0.01063501       0.02066776       0.04102103 
N      -1.46952276      -1.96983293      -0.75021320        7      -0.00713296      -0.00011452       0.00232032 
O       1.22940995      -2.30836950      -3.00492010        8       0.00168798       0.03201985       0.01786860 
H       1.07799537       0.52699412      -2.86557242        1      -0.01279314      -0.01439355       0.00545413 
H       0.60303237      -1.88075210      -0.70170689        1       0.01354766       0.00854321      -0.01775275 
H      -1.10752915       0.41287760      -1.72932336        1      -0.00885061       0.00765268       0.00951370 
H      -0.32096005       0.32226067      -0.15752573        1       0.00217680      -0.00864724      -0.01415176 
H       2.28074678       0.50727310      -0.05883407        1      -0.01288714      -0.01647959       0.01343473 
H       3.16969628       0.81540142      -1.54821764        1       0.01135554       0.02844227      -0.00415855 
H       2.47909534      -0.77527947      -1.26257795        1      -0.00439108       0.01528763      -0.00846011 
H       1.70567207       2.80297150      -2.07846368        1      -0.03209678      -0.01732286      -0.02658140 
H      -0.05583761       2.62599878      -2.13628428        1       0.03711218      -0.01763988      -0.02238187 
H       0.79435416       2.54132336      -0.59539499        1      -0.00054194      -0.00632265       0.02032473 
O      -0.87378174      -1.82225242      -3.58176743        8      -0.00530295      -0.01988070      -0.04515639 
H      -1.47051481      -2.98167076      -0.71850814        1      -0.02116579      -0.00407834       0.00758465 
H      -2.23445678      -1.69189343      -1.35628491        1       0.01879183       0.00028544       0.00693108 
H       1.27615122      -2.51614231      -3.94703263        1       0.00280790      -0.01203004      -0.04589553 
