22
Properties=species:S:1:pos:R:3:Z:I:1:forces:R:3 magmom=0 energy=-12017.9743504 dipole="0.5027833 -0.0117047 0.2911836" pbc="F F F"
C       1.49033482      -0.09665384      -1.56522549        6       0.00592680       0.00612087       0.00305473 
C      -0.23864319      -1.38149097      -0.11333203        6      -0.03464711       0.01028030       0.01074500 
C       0.02242401      -0.36920930      -1.23322766        6       0.00723015      -0.00025917      -0.00239020 
C       2.26679336       0.40396409      -0.34897943        6       0.00417722       0.00983139      -0.00374671 
C       1.57241227       0.91581539      -2.70640324        6      -0.00104371       0.02319953       0.02268531 
C       0.47085793      -2.68084589      -0.46011536        6      -0.00396444       0.04601715       0.00946912 
N      -1.67317515      -1.56526457       0.03329361        7      -0.00732250       0.00007353      -0.00162396 
O       1.60676168      -2.86268864       0.23639614        8       0.00003461       0.03368557      -0.01456515 
H       1.95181855      -1.02917739      -1.90855168        1      -0.01637351      -0.00772159       0.00853555 
H       0.16052699      -1.00881969       0.82933300        1       0.02112562      -0.00497570      -0.01004216 
H      -0.48683052      -0.73742231      -2.12871176        1      -0.01040546       0.00991448      -0.00455276 
H      -0.47016197       0.56212541      -0.94197314        1       0.00626187      -0.01551142       0.00025480 
H       1.82964589       1.33450864       0.02091609        1      -0.02022121      -0.00305900       0.01413809 
H       3.30477987       0.60768799      -0.61086673        1       0.01721462       0.01710797      -0.01913004 
H       2.27013794      -0.32179032       0.46355011        1       0.00257830       0.00217387      -0.01769552 
H       2.60796113       1.11731095      -2.98356467        1      -0.02052342      -0.03791555      -0.01334943 
H       1.03724156       0.56896834      -3.59162679        1       0.03900014      -0.01944479       0.01704847 
H       1.12448651       1.86327897      -2.39936686        1      -0.01025927       0.01119710       0.01492448 
O       0.07805986      -3.46486082      -1.27784900        8       0.01058904      -0.04743295      -0.01000344 
H      -1.87946401      -2.17080440       0.81788800        1      -0.02273704      -0.00158982      -0.00161085 
H      -2.04271696      -2.01877226      -0.79584268        1       0.01378600       0.00959217       0.01091685 
H       2.00640398      -3.68839328      -0.06597544        1       0.01957330      -0.04128395      -0.01306223 
