22
Properties=species:S:1:pos:R:3:Z:I:1:forces:R:3 magmom=0 energy=-12017.8291777 dipole="0.1293866 -0.4647417 -0.0161543" pbc="F F F"
C       1.39387435       0.73192266      -0.59063355        6       0.02164869       0.01136829      -0.00372280 
C       0.24541188      -1.59916721      -0.59541619        6       0.01934699       0.02102952      -0.00842093 
C       0.15945164      -0.11780516      -0.25431816        6       0.03125541       0.02101296      -0.00063049 
C       1.72413203       0.68617379      -2.08142320        6       0.00690768      -0.00091881      -0.00646540 
C       2.63347178       0.41038932       0.24767458        6       0.00511922       0.01889293       0.00880228 
C      -1.14294707      -2.23054931      -0.56937373        6       0.01512657       0.00513619      -0.00990677 
N       1.19173094      -2.30152143       0.26657433        7      -0.03653543      -0.03073620       0.00328602 
O      -1.07445455      -3.54684505      -0.86170963        8      -0.02179375       0.00248950       0.00424247 
H       1.09874663       1.76061507      -0.36101754        1       0.02125948      -0.01204711       0.03206896 
H       0.59118657      -1.72425131      -1.62627531        1       0.00809173       0.01607603       0.00912891 
H      -0.70043493       0.29298186      -0.78640839        1       0.01755225      -0.00142377       0.01477988 
H      -0.07452135      -0.02044384       0.81087299        1       0.00290818      -0.02236083      -0.00382945 
H       2.08470121      -0.30009039      -2.37796328        1       0.02310471      -0.00792491       0.01488741 
H       2.51094188       1.40142110      -2.32265252        1      -0.01217407       0.00361729       0.00014455 
H       0.85011906       0.92527956      -2.69002814        1       0.00467519      -0.00379695      -0.00570497 
H       3.40128776       1.17175443       0.09485982        1      -0.04061171      -0.00645825      -0.01252647 
H       2.39722423       0.38242390       1.31373198        1      -0.00854439       0.01673089      -0.03289917 
H       3.05210585      -0.55900160      -0.01866565        1      -0.03802379       0.02493425      -0.00249685 
O      -2.18065975      -1.67962787      -0.33536730        8       0.02900667      -0.03946063       0.00590726 
H       1.18376452      -3.29685376       0.08265388        1      -0.01424268       0.00699489       0.00155495 
H       0.95281092      -2.16228718       1.24219183        1      -0.00470353      -0.00952558      -0.02970961 
H      -1.97357507      -3.89617968      -0.84472572        1      -0.02937342      -0.01362973       0.02151016 
