22
Properties=species:S:1:pos:R:3:Z:I:1:forces:R:3 magmom=0 energy=-12017.9743504 dipole="-0.355054 0.4359903 0.1468477" pbc="F F F"
C      -1.61515527      -0.20719866      -0.98339805        6      -0.00486571       0.00229687       0.00727324 
C       0.63527836       0.87626994      -1.69740895        6       0.03511022      -0.00816402       0.01103327 
C      -0.11145383      -0.36978610      -1.21081743        6      -0.00756727       0.00083067      -0.00064823 
C      -1.92324284       0.89579200       0.02717317        6      -0.00609454      -0.00553821       0.00774781 
C      -2.20445771      -1.53813014      -0.51921998        6       0.00739213       0.00915148       0.03026322 
C      -0.03595108       1.37839455      -2.96598910        6       0.00317125      -0.01221326       0.04544816 
N       2.03134144       0.53561505      -1.91676154        7       0.00615697      -0.00413701      -0.00117901 
O      -0.81013186       2.45852135      -2.75997441        8      -0.00838889      -0.02576472       0.02478194 
H      -2.08798107       0.05650101      -1.93594119        1       0.01898184       0.00410770      -0.00483707 
H       0.58504692       1.66146052      -0.94389035        1      -0.02281613       0.00155094      -0.00695972 
H       0.05766951      -1.15865257      -1.94966704        1       0.00705485      -0.01171806       0.00635397 
H       0.37081682      -0.68809556      -0.28294477        1      -0.00433205       0.00882901      -0.01351763 
H      -1.46283276       0.66417579       0.99060960        1       0.02421491       0.00545475       0.00139765 
H      -2.99760057       0.98368255       0.18696706        1      -0.02453825      -0.01643280       0.00914171 
H      -1.56031233       1.86853922      -0.30294658        1      -0.00916424      -0.01467426      -0.00501802 
H      -3.28205792      -1.46299389      -0.36785098        1       0.01729982      -0.00348554      -0.04153710 
H      -2.00943530      -2.33678690      -1.23646794        1      -0.02798322       0.03669371      -0.00773666 
H      -1.75897835      -1.83307217       0.43322631        1       0.01405483       0.00408086       0.01545475 
O       0.09084496       0.86623637      -4.04268498        8      -0.00936375       0.01480066      -0.04645068 
H       2.56705417       1.35789986      -2.16511929        1       0.02054759      -0.00922162      -0.00387445 
H       2.10354371      -0.11105970      -2.69541236        1      -0.00951272       0.01040988       0.01426088 
H      -1.21989353       2.69000892      -3.60344241        1      -0.01935763       0.01314297      -0.04139811 
