22
Properties=species:S:1:pos:R:3:Z:I:1:forces:R:3 magmom=0 energy=-12017.9367688 dipole="-0.1759402 0.1479719 0.4435165" pbc="F F F"
C      -1.23829189      -1.00341345      -0.74744516        6      -0.00300109      -0.00105477      -0.00145478 
C       0.03757285       0.97324492       0.30095130        6      -0.04427281       0.00672025       0.00471916 
C       0.04421865      -0.16758182      -0.70570500        6      -0.03400058      -0.00070171       0.01293049 
C      -1.60736761      -1.55607789       0.62995021        6       0.02725370       0.00219583      -0.02875147 
C      -1.06583158      -2.13227961      -1.76101171        6      -0.00376528       0.00304650       0.01966771 
C      -1.12435294       1.92000404       0.03876157        6      -0.00158930       0.03927869      -0.00773167 
N       1.29652613       1.71147284       0.23503731        7       0.00116625      -0.01301513      -0.00990816 
O      -1.66832202       2.38388487       1.18107926        8       0.00346698      -0.00895603      -0.03278434 
H      -2.05464199      -0.36161767      -1.09330132        1       0.02156724       0.00014588       0.00904931 
H      -0.06170892       0.59357843       1.31652998        1       0.00142017      -0.04725040       0.00250595 
H       0.22593903       0.25001104      -1.70047222        1       0.02160786       0.01275072       0.03498403 
H       0.89272065      -0.81226704      -0.45975637        1      -0.00461724       0.03069357      -0.00849554 
H      -0.76755067      -2.11317626       1.05342568        1      -0.00725488      -0.01151052       0.00083545 
H      -2.45873968      -2.23505141       0.56092752        1       0.02183854       0.02953550      -0.00882043 
H      -1.87255946      -0.76401187       1.33232796        1       0.00016902      -0.01863819      -0.01350359 
H      -1.97175694      -2.73392095      -1.83926387        1       0.01111971       0.00859530      -0.01786166 
H      -0.82610541      -1.73856783      -2.74982786        1      -0.03161408      -0.00641701       0.01273298 
H      -0.24859363      -2.79181376      -1.46098909        1      -0.00650937      -0.01726013       0.02704950 
O      -1.48655761       2.28701879      -1.04463953        8       0.00687662      -0.02079390       0.03915024 
H       1.33054906       2.43477528       0.94280017        1       0.02393954       0.01108084      -0.01210671 
H       1.39423303       2.15543312      -0.67082075        1       0.00586186       0.00895181      -0.01174645 
H      -2.34428480       3.03162172       0.94201767        1      -0.00966287      -0.00739727      -0.01045997 
