22
Properties=species:S:1:pos:R:3:Z:I:1:forces:R:3 magmom=0 energy=-12017.9026947 dipole="0.1365787 0.2730457 -0.3662764" pbc="F F F"
C      -0.89915437       0.95444406      -0.20570593        6      -0.00271858      -0.00059475      -0.01325322 
C       0.34695368       0.03518763      -2.23020611        6       0.00282893      -0.01087566      -0.01509731 
C      -0.14987700      -0.23175164      -0.82088815        6      -0.01849035      -0.00758625      -0.02498855 
C       0.06968135       1.98516786       0.36767716        6       0.01326448      -0.00507423       0.00857581 
C      -1.88311869       0.47204869       0.85551283        6       0.01528547       0.00869264      -0.00350992 
C      -0.83248454       0.23447418      -3.17171913        6       0.01075169      -0.02104962      -0.02453357 
N       1.15574273      -1.08584169      -2.70622129        7       0.02994029       0.00868796       0.00716320 
O      -0.50526224       1.01636179      -4.21786136        8       0.00280430       0.02741768      -0.00348467 
H      -1.47947003       1.43312401      -1.00015975        1      -0.04126179       0.01897870       0.01326129 
H       0.96383983       0.93477600      -2.27179105        1       0.00646334      -0.02855858       0.03893144 
H      -0.81394478      -1.09754050      -0.86907186        1      -0.00459914      -0.03135687       0.01242136 
H       0.70645145      -0.50622949      -0.20060369        1      -0.01418766       0.00478544      -0.00545223 
H       0.62602019       1.55730397       1.20343132        1      -0.00439006      -0.02592983       0.03306917 
H      -0.46109257       2.86335638       0.73452215        1      -0.00986018       0.01800482       0.00113550 
H       0.79780804       2.31925011      -0.37186415        1      -0.00982840       0.01565802      -0.03341442 
H      -2.44139160       1.30470540       1.28627151        1       0.04056779      -0.01871989       0.01792620 
H      -2.59771893      -0.22884706       0.42133507        1       0.01387367       0.01820089       0.03968997 
H      -1.35063848      -0.03731693       1.66362146        1      -0.03472800       0.01331950      -0.01766502 
O      -1.90735282      -0.28806752      -3.06949260        8      -0.00215839       0.01680555       0.00844422 
H       1.47038823      -0.93204023      -3.65608184        1       0.03225161      -0.00521065      -0.00799006 
H       0.60877910      -1.93957798      -2.69522800        1      -0.00506672       0.01118224      -0.00101615 
H      -1.26853971       1.04831093      -4.80835044        1      -0.02074227      -0.00677702      -0.03021309 
