22
Properties=species:S:1:pos:R:3:Z:I:1:forces:R:3 magmom=0 energy=-12017.9130296 dipole="-0.1554234 -0.5624582 0.1855461" pbc="F F F"
C       0.94222302       0.76539145      -0.02607379        6       0.01578184       0.01180383       0.03192405 
C      -1.10840079       0.47788091      -1.57141017        6      -0.02807511       0.00432917       0.00201976 
C       0.14539680      -0.15058680      -0.95856266        6       0.00339098      -0.00332737       0.00724686 
C       1.68833931       1.84558176      -0.80677187        6      -0.00571397       0.01519553       0.00375844 
C       1.92551806      -0.05107574       0.80988028        6       0.01746293      -0.01137780       0.00117191 
C      -2.11216081       0.77851057      -0.46986451        6      -0.01961094      -0.00023983       0.02657909 
N      -1.63874745      -0.40247869      -2.60288861        7       0.01637387      -0.00267508      -0.00828353 
O      -2.67035372      -0.35121101       0.01297673        8      -0.01545938      -0.03245972       0.02093074 
H       0.24750334       1.25844153       0.66083990        1      -0.03151268       0.00788218       0.00556988 
H      -0.86220113       1.43751504      -2.02301820        1      -0.01106819       0.00885334      -0.02071944 
H      -0.16297335      -1.05043827      -0.41934674        1       0.01780602      -0.03422180      -0.00343577 
H       0.77535913      -0.47238719      -1.79107962        1       0.02764311      -0.01281428       0.01243874 
H       2.41974535       1.38646381      -1.47642836        1      -0.01572775       0.00763710      -0.00080702 
H       2.22526050       2.51172521      -0.13099092        1       0.00011164      -0.00867747      -0.00042706 
H       1.01811284       2.45997284      -1.40713911        1      -0.01416133      -0.00687786      -0.00117865 
H       2.51573330       0.59845537       1.45785064        1      -0.01504178      -0.01942170      -0.00664538 
H       1.41072103      -0.77996899       1.43670969        1      -0.01333019       0.01028087      -0.00813482 
H       2.61923137      -0.59677651       0.16627885        1      -0.00420884       0.01194529      -0.02898868 
O      -2.39750174       1.86464194      -0.05063346        8       0.03620350       0.01168279      -0.01779934 
H      -2.46569607      -0.00916369      -3.03550890        1       0.01855617      -0.00274203       0.00920177 
H      -1.90451961      -1.29155684      -2.19544108        1      -0.00153716       0.00049139      -0.02308995 
H      -3.29457840      -0.10416491       0.70637904        1       0.02211720       0.04473344      -0.00133178 
