22
Properties=species:S:1:pos:R:3:Z:I:1:forces:R:3 magmom=0 energy=-12017.8345519 dipole="0.1969564 -0.1509684 -0.4363441" pbc="F F F"
C       1.27027415       0.35182579      -0.06767491        6      -0.01251942      -0.00109107      -0.00893428 
C       0.20403403      -1.45137151      -1.61094562        6      -0.00892641       0.00337977      -0.01538461 
C       0.01803344      -0.18303490      -0.78320378        6      -0.02826023      -0.00250235      -0.01351989 
C       2.53141019       0.22947200      -0.91841824        6       0.02767217      -0.00281227      -0.00851899 
C       1.47946120      -0.28511167       1.30420475        6       0.00493616      -0.00613301       0.01353676 
C      -1.09673950      -1.76338386      -2.33456848        6      -0.01746371      -0.00591482       0.00271061 
N       0.60548295      -2.59522936      -0.79277398        7      -0.01304835       0.01878381      -0.01235569 
O      -0.90577998      -2.07583386      -3.62971947        8      -0.03625127      -0.02471350       0.00085104 
H       1.08559318       1.41704105       0.09561493        1       0.00029897       0.00802416       0.00994852 
H       0.97421894      -1.29414604      -2.36500709        1       0.01264345      -0.02042721       0.00035821 
H      -0.35985757       0.58789460      -1.46008664        1       0.02453105      -0.00611964      -0.03254775 
H      -0.78166047      -0.36036757      -0.05988337        1      -0.00879338      -0.00250559       0.01120842 
H       2.83007933      -0.81486578      -1.01713808        1      -0.01546159      -0.03866981       0.00050882 
H       3.35656023       0.76408643      -0.44998921        1       0.02875414       0.01940113       0.01509880 
H       2.39321989       0.64121102      -1.91963133        1      -0.02394417       0.02541268      -0.00316498 
H       2.33699621       0.16330740       1.80789091        1      -0.00128406       0.00410651       0.00475304 
H       0.60302758      -0.13430879       1.93651933        1       0.01251639      -0.03670111       0.01149463 
H       1.66052796      -1.35464625       1.20739174        1       0.00160447       0.00882588       0.01135548 
O      -2.18019933      -1.79021375      -1.82013535        8       0.00494408      -0.00920080       0.01036021 
H       0.75513259      -3.41402609      -1.37117973        1       0.02048357       0.01394155       0.02060611 
H      -0.12999882      -2.82288443      -0.13129822        1       0.00850722       0.03973820       0.00474281 
H      -1.76881492      -2.31255094      -3.99572748        1       0.01906087       0.01517743      -0.02310723 
