22
Properties=species:S:1:pos:R:3:Z:I:1:forces:R:3 magmom=0 energy=-12017.4630757 dipole="-0.2465804 -0.5159002 0.2988798" pbc="F F F"
C       0.51886943      -0.94179258       0.45987435        6      -0.00298140       0.01715949       0.01068319 
C       0.92165592      -0.00038243      -2.00549394        6       0.00431873      -0.00443495      -0.00978140 
C       0.08770764      -0.02705477      -0.70191957        6       0.02512780      -0.02132000      -0.01339072 
C       1.73460296      -0.39826554       1.21465033        6      -0.00551944      -0.00192617       0.00143524 
C       0.68151806      -2.43121951       0.08239149        6       0.00663679       0.02869336       0.01078105 
C       0.22830607      -0.64042500      -3.20141200        6      -0.02962220       0.03019925      -0.00439237 
N       2.27098462      -0.55766053      -1.88570149        7       0.00336501      -0.00218647       0.01939959 
O      -0.45113561      -1.76598444      -2.90394489        8       0.02047205       0.00205225       0.00277365 
H      -0.31565095      -0.88247408       1.16204621        1      -0.01158760       0.00574672       0.00698584 
H       1.05808761       1.03727207      -2.30632300        1      -0.03771341      -0.00768852      -0.01737978 
H       0.06145586       0.99293256      -0.31251088        1      -0.00787112      -0.03754058       0.00271555 
H      -0.94043510      -0.27786368      -0.97019287        1       0.02009826       0.01038248      -0.00169585 
H       2.62695494      -0.39187013       0.59160183        1      -0.02649229      -0.00988404      -0.01164345 
H       1.92921544      -1.00906658       2.09777159        1       0.00931886       0.00407900      -0.00727108 
H       1.54789732       0.62312767       1.55166772        1       0.02563066      -0.00710452      -0.00377232 
H       1.64889901      -2.81711972       0.40754585        1       0.00924379       0.02122626      -0.01309715 
H      -0.08469073      -3.03825444       0.56251318        1       0.01463976      -0.02985987      -0.00348462 
H       0.58715364      -2.60695812      -0.98695519        1      -0.02772621      -0.00431035       0.01386637 
O       0.32372182      -0.23390057      -4.32606233        8      -0.00117263      -0.00896785      -0.01971496 
H       2.77975869      -0.39480441      -2.74654401        1       0.02959993      -0.00861536       0.02869752 
H       2.25086733      -1.55670071      -1.72303504        1      -0.01502244      -0.00106073       0.02026045 
H      -0.78287448      -2.13344746      -3.73348600        1      -0.00274301       0.02536059      -0.01197476 
