22
Properties=species:S:1:pos:R:3:Z:I:1:forces:R:3 magmom=0 energy=-12017.9743504 dipole="-0.4078895 -0.2025782 0.3609762" pbc="F F F"
C      -1.40220852       0.68376613      -0.54377458        6      -0.00745949      -0.00507016      -0.00075200 
C       0.88349383      -0.12174712       0.39157558        6       0.02834066      -0.01746540      -0.01769834 
C       0.07624848       0.39182226      -0.80493517        6      -0.00671829       0.00286601       0.00216867 
C      -2.14391312      -0.54699830      -0.02622871        6      -0.00835115      -0.00108213      -0.00756496 
C      -2.05143528       1.19952745      -1.82697837        6      -0.00563082      -0.03103450      -0.00768595 
C       0.73853320       0.87002169       1.53497169        6      -0.01427950      -0.03074428      -0.03276630 
N       2.26992120      -0.29169400      -0.01102950        7       0.00633638       0.00071338      -0.00395024 
O      -0.11315239       0.45336479       2.48864934        8      -0.01600635      -0.00349624      -0.03284178 
H      -1.47612400       1.47356422       0.21200029        1       0.01909188      -0.00521749       0.00297400 
H       0.49724534      -1.08671587       0.71789660        1      -0.01829186       0.01307000       0.00815251 
H       0.56604032       1.30349181      -1.15958322        1       0.00462120      -0.00174223      -0.01424592 
H       0.17157855      -0.35482322      -1.59758085        1       0.00085032       0.00780680       0.01477161 
H      -2.08746422      -1.35680185      -0.75757365        1       0.02137266      -0.01269775       0.00036217 
H      -3.19760095      -0.32219164       0.13719780        1      -0.02518550       0.01002103      -0.01484200 
H      -1.73520178      -0.90626666       0.91760190        1      -0.00561920       0.01462161      -0.00889771 
H      -3.10407318       1.43850340      -1.67005739        1       0.03240948       0.02800837       0.01421584 
H      -1.54582711       2.08961827      -2.20437724        1      -0.02468403      -0.00196900       0.03970483 
H      -2.00083786       0.43542469      -2.60555582        1       0.00659308      -0.01933279      -0.00601391 
O       1.30695603       1.92442913       1.58768300        8       0.00883878       0.03249582       0.03644050 
H       2.81341773      -0.70347364       0.73721579        1       0.02089145       0.00010135      -0.00925350 
H       2.67849983       0.61583789      -0.20888458        1      -0.01490767      -0.01287706       0.00362361 
H      -0.17030454       1.15045749       3.15477697        1      -0.00221207       0.03302474       0.03409895 
