23
Properties=species:S:1:pos:R:3:Z:I:1:forces:R:3 magmom=0 energy=-15095.612445 dipole="0.4793907 -0.5561018 -0.610219" pbc="F F F"
C      -1.74246760      -0.58259652      -0.01241369        6      -0.00814284      -0.00399076      -0.00970036 
C      -0.84210896       0.05315436       1.03444860        6      -0.00615476      -0.00195394       0.00516602 
C      -0.26532644       1.38240573       0.61229840        6       0.00066252       0.00532810       0.01660773 
C      -0.20548937       2.42450411       1.53236006        6       0.02716952      -0.00233132       0.01677671 
C       0.20528302       1.61064904      -0.67916625        6      -0.01547192       0.02062637       0.00909826 
C      -2.87689357       0.36884304      -0.36476441        6       0.00090945       0.01225516      -0.01727206 
C       0.31710177       3.65953921       1.18220655        6       0.00245304       0.00287393      -0.00567931 
C       0.76846554       3.88146890      -0.11127271        6       0.00670487       0.00211813      -0.00200454 
C       0.70854624       2.85346179      -1.04090989        6       0.03112537      -0.00574189       0.01383598 
N      -2.35840296      -1.79252809       0.53000078        7       0.00705254      -0.04021339      -0.02474173 
O      -3.28421870       0.18225262      -1.63553929        8      -0.02390386      -0.01843260       0.00053998 
H      -1.17730815      -0.77149369      -0.92927113        1      -0.00337709      -0.02484498      -0.00505746 
H      -0.03910272      -0.65409921       1.26417647        1       0.00975811       0.01225532      -0.01404630 
H      -1.43166555       0.18408925       1.94171321        1       0.01191964       0.00932801       0.01573063 
O      -3.37686346       1.16606741       0.37110799        8       0.01707619      -0.01882433      -0.01475021 
H      -0.58075627       2.26346860       2.53505203        1      -0.00638415       0.00071343      -0.00023634 
H       0.36406347       4.45016504       1.91938894        1      -0.02137677       0.00846505      -0.02167157 
H       1.15909372       4.84979002      -0.39283683        1       0.01388123      -0.00371802      -0.00141195 
H       1.05740871       3.01451297      -2.05222060        1       0.00103137       0.00969856       0.00475999 
H       0.17623646       0.82177790      -1.42082681        1       0.00625915       0.01612843       0.02217787 
H      -2.79069896      -2.33933812      -0.20435767        1      -0.00469525       0.00186477       0.02254297 
H      -1.65800488      -2.37346455       0.97515901        1      -0.01909672       0.01634476      -0.03011652 
H      -4.01606679       0.79008044      -1.80147626        1      -0.02739958       0.00205123       0.01945209 
