23
Properties=species:S:1:pos:R:3:Z:I:1:forces:R:3 magmom=0 energy=-15095.6556077 dipole="0.6397202 -0.2433002 -0.4359804" pbc="F F F"
C      -1.72149177      -0.84509309       0.01522114        6      -0.01497961      -0.01997331      -0.01372923 
C      -0.51177627      -0.27063186       0.76135387        6       0.02084748      -0.02777023      -0.03306290 
C      -0.79553168       0.41087318       2.07566343        6      -0.00532265       0.00473273      -0.01441592 
C       0.08615025       0.22845503       3.13592046        6       0.00833953       0.02385192      -0.01320061 
C      -1.89151692       1.24868065       2.26232307        6      -0.02194545      -0.01108356       0.02922044 
C      -2.59888384       0.19632607      -0.64809923        6      -0.01161403       0.02861083       0.00483115 
C      -0.11012627       0.87022632       4.34981726        6       0.00865387      -0.01070782       0.01890753 
C      -1.20343649       1.70333532       4.52516855        6       0.01094154      -0.00076547       0.00616803 
C      -2.09337338       1.88807402       3.47576744        6      -0.00024102       0.02320066       0.01973733 
N      -2.55178063      -1.65701579       0.87692850        7      -0.01258689      -0.01531812       0.00550915 
O      -1.88929553       1.20146888      -1.18715573        8      -0.01331076       0.02442913      -0.01841301 
H      -1.30383548      -1.39709516      -0.84281082        1      -0.03241961       0.01416519      -0.02312615 
H       0.00566015       0.41521413       0.08926052        1       0.02614457       0.01258133      -0.00294206 
H       0.17724899      -1.09603556       0.94402463        1       0.01539242      -0.03471792       0.01527755 
O      -3.79174443       0.12306145      -0.74250815        8       0.01657791       0.01009132       0.01790522 
H       0.94260780      -0.42404830       3.01052417        1      -0.02201836      -0.00204593      -0.01558330 
H       0.59062115       0.71151929       5.15743832        1       0.00775383       0.00612396       0.03683620 
H      -1.36145698       2.19722373       5.47406926        1      -0.02494263       0.02144372      -0.01455733 
H      -2.95302694       2.53141928       3.60256752        1      -0.02501951       0.00579192       0.01023690 
H      -2.61578852       1.39804903       1.47179204        1       0.03465477      -0.01343921       0.00667844 
H      -3.44568645      -1.85494078       0.44658589        1       0.02232237       0.00678113      -0.00372753 
H      -2.09542108      -2.52256243       1.12546652        1       0.00669284      -0.02020481      -0.00104366 
H      -2.51415650       1.79795921      -1.61924384        1       0.00607943      -0.02577752      -0.01750618 
