23
Properties=species:S:1:pos:R:3:Z:I:1:forces:R:3 magmom=0 energy=-15095.8038173 dipole="0.7436467 -0.0779944 -0.0205138" pbc="F F F"
C      -1.58184933      -0.54385422       0.18309329        6       0.00021361       0.00465185       0.00494691 
C      -1.04808074       0.54616708       1.13159575        6       0.00259651      -0.00851436       0.00170701 
C      -0.50685592      -0.06819891       2.39499526        6       0.00137477      -0.01410878      -0.00279458 
C       0.78107689      -0.59700759       2.42379086        6       0.02796317      -0.00784300      -0.00012033 
C      -1.29671206      -0.17739823       3.53622889        6       0.00524227       0.03222456       0.00437520 
C      -2.16827247       0.06115324      -1.07338781        6      -0.02226853       0.01246466      -0.01762872 
C       1.26834346      -1.22639860       3.56013825        6      -0.02102803      -0.00430758       0.00140279 
C       0.46802156      -1.33590327       4.68988017        6       0.01391713       0.01628681       0.01516498 
C      -0.81374691      -0.80338344       4.67751777        6      -0.01356365      -0.02777851      -0.02485527 
N      -2.60387063      -1.33654085       0.83073083        7      -0.01800821       0.01948963       0.01718109 
O      -1.35756755       0.98341608      -1.61933192        8       0.02135101       0.01802878      -0.01286477 
H      -0.71635890      -1.13017617      -0.16140377        1       0.00488911      -0.01629344      -0.00445269 
H      -1.86850185       1.22549736       1.36507633        1      -0.00340342       0.00829299       0.00780330 
H      -0.26999148       1.10959380       0.61569010        1      -0.02645604      -0.00442801       0.03871603 
O      -3.21668856      -0.24798677      -1.56409631        8       0.00857139      -0.01420349       0.00331127 
H       1.41045381      -0.50766701       1.54610462        1       0.00944593      -0.00564727      -0.01675429 
H       2.27231226      -1.62962046       3.56430704        1      -0.00640035       0.00629627       0.00487851 
H       0.84464217      -1.82729258       5.57672313        1      -0.00141987       0.00491096      -0.00190879 
H      -1.44517983      -0.88166751       5.55336546        1       0.03497086       0.00470795      -0.00894549 
H      -2.29819992       0.23213262       3.52513612        1      -0.02838735      -0.02053041      -0.01384405 
H      -3.17948004      -1.81593813       0.15105864        1       0.01575104      -0.00136659       0.00126977 
H      -2.20007122      -2.00380477       1.47307663        1      -0.01011431       0.00274712       0.00087042 
H      -1.78500582       1.30158788      -2.42470395        1       0.00476287      -0.00508009       0.00254174 
