23
Properties=species:S:1:pos:R:3:Z:I:1:forces:R:3 magmom=0 energy=-15095.6262739 dipole="0.1692646 -0.8552914 -0.267629" pbc="F F F"
C      -1.65219346      -0.68304312      -0.00617453        6      -0.01791972       0.01781821      -0.00660902 
C      -0.67001033      -0.02289747       0.95129730        6       0.00712144      -0.00947673      -0.01710771 
C       0.32709723       0.88770146       0.27407370        6      -0.01332582       0.01171256      -0.01287897 
C       0.60905796       2.13698284       0.81801696        6      -0.01600203       0.00962534       0.00157737 
C       0.96330843       0.52463964      -0.91055474        6       0.02199229      -0.00599787       0.01195902 
C      -2.40314201       0.37610852      -0.79452754        6      -0.01734358       0.02910396      -0.00780767 
C       1.50803470       2.99774496       0.20717008        6       0.01379119      -0.02128159      -0.01756341 
C       2.13349046       2.62512295      -0.97490264        6      -0.01211967       0.00657971      -0.02694557 
C       1.85172856       1.38830010      -1.53681353        6       0.01898996      -0.00619086       0.02836477 
N      -2.66182261      -1.42937109       0.74570429        7      -0.01161948       0.00626028      -0.00335133 
O      -3.01051807      -0.16005715      -1.87049284        8      -0.02277833      -0.03278635       0.01244095 
H      -1.11832986      -1.31017477      -0.72795354        1       0.00047751       0.01147154       0.01605531 
H      -0.14898419      -0.81878198       1.49107827        1       0.02928338       0.00604867       0.01630907 
H      -1.24639837       0.54576531       1.68219307        1       0.02357789      -0.00735814      -0.01070361 
O      -2.49015727       1.53359668      -0.51167213        8      -0.03456257       0.01791555       0.02155978 
H       0.09881756       2.44615818       1.72083950        1      -0.00693920      -0.00092488       0.01906802 
H       1.70746566       3.96675652       0.64625206        1       0.00696188      -0.02544606      -0.01061048 
H       2.82630383       3.29839515      -1.46025139        1       0.00409484       0.00835902      -0.00781801 
H       2.31817268       1.09279676      -2.46800894        1       0.02085797       0.00560619       0.04285155 
H       0.76607740      -0.43915432      -1.36147637        1      -0.00306105      -0.01892939      -0.00172660 
H      -3.19195138      -2.04285167       0.13999430        1       0.00153032       0.02383274      -0.00728306 
H      -2.22527787      -1.99685381       1.46040715        1       0.02868678      -0.01838406      -0.01571787 
H      -3.50742046       0.54836754      -2.29909296        1      -0.02169404      -0.00755771      -0.02406239 
