23
Properties=species:S:1:pos:R:3:Z:I:1:forces:R:3 magmom=0 energy=-15095.5805288 dipole="-0.3307594 -0.6625922 0.0461554" pbc="F F F"
C      -1.70619140      -0.68491094       0.08403365        6      -0.00986455       0.00735382      -0.01447012 
C      -0.61350731      -0.05149923       0.96232912        6      -0.00321470       0.01550576      -0.00176445 
C       0.60636594       0.47378341       0.24817161        6       0.01537885       0.00678746       0.00420041 
C       1.05886590       1.76805313       0.48409648        6       0.00932909       0.00154508      -0.00767315 
C       1.34034890      -0.33690171      -0.61441854        6       0.01196982       0.00231836       0.00837547 
C      -2.35367460       0.37484359      -0.78878295        6      -0.01619924       0.04377036       0.01696321 
C       2.21682756       2.24107812      -0.12020666        6       0.01362947      -0.01840663      -0.00032607 
C       2.93216171       1.42779668      -0.98648927        6       0.00614437      -0.01310147       0.01590150 
C       2.48622934       0.13594088      -1.23541384        6      -0.00062941      -0.00048347       0.01323424 
N      -2.68046125      -1.33804705       0.94496454        7       0.00637227       0.02551877      -0.01281741 
O      -3.69571859       0.39522268      -0.69937275        8      -0.01829659      -0.03347037      -0.01628511 
H      -1.22915244      -1.36572744      -0.63141904        1       0.01586227      -0.01195738      -0.02291408 
H      -0.30674612      -0.82323115       1.67397075        1      -0.00609783       0.00343695      -0.00629653 
H      -1.07826941       0.74213891       1.54741479        1       0.01649188      -0.00227759       0.04614097 
O      -1.74903617       1.11373785      -1.51111825        8       0.02971517      -0.01024950       0.01990944 
H       0.50343633       2.41491121       1.15324344        1      -0.00738040      -0.03135034      -0.02046855 
H       2.56380226       3.24460141       0.09148416        1      -0.03525965      -0.01747744      -0.02964492 
H       3.83630312       1.79154967      -1.45683994        1      -0.03503889       0.00312050      -0.00596342 
H       3.03626168      -0.50794649      -1.90938278        1      -0.00029043       0.00616587       0.02017961 
H       1.01983606      -1.35467829      -0.80186668        1      -0.01479649       0.00031028      -0.00658069 
H      -3.51935738      -1.58801615       0.43954549        1       0.00320010      -0.01047930       0.01059464 
H      -2.29082652      -2.17554166       1.35666323        1       0.01938303       0.01936272      -0.01181844 
H      -4.00804228       1.07395176      -1.31121439        1      -0.00040809       0.01405761       0.00152338 
