23
Properties=species:S:1:pos:R:3:Z:I:1:forces:R:3 magmom=0 energy=-15095.7481537 dipole="-0.0860488 -0.7205217 0.0310454" pbc="F F F"
C      -1.61281028      -0.59592261       0.14828414        6      -0.01625092      -0.00674632       0.00294602 
C      -0.91461971       0.30759474       1.17885255        6       0.00345500      -0.01470933       0.00729006 
C       0.01105771      -0.49346220       2.05360132        6       0.01938833       0.01832497       0.01780098 
C       1.34417555      -0.66709577       1.68874038        6       0.00238856      -0.01400866      -0.02200726 
C      -0.45048248      -1.12290350       3.20689077        6      -0.01212733      -0.01523836      -0.00576241 
C      -2.27130303       0.27167419      -0.90580748        6      -0.00313232       0.01145920       0.01052661 
C       2.18999184      -1.46770944       2.44152344        6       0.00470887      -0.00379793       0.00602307 
C       1.71104976      -2.11189814       3.57392344        6      -0.00978341      -0.00900616       0.00340394 
C       0.39019962      -1.93238950       3.95907770        6      -0.00379310       0.00629956      -0.00569057 
N      -2.56455223      -1.47230851       0.80735678        7      -0.00680021       0.00956471      -0.01063743 
O      -3.54413953      -0.06242919      -1.16627934        8       0.01558778      -0.01651384      -0.02300320 
H      -0.82615618      -1.13268560      -0.40332901        1      -0.01429076       0.01454813       0.00260093 
H      -1.69037542       0.78797384       1.77764867        1       0.01417465       0.00827134      -0.01657719 
H      -0.36186151       1.07715557       0.64113828        1       0.00495395      -0.01874535       0.01195990 
O      -1.70359801       1.15353237      -1.48693551        8      -0.01373843       0.03238963       0.00564712 
H       1.72067940      -0.16636411       0.80500059        1       0.00103456      -0.00309761      -0.01746360 
H       3.22375353      -1.58819219       2.14543381        1      -0.01306156      -0.00846556      -0.00711594 
H       2.36309618      -2.75038364       4.15225909        1       0.03127835       0.00439787       0.03576564 
H       0.01187536      -2.42239854       4.84606874        1       0.00233636       0.00415192       0.00784012 
H      -1.47983354      -0.97871302       3.51082754        1      -0.02408383       0.00701155       0.00921113 
H      -3.12174585      -1.98900365       0.13990258        1       0.00697869       0.01295070      -0.00275622 
H      -2.07885501      -2.13551494       1.39641036        1       0.03872822      -0.02430701       0.00453527 
H      -3.85044342       0.52768129      -1.86672816        1      -0.02795139       0.00526660      -0.01453702 
