23
Properties=species:S:1:pos:R:3:Z:I:1:forces:R:3 magmom=0 energy=-15095.6124423 dipole="0.479422 -0.5560992 -0.6102163" pbc="F F F"
C      -1.74246925      -0.58259384      -0.01240952        6      -0.00819457      -0.00378857      -0.00974428 
C      -0.84211424       0.05315085       1.03445341        6      -0.00610956      -0.00182847       0.00518581 
C      -0.26533325       1.38240438       0.61230106        6       0.00070926       0.00537458       0.01668379 
C      -0.20549491       2.42450817       1.53235847        6       0.02718597      -0.00228782       0.01681553 
C       0.20528188       1.61064355      -0.67916222        6      -0.01551625       0.02053720       0.00914881 
C      -2.87689883       0.36885137      -0.36475462        6       0.00079817       0.01221413      -0.01718669 
C       0.31709278       3.65954514       1.18219814        6       0.00249767       0.00279366      -0.00567509 
C       0.76846443       3.88146642      -0.11128024        6       0.00670091       0.00205220      -0.00199194 
C       0.70855412       2.85345099      -1.04090852        6       0.03105358      -0.00578215       0.01382837 
N      -2.35839493      -1.79253480       0.52999373        7       0.00687894      -0.04045348      -0.02521790 
O      -3.28421146       0.18227159      -1.63553699        8      -0.02385079      -0.01843784       0.00066566 
H      -1.17730485      -0.77145938      -0.92926994        1      -0.00341905      -0.02497056      -0.00506836 
H      -0.03911141      -0.65410393       1.26418880        1       0.00977210       0.01227018      -0.01405941 
H      -1.43167611       0.18408999       1.94171039        1       0.01188611       0.00934036       0.01584139 
O      -3.37689032       1.16606257       0.37112147        8       0.01724506      -0.01899943      -0.01486735 
H      -0.58074759       2.26347947       2.53505874        1      -0.00640266       0.00069718      -0.00030879 
H       0.36406210       4.45017241       1.91937935        1      -0.02140685       0.00845209      -0.02168911 
H       1.15909770       4.84978173      -0.39285146        1       0.01389224      -0.00366367      -0.00140609 
H       1.05742276       3.01448568      -2.05221772        1       0.00106346       0.00975358       0.00470733 
H       0.17622880       0.82176375      -1.42081387        1       0.00630738       0.01618191       0.02214748 
H      -2.79067592      -2.33934661      -0.20438870        1      -0.00449424       0.00210609       0.02294525 
H      -1.65798397      -2.37346470       0.97514179        1      -0.01912906       0.01632440      -0.03012089 
H      -4.01607361       0.79008491      -1.80145491        1      -0.02746792       0.00211432       0.01936648 
