23
Properties=species:S:1:pos:R:3:Z:I:1:forces:R:3 magmom=0 energy=-15095.7218947 dipole="-0.1384766 -0.3786559 0.4596882" pbc="F F F"
C      -1.63059796      -0.61321688       0.19438495        6      -0.00095434      -0.01306511      -0.00531452 
C      -1.06352765       0.48070385       1.12165058        6      -0.00155115       0.01121490       0.00292052 
C      -0.46890065      -0.13030883       2.36098588        6       0.01194658       0.00924193       0.01056693 
C       0.82189869      -0.65295174       2.33119736        6      -0.00040526      -0.01718366       0.00439561 
C      -1.20961452      -0.24423052       3.53409457        6      -0.00480514      -0.00292391       0.00522530 
C      -2.11692833       0.07417251      -1.06287004        6      -0.03477669      -0.00493765       0.01258673 
C       1.35869764      -1.28287922       3.44401788        6      -0.01020867       0.00667546       0.00654176 
C       0.60705883      -1.40263675       4.60606067        6      -0.02248996      -0.00423024      -0.01496742 
C      -0.67738191      -0.87861196       4.64979476        6       0.01671320       0.00550478      -0.00411330 
N      -2.69840916      -1.32751818       0.86987971        7      -0.01502985      -0.00935527      -0.00825360 
O      -3.39540859       0.47010612      -0.99208011        8      -0.01610930      -0.01921499      -0.01528495 
H      -0.79758568      -1.24566849      -0.12879426        1       0.01895114      -0.00967779      -0.01174660 
H      -1.87648249       1.16159987       1.37629958        1      -0.00761196      -0.01719112       0.03076083 
H      -0.30464532       1.03972348       0.57243662        1       0.00931099      -0.01438018       0.00240933 
O      -1.42042021       0.28828642      -2.01548650        8       0.01925669       0.02161527      -0.00303030 
H       1.40806251      -0.56208477       1.42411103        1       0.01631041      -0.00372872       0.00551306 
H       2.36450808      -1.67827538       3.40477925        1       0.00543248      -0.01359250       0.00353696 
H       1.01980241      -1.90447983       5.47067206        1       0.00787051       0.02543803       0.00660830 
H      -1.26695120      -0.96297621       5.55332683        1       0.00490998       0.00356705      -0.01435966 
H      -2.21272064       0.16274263       3.56647924        1      -0.00578503      -0.00773789      -0.00091331 
H      -3.14323969      -1.99585399       0.25368925        1      -0.00120904       0.00878824       0.01989587 
H      -2.33093056      -1.83458713       1.66578528        1       0.01615630       0.02139245      -0.00195322 
H      -3.59402421       0.93001567      -1.81724827        1      -0.00592182       0.02378091      -0.03102432 
