23
Properties=species:S:1:pos:R:3:Z:I:1:forces:R:3 magmom=0 energy=-15095.6124396 dipole="0.4794343 -0.5560982 -0.6102151" pbc="F F F"
C      -1.74246974      -0.58259262      -0.01240804        6      -0.00821524      -0.00371272      -0.00976233 
C      -0.84211623       0.05314943       1.03445533        6      -0.00609238      -0.00177925       0.00519250 
C      -0.26533581       1.38240376       0.61230206        6       0.00072721       0.00539309       0.01671263 
C      -0.20549730       2.42450974       1.53235773        6       0.02719389      -0.00227193       0.01683070 
C       0.20528148       1.61064133      -0.67916071        6      -0.01553342       0.02050357       0.00916835 
C      -2.87690076       0.36885478      -0.36475071        6       0.00075513       0.01219701      -0.01715384 
C       0.31708910       3.65954743       1.18219486        6       0.00251423       0.00276239      -0.00567381 
C       0.76846401       3.88146543      -0.11128314        6       0.00669829       0.00202660      -0.00198649 
C       0.70855711       2.85344680      -1.04090801        6       0.03102766      -0.00579789       0.01382621 
N      -2.35839169      -1.79253735       0.52999074        7       0.00680571      -0.04054949      -0.02541294 
O      -3.28420909       0.18227896      -1.63553575        8      -0.02383079      -0.01844006       0.00071328 
H      -1.17730342      -0.77144580      -0.92926970        1      -0.00343623      -0.02501889      -0.00507052 
H      -0.03911487      -0.65410600       1.26419376        1       0.00977703       0.01227717      -0.01406455 
H      -1.43168040       0.18409039       1.94170921        1       0.01187423       0.00934457       0.01588366 
O      -3.37690035       1.16606091       0.37112693        8       0.01730959      -0.01906566      -0.01491163 
H      -0.58074456       2.26348358       2.53506115        1      -0.00641022       0.00069142      -0.00033640 
H       0.36406105       4.45017525       1.91937565        1      -0.02141781       0.00844726      -0.02169636 
H       1.15909940       4.84977849      -0.39285697        1       0.01389620      -0.00364310      -0.00140418 
H       1.05742833       3.01447516      -2.05221657        1       0.00107524       0.00977456       0.00468717 
H       0.17622590       0.82175821      -1.42080898        1       0.00632635       0.01620335       0.02213663 
H      -2.79066602      -2.33935043      -0.20440137        1      -0.00441314       0.00220601       0.02310774 
H      -1.65797573      -2.37346425       0.97513517        1      -0.01913811       0.01631350      -0.03011929 
H      -4.01607700       0.79008639      -1.80144599        1      -0.02749353       0.00213859       0.01933346 
