23
Properties=species:S:1:pos:R:3:Z:I:1:forces:R:3 magmom=0 energy=-15095.6220098 dipole="-0.3095616 -0.3793931 0.2733511" pbc="F F F"
C      -1.70248174      -0.77190339       0.19352771        6      -0.00713841      -0.00194381      -0.02008397 
C      -0.60852766      -0.34228454       1.19318794        6      -0.01742684      -0.01159362      -0.00178327 
C       0.74368421      -0.13804610       0.56568645        6      -0.01542852      -0.00528367       0.01536610 
C       1.26027321       1.13725788       0.37054511        6      -0.00842309       0.00006366       0.01036293 
C       1.49475637      -1.23326268       0.14780487        6       0.00646962       0.00170541       0.01551604 
C      -1.88119560       0.33674059      -0.82598685        6      -0.01387969      -0.01994806       0.02068941 
C       2.50138639       1.31773144      -0.22482203        6      -0.01338187      -0.00192545      -0.00083756 
C       3.23959265       0.21962867      -0.63864736        6       0.00065964      -0.00052569       0.00835228 
C       2.73219613      -1.05938794      -0.45031726        6      -0.00028647      -0.00175642      -0.00290437 
N      -2.92498704      -1.04286882       0.93216872        7       0.01295178       0.01885678      -0.01824090 
O      -2.83455696       1.22355766      -0.49822104        8      -0.00045894      -0.01355635       0.03980690 
H      -1.32409653      -1.62215720      -0.38277976        1       0.01253639       0.00865115      -0.02259259 
H      -0.55260740      -1.12974611       1.94828986        1       0.01362459      -0.01055710       0.01280775 
H      -0.95277454       0.55996712       1.69944967        1       0.01184692       0.01507350      -0.00498563 
O      -1.21281027       0.44125193      -1.81462878        8      -0.00462973      -0.02496660      -0.01763504 
H       0.68433498       1.99791600       0.68785349        1      -0.00711877       0.00962364       0.00638713 
H       2.89057804       2.31702578      -0.36488149        1      -0.00267138       0.00466522      -0.01036448 
H       4.20617540       0.35746459      -1.10286359        1       0.00748726       0.00025145      -0.00622490 
H       3.30289427      -1.92190794      -0.76595498        1       0.01115041      -0.00366526      -0.01161686 
H       1.10500132      -2.23355924       0.29654697        1       0.00606246      -0.01454458       0.00491590 
H      -3.70795960      -1.22633429       0.31809179        1       0.01246805       0.01462582      -0.00688320 
H      -2.80067260      -1.85251515       1.52687259        1       0.00193218       0.02454967      -0.00628481 
H      -2.83419932       1.89748683      -1.19015153        1      -0.00634564       0.01220025      -0.00376687 
