23
Properties=species:S:1:pos:R:3:Z:I:1:forces:R:3 magmom=0 energy=-15095.5806023 dipole="0.0992483 -0.8523534 -0.1963565" pbc="F F F"
C      -1.62696177      -0.63055838       0.04653862        6      -0.02264160      -0.00059927      -0.01080388 
C      -0.65895385       0.16052418       0.93483017        6      -0.01118584       0.00002628      -0.02098853 
C       0.72509836      -0.43918186       0.99791054        6       0.00674647      -0.01340717      -0.01152980 
C       1.85540290       0.34956736       0.80962775        6      -0.00023407       0.00336038      -0.01108233 
C       0.90556192      -1.80115104       1.23222510        6       0.00816932      -0.00533900       0.01921884 
C      -2.41369145       0.27179555      -0.88986303        6      -0.00320421       0.02517326      -0.02824552 
C       3.12961105      -0.20141138       0.86591851        6       0.00161095      -0.00603273       0.00341227 
C       3.29308849      -1.55732893       1.10540583        6       0.00880042      -0.00769665      -0.00416843 
C       2.17330221      -2.35911257       1.28356679        6       0.00735536       0.00298181       0.01538769 
N      -2.60616163      -1.36715324       0.84868306        7       0.00261918      -0.01464850      -0.00474847 
O      -3.27268410      -0.45816377      -1.62907853        8      -0.01787215       0.02072186       0.03069378 
H      -1.04300277      -1.28312561      -0.61861139        1      -0.01650294       0.00199137       0.01544390 
H      -1.09597885       0.20875422       1.93500198        1       0.00935614       0.00685616      -0.00196047 
H      -0.59983980       1.18537312       0.57321214        1       0.02015210      -0.00022667      -0.01619271 
O      -2.30530566       1.45658779      -1.01299034        8       0.01721863      -0.03436526       0.00954543 
H       1.73794989       1.40591504       0.60316654        1      -0.02025963       0.01050543       0.02356236 
H       3.99546139       0.42992899       0.71368118        1      -0.02035902      -0.00451460       0.00926091 
H       4.28388282      -1.98905694       1.14782709        1      -0.00799006       0.00558675      -0.00970854 
H       2.28557035      -3.42042797       1.46128820        1       0.01314245       0.01075755       0.00878032 
H       0.04283494      -2.44158511       1.37231583        1      -0.00985324      -0.01918881      -0.00569330 
H      -3.19902833      -1.94240370       0.26343884        1       0.02298242       0.00241473      -0.00548499 
H      -2.14280705      -1.96984502       1.51554654        1       0.01708534       0.00682103      -0.00018738 
H      -3.75768033       0.15035191      -2.20017639        1      -0.00513604       0.00882197      -0.00451110 
