23
Properties=species:S:1:pos:R:3:Z:I:1:forces:R:3 magmom=0 energy=-15095.7887122 dipole="0.6830577 -0.0558459 -0.3033647" pbc="F F F"
C      -1.53089663      -0.58483882       0.08818036        6      -0.01404691      -0.00834004      -0.02810555 
C      -0.79716742       0.27568161       1.13698824        6      -0.02842581      -0.00843584      -0.00253696 
C       0.17624506      -0.55349104       1.93255546        6       0.00565746       0.00572184       0.01432146 
C       1.52910126      -0.55553888       1.60402770        6      -0.01256411      -0.02764831      -0.03474898 
C      -0.25561175      -1.36661802       2.97933401        6       0.00418123      -0.03819266       0.00282590 
C      -2.37551653       0.27885175      -0.82483075        6      -0.01541634       0.01829258      -0.01689919 
C       2.42950195      -1.35851262       2.28996114        6       0.01237354       0.00947184      -0.01397657 
C       1.98576297      -2.18223351       3.31444767        6       0.00506847       0.01346980      -0.01314055 
C       0.64030052      -2.18125808       3.65879218        6       0.03767109       0.01967979       0.01115052 
N      -2.38880023      -1.56515655       0.72459314        7       0.01448241       0.00484504       0.00806457 
O      -1.65406059       1.25476301      -1.40312191        8       0.00180558       0.00304763       0.02570728 
H      -0.76880639      -1.02811137      -0.56935334        1      -0.00354982       0.00783060       0.02099836 
H      -1.55511394       0.71383213       1.78791348        1      -0.00016203      -0.02115452       0.02551296 
H      -0.27068025       1.08563685       0.63424418        1       0.01773131      -0.02091783      -0.01079935 
O      -3.54101237       0.11819401      -1.05262768        8       0.03392921      -0.02761087       0.01485306 
H       1.87920728       0.07868066       0.79857831        1       0.01195573       0.01478976       0.00016856 
H       3.47834533      -1.33640422       2.02490947        1      -0.00984928      -0.02174578      -0.00816711 
H       2.68587812      -2.81742167       3.84098528        1      -0.02820156       0.02201821       0.01476497 
H       0.29306796      -2.81363736       4.46480115        1      -0.03734420       0.00778371      -0.00030426 
H      -1.30450854      -1.36455186       3.24655077        1      -0.00186611       0.00610272       0.02484905 
H      -3.17037122      -1.79986452       0.12747138        1      -0.01390350      -0.00626506      -0.01375376 
H      -1.88381663      -2.40582811       0.96756552        1       0.02411021       0.03106566      -0.01733762 
H      -2.24811949       1.74264760      -1.98707675        1      -0.00363657       0.01619173      -0.00344682 
