23
Properties=species:S:1:pos:R:3:Z:I:1:forces:R:3 magmom=0 energy=-15095.6124423 dipole="0.4794051 -0.5561002 -0.6102179" pbc="F F F"
C      -1.74246863      -0.58259541      -0.01241164        6      -0.00816346      -0.00389723      -0.00971928 
C      -0.84211157       0.05315291       1.03445078        6      -0.00613316      -0.00189722       0.00517661 
C      -0.26532968       1.38240526       0.61229967        6       0.00068381       0.00534748       0.01664203 
C      -0.20549158       2.42450592       1.53235953        6       0.02717425      -0.00231075       0.01679434 
C       0.20528244       1.61064665      -0.67916431        6      -0.01549110       0.02058508       0.00912125 
C      -2.87689629       0.36884658      -0.36475998        6       0.00086003       0.01223789      -0.01723200 
C       0.31709782       3.65954186       1.18220276        6       0.00247453       0.00283912      -0.00567674 
C       0.76846489       3.88146778      -0.11127616        6       0.00670503       0.00208830      -0.00199991 
C       0.70855000       2.85345683      -1.04090921        6       0.03108870      -0.00575937       0.01383274 
N      -2.35839921      -1.79253139       0.52999751        7       0.00697957      -0.04031912      -0.02494454 
O      -3.28421520       0.18226107      -1.63553846        8      -0.02388031      -0.01843332       0.00059732 
H      -1.17730689      -0.77147811      -0.92927036        1      -0.00339499      -0.02490160      -0.00506435 
H      -0.03910662      -0.65410093       1.26418191        1       0.00976454       0.01226005      -0.01405247 
H      -1.43167011       0.18408962       1.94171222        1       0.01190292       0.00933377       0.01578025 
O      -3.37687619       1.16606498       0.37111397        8       0.01715332      -0.01890537      -0.01480513 
H      -0.58075194       2.26347354       2.53505533        1      -0.00639202       0.00070587      -0.00026971 
H       0.36406321       4.45016840       1.91938452        1      -0.02139107       0.00845934      -0.02167872 
H       1.15909510       4.84978629      -0.39284372        1       0.01388679      -0.00369231      -0.00140850 
H       1.05741496       3.01450052      -2.05221931        1       0.00104721       0.00972366       0.00473561 
H       0.17623301       0.82177159      -1.42082076        1       0.00628023       0.01615085       0.02216276 
H      -2.79068880      -2.33934168      -0.20437164        1      -0.00460726       0.00196638       0.02271878 
H      -1.65799537      -2.37346501       0.97515140        1      -0.01911620       0.01633941      -0.03012351 
H      -4.01606908       0.79008288      -1.80146727        1      -0.02743136       0.00207905       0.01941322 
