23
Properties=species:S:1:pos:R:3:Z:I:1:forces:R:3 magmom=0 energy=-15095.658503 dipole="0.5829165 -0.24123 -0.5096783" pbc="F F F"
C      -1.67044787      -0.77949501       0.00644495        6       0.00205647       0.01435802      -0.00328052 
C      -0.46280182      -0.24868292       0.79471592        6      -0.01831839      -0.00078748       0.01063707 
C      -0.76967203       0.41750763       2.11428299        6      -0.02053268       0.00434198       0.00793658 
C       0.10856710       0.25019872       3.18073324        6       0.00026220      -0.00184729      -0.00559729 
C      -1.89130082       1.21830055       2.30599690        6      -0.01358643       0.00971095       0.01201739 
C      -2.52099024       0.29786130      -0.63706722        6       0.01658773       0.02046650       0.01145195 
C      -0.11478371       0.87040603       4.40206327        6       0.00224349      -0.00036983      -0.00913400 
C      -1.23411674       1.66892182       4.57850874        6      -0.00559344       0.00429786      -0.00138716 
C      -2.12131377       1.83802204       3.52506847        6      -0.00955108       0.01474188       0.00733669 
N      -2.52171931      -1.61849400       0.82246153        7       0.01517465      -0.01026426      -0.00204110 
O      -1.78419365       1.26754920      -1.20204498        8       0.02135795      -0.02640199       0.02953776 
H      -1.24850049      -1.30173431      -0.86600554        1      -0.01372476      -0.01997285      -0.01760033 
H       0.09784969       0.43340986       0.15220966        1      -0.00315567      -0.00681430       0.00141447 
H       0.19260418      -1.09926754       0.98950440        1       0.00264104      -0.01517347      -0.02103795 
O      -3.71873128       0.27879041      -0.69733227        8      -0.00044331       0.00211946       0.01164499 
H       0.97800202      -0.38324775       3.05387814        1       0.02128128      -0.00074320      -0.00216651 
H       0.58192006       0.72401285       5.21617288        1       0.00961449      -0.00919545       0.00547835 
H      -1.41900851       2.14645818       5.53102592        1      -0.00163687       0.00986692      -0.00693319 
H      -3.00386641       2.44959795       3.65363970        1      -0.01423640       0.00671870       0.00544544 
H      -2.61600416       1.35170656       1.51461963        1      -0.00007281       0.00325337      -0.00222704 
H      -3.46228045      -1.65468900       0.45318495        1      -0.00077015      -0.00207596      -0.03151926 
H      -2.15715411      -2.55584648       0.90613136        1       0.01514035      -0.00246368       0.01304825 
H      -2.39449186       1.88504767      -1.62424101        1      -0.00473762       0.00623421      -0.01302454 
