23
Properties=species:S:1:pos:R:3:Z:I:1:forces:R:3 magmom=0 energy=-15095.7840863 dipole="0.16855 -0.7860646 -0.2458931" pbc="F F F"
C      -1.57545581      -0.52224702       0.09189521        6       0.00276980      -0.00080573       0.00359615 
C      -0.89425901       0.28427057       1.19867735        6      -0.00783616       0.00678627       0.00185613 
C       0.07236521      -0.56005182       1.98432502        6       0.00894518       0.01184039      -0.01031496 
C       1.35283887      -0.80059200       1.49051295        6       0.00141087      -0.00314143      -0.01325090 
C      -0.29412924      -1.13875708       3.19598870        6       0.00647532       0.00739187      -0.00336892 
C      -2.42163736       0.39205036      -0.77327607        6      -0.00050692       0.00382241      -0.00284343 
C       2.24780678      -1.59693036       2.18785062        6      -0.00300829      -0.00158642      -0.00196828 
C       1.87326646      -2.16439391       3.39886568        6       0.00091372      -0.00986805      -0.00236434 
C       0.60015472      -1.93459843       3.90046461        6       0.00736004       0.00937954       0.00198258 
N      -2.39272636      -1.58161354       0.66319388        7       0.00541881      -0.00097949       0.00305869 
O      -3.35882449      -0.28621038      -1.46058223        8       0.01095455       0.03475438      -0.00829407 
H      -0.79425913      -0.90088094      -0.58823500        1      -0.00007960       0.01399884       0.01309957 
H      -1.66921072       0.68113772       1.85504678        1      -0.01182008       0.01111025      -0.01940427 
H      -0.37795955       1.12874041       0.74423167        1      -0.00649780       0.00190668      -0.00631196 
O      -2.26331807       1.57323582      -0.89288090        8      -0.02232299      -0.03020054       0.00580113 
H       1.65235603      -0.34547980       0.55358488        1       0.00486401       0.00134896      -0.00967779 
H       3.23912896      -1.76862348       1.78909946        1      -0.00995089       0.00404131       0.02174038 
H       2.57379559      -2.77655834       3.94944686        1      -0.00390556      -0.01812479       0.01045318 
H       0.30199194      -2.36883240       4.84526173        1       0.00811451      -0.01350642       0.00131538 
H      -1.28638890      -0.95548305       3.59049244        1       0.00467401      -0.00684777      -0.00123783 
H      -2.87664995      -2.10041435      -0.05746230        1      -0.00879904       0.00821869      -0.00876520 
H      -1.80483994      -2.22754606       1.17520409        1       0.00367102      -0.01064524       0.01695638 
H      -3.83576577       0.35365476      -2.00506354        1       0.00915554      -0.01889365       0.00794250 
