23
Properties=species:S:1:pos:R:3:Z:I:1:forces:R:3 magmom=0 energy=-15095.6552594 dipole="0.6043688 -0.265358 -0.485243" pbc="F F F"
C      -1.69988289      -0.82479700       0.01537621        6      -0.01732168      -0.01420576       0.00376332 
C      -0.47635843      -0.25956314       0.75035754        6       0.01031491      -0.01861309      -0.01857926 
C      -0.76604808       0.40828547       2.07282130        6      -0.00873825      -0.01248944       0.00280677 
C       0.10523966       0.21608146       3.13882467        6       0.00727833      -0.01016542       0.00901347 
C      -1.87612298       1.22486374       2.26956683        6      -0.00576935       0.01247278      -0.00386925 
C      -2.57563869       0.23508521      -0.61936619        6      -0.03877579       0.01131023       0.00608770 
C      -0.11474667       0.82634100       4.36599490        6       0.00584108      -0.01070263       0.02478513 
C      -1.22038682       1.64205547       4.54766534        6       0.01245993       0.00246877      -0.01042608 
C      -2.10240262       1.83331791       3.49396803        6       0.01029064       0.03492936      -0.01126627 
N      -2.51579397      -1.63742067       0.89112210        7      -0.02218492      -0.01099733      -0.03543315 
O      -1.85591101       1.21157312      -1.19603021        8      -0.01296710       0.00952162      -0.03232756 
H      -1.31220214      -1.37207569      -0.86012167        1       0.01296700       0.02064077       0.02833294 
H       0.03841243       0.43219223       0.08218311        1       0.01009024       0.00811528      -0.00252056 
H       0.21267488      -1.08827663       0.92236687        1      -0.00813847      -0.01174547       0.02652684 
O      -3.77351014       0.19943178      -0.66240841        8       0.03882911       0.00208383      -0.00497930 
H       0.96648518      -0.42807725       3.00642131        1       0.00246713       0.00064005       0.01582339 
H       0.57132806       0.65120993       5.18249289        1       0.04042037       0.01795962       0.02019905 
H      -1.39743269       2.12312817       5.49970035        1      -0.00305221      -0.02510554       0.01577017 
H      -2.97603167       2.45568341       3.62730904        1      -0.02539186       0.02420092      -0.00348282 
H      -2.59193860       1.38370566       1.47531150        1      -0.01339303      -0.00782906      -0.00097121 
H      -3.43764704      -1.78968127       0.50367078        1       0.01961536       0.00542734      -0.02265769 
H      -2.07925372      -2.52553650       1.08975497        1       0.00364850      -0.02057777      -0.00247926 
H      -2.47411754       1.81863668      -1.62182128        1      -0.01848994      -0.00733911      -0.00411649 
