23
Properties=species:S:1:pos:R:3:Z:I:1:forces:R:3 magmom=0 energy=-15095.6902805 dipole="-0.0311336 -0.8330632 -0.3539085" pbc="F F F"
C      -1.70056617      -0.60218618       0.10019072        6      -0.00859489      -0.03124410       0.00910906 
C      -0.59109160      -0.08134135       1.00561061        6       0.00017725      -0.00683327      -0.00429657 
C       0.58100770       0.50547684       0.26087807        6       0.00921715       0.00154102       0.00818634 
C       0.96208548       1.82814313       0.45581966        6       0.00511696       0.01473998      -0.01404578 
C       1.32564845      -0.27838516      -0.61767457        6      -0.00655719      -0.01303750       0.00515229 
C      -2.44889830       0.53961563      -0.56415337        6       0.01953879       0.01265728       0.00460161 
C       2.06772539       2.35136919      -0.19980919        6      -0.00825828       0.01511099      -0.03499431 
C       2.79668748       1.56441605      -1.07867804        6      -0.00218971      -0.01101949      -0.01601875 
C       2.41822735       0.24633408      -1.29113835        6       0.00147766      -0.02062704       0.00722830 
N      -2.68258970      -1.34846201       0.88580222        7      -0.03074767      -0.02618453       0.01882351 
O      -3.36843043       0.06163304      -1.42665021        8       0.01399076       0.00904051       0.00580699 
H      -1.26485041      -1.20095943      -0.70886724        1       0.02902323       0.00973019      -0.02813003 
H      -0.24051313      -0.92272091       1.61048249        1      -0.01835660       0.00484710       0.00361919 
H      -1.01797652       0.65554990       1.68535452        1       0.00671531      -0.02141811       0.00562321 
O      -2.28624052       1.70733900      -0.36653467        8       0.00104613      -0.02869218      -0.00191609 
H       0.38234753       2.45332034       1.12233843        1      -0.01565488      -0.00591508       0.00276049 
H       2.35667520       3.37933952      -0.03265542        1      -0.01264391       0.03809604       0.02028143 
H       3.65376122       1.97195289      -1.59698763        1      -0.00079699       0.01896986       0.00662265 
H       2.97704541      -0.37515112      -1.97742848        1       0.01974119      -0.01158282       0.00652320 
H       1.05425594      -1.31668064      -0.76933499        1       0.00338882      -0.00698487      -0.01422633 
H      -3.38173170      -1.76588852       0.28420594        1      -0.01167476       0.03213540       0.00060370 
H      -2.22615857      -2.09698550       1.39170437        1       0.00338100       0.00732944      -0.00219403 
H      -3.84340707       0.81387916      -1.80146533        1       0.00266063       0.01934112       0.01088004 
