23
Properties=species:S:1:pos:R:3:Z:I:1:forces:R:3 magmom=0 energy=-15095.5927494 dipole="0.5444894 -0.5723627 -0.6332018" pbc="F F F"
C      -1.64672139      -0.63603683      -0.02855659        6       0.01594084       0.00196530      -0.01689858 
C      -0.69805931       0.02046368       0.97935935        6       0.01839234       0.01792738      -0.03333410 
C       0.11747555       1.14413832       0.38423889        6       0.01760537       0.00742206      -0.03519686 
C       0.18028554       2.37688019       1.02778775        6      -0.00169024      -0.00878777      -0.00517604 
C       0.80470157       0.99120432      -0.82033094        6       0.02042227       0.02303056      -0.02151119 
C      -2.53596675       0.44153241      -0.63517341        6       0.00504168       0.01359918       0.01407921 
C       0.90870754       3.42933038       0.49056169        6      -0.02306480      -0.01328957      -0.01144804 
C       1.57932317       3.26861745      -0.71297540        6       0.00900467      -0.01304557       0.02518627 
C       1.52573939       2.04471418      -1.36625698        6       0.01181715       0.01449460       0.00555070 
N      -2.48828311      -1.61455966       0.65172716        7      -0.00683816       0.02324560       0.00981421 
O      -2.42217360       0.47622203      -1.97646084        8      -0.01199672      -0.01655441      -0.00296700 
H      -1.07088057      -1.06659227      -0.85038880        1       0.02939830      -0.02679630      -0.02237148 
H      -0.03837874      -0.75424223       1.38239259        1      -0.02749507      -0.01192575      -0.02823467 
H      -1.30228255       0.39736578       1.80508732        1      -0.00515553      -0.01866868      -0.02953370 
O      -3.24553275       1.18189442      -0.02164285        8       0.01110362      -0.01624511       0.01918532 
H      -0.35401736       2.51166988       1.95959942        1      -0.01687266       0.01106371      -0.00327003 
H       0.94232187       4.37865175       1.00752665        1      -0.00234582       0.00376615       0.01349197 
H       2.13883541       4.09171242      -1.13767537        1      -0.00577336      -0.02279062      -0.00004494 
H       2.04594701       1.91395032      -2.30657861        1      -0.01667448      -0.02854115       0.02627956 
H       0.77444039       0.04650585      -1.35064923        1       0.00458937       0.02407139       0.03936277 
H      -3.15403735      -2.02618234       0.00978467        1      -0.01939522      -0.02645280       0.00609557 
H      -1.91860009      -2.37011302       1.01355465        1       0.00873671       0.04346121       0.02169821 
H      -2.97940925       1.19551081      -2.30093633        1      -0.01475016       0.01905059       0.02924291 
