23
Properties=species:S:1:pos:R:3:Z:I:1:forces:R:3 magmom=0 energy=-15095.6260453 dipole="0.391915 -0.1501183 0.4616308" pbc="F F F"
C      -1.67706335      -0.64591907      -0.03305936        6       0.00276255       0.00358556       0.00596069 
C      -0.73286443       0.00530069       0.97456952        6       0.01101214       0.01493307      -0.00111308 
C       0.02910004       1.18891357       0.42947418        6      -0.01254236       0.02618998      -0.02639299 
C       0.18617106       2.32517649       1.21757343        6      -0.01317145       0.00402234       0.01061387 
C       0.54863573       1.20338684      -0.86287903        6      -0.00184199       0.02454139      -0.01842869 
C      -2.56077180       0.36075756      -0.75277097        6      -0.00468964       0.00281752      -0.02691025 
C       0.83423559       3.45075301       0.73311563        6      -0.01136443      -0.00264582      -0.00249356 
C       1.33209153       3.46137957      -0.56264888        6       0.00364634      -0.00541480       0.00432876 
C       1.18958196       2.33286977      -1.35693188        6       0.01220683       0.00709542       0.00319753 
N      -2.58342941      -1.55864778       0.66101000        7      -0.00106176       0.00179813       0.00609408 
O      -2.93491799       1.38714559       0.01986829        8      -0.00211520      -0.01910967       0.00789015 
H      -1.10253352      -1.13689034      -0.82427241        1      -0.00453347      -0.00171976       0.01008073 
H      -0.03685643      -0.76107871       1.32881855        1      -0.00735809      -0.01964806      -0.01981200 
H      -1.32261450       0.32289096       1.83477669        1      -0.01232859      -0.00049211      -0.01113617 
O      -2.92195358       0.22741807      -1.88911222        8       0.00312651       0.01822470       0.01863248 
H      -0.22724574       2.32906060       2.21794046        1      -0.00007240       0.01946274       0.02139287 
H       0.93343659       4.32574205       1.36176119        1       0.01147540      -0.00580673      -0.00353568 
H       1.81809416       4.34624667      -0.95156330        1       0.01369874      -0.02372938       0.00285464 
H       1.56913127       2.33438125      -2.37017314        1       0.00230474      -0.01445706       0.01042300 
H       0.43929734       0.33867508      -1.50565250        1      -0.00007040       0.00033198       0.00808998 
H      -3.09966194      -2.12510274      -0.00066485        1       0.01751492      -0.01121325       0.01108387 
H      -2.06565765      -2.18017937       1.26900755        1       0.01192812      -0.01601581      -0.01204613 
H      -3.50384273       1.95930489      -0.51044055        1      -0.01852645      -0.00275046       0.00122590 
