23
Properties=species:S:1:pos:R:3:Z:I:1:forces:R:3 magmom=0 energy=-15095.7002426 dipole="-0.0867528 -0.8496713 -0.3215913" pbc="F F F"
C      -1.67718039      -0.65561869       0.16816225        6      -0.01330880      -0.03120651       0.00770143 
C      -0.58001413      -0.17010034       1.10818805        6      -0.00057027      -0.00033923       0.00403149 
C       0.69864718       0.18675815       0.39394200        6       0.01730682      -0.01458294       0.01445706 
C       1.18054274       1.49038067       0.36528686        6      -0.01184965       0.00222858      -0.03686829 
C       1.43299486      -0.80913729      -0.24680675        6      -0.00228859      -0.02469288       0.00630460 
C      -2.26426032       0.49476865      -0.62939230        6       0.01795751      -0.01153227      -0.02000036 
C       2.37121716       1.78840246      -0.28449286        6      -0.00940031      -0.00236783      -0.03576662 
C       3.08768477       0.78999344      -0.92742125        6       0.00285007      -0.01198618      -0.01678262 
C       2.61288800      -0.51417457      -0.91050743        6       0.00864276      -0.00457605       0.00193913 
N      -2.78032436      -1.24166240       0.92906773        7      -0.02620134      -0.02704035       0.00359137 
O      -3.13927556       0.03342721      -1.54532201        8       0.00261276       0.00106953       0.01652736 
H      -1.24803700      -1.35099115      -0.56384365        1       0.02207709      -0.01047226      -0.00904000 
H      -0.37640048      -0.97685547       1.81756605        1      -0.01050393       0.00876962       0.00666461 
H      -0.95840003       0.67919969       1.67480127        1       0.00298495       0.00200875       0.01546724 
O      -2.02388257       1.65683030      -0.48717025        8       0.02195254       0.00423579       0.00727087 
H       0.61174581       2.27731884       0.84315245        1      -0.01522931      -0.00639588       0.00572749 
H       2.73672070       2.80537523      -0.29997125        1      -0.00762959       0.04081704       0.01644848 
H       4.00955723       1.02341305      -1.44193929        1       0.00976556       0.02033630       0.00637685 
H       3.16221987      -1.30075558      -1.41072229        1       0.00826512       0.00479228       0.02125989 
H       1.07952911      -1.83317562      -0.21556886        1      -0.01079473      -0.02136669      -0.01264227 
H      -3.47915383      -1.62476336       0.30434040        1      -0.01235775       0.02883899       0.00916799 
H      -2.44121995      -1.99857722       1.50998737        1       0.01077148       0.02365040      -0.01305226 
H      -3.51453717       0.79372285      -2.00634827        1      -0.00505237       0.02981174       0.00121654 
