23
Properties=species:S:1:pos:R:3:Z:I:1:forces:R:3 magmom=0 energy=-15095.7036658 dipole="-0.0993047 -0.8588989 -0.3008632" pbc="F F F"
C      -1.67617583      -0.66557844       0.20302860        6       0.02625127       0.01531087      -0.00326294 
C      -0.59635743      -0.18726494       1.16918519        6       0.00803696       0.00130879       0.00540502 
C       0.72288476       0.05758963       0.48081890        6      -0.01418241      -0.00100792      -0.00295733 
C       1.24274142       1.33694791       0.31944180        6      -0.00808473      -0.00322473       0.00370907 
C       1.44247620      -1.02347153      -0.02392429        6      -0.01131851      -0.00548730       0.00542940 
C      -2.16739510       0.48020149      -0.66596160        6       0.02795401      -0.02036828      -0.00159856 
C       2.45655230       1.52823975      -0.32838782        6      -0.00661195       0.00542338      -0.00525225 
C       3.15743657       0.44519258      -0.83756670        6       0.00398207       0.00077678       0.00219845 
C       2.64579596      -0.83588125      -0.68407711        6      -0.00896996      -0.01476209      -0.00097974 
N      -2.83916269      -1.17226756       0.93112269        7       0.01724670       0.02832960      -0.01275545 
O      -3.00140745       0.02277480      -1.61954815        8      -0.02195835      -0.00429071      -0.00814006 
H      -1.24379178      -1.40740781      -0.48121068        1      -0.00178805       0.00238269       0.01868359 
H      -0.46274291      -0.96324025       1.92768024        1      -0.01859391       0.00875985       0.00149890 
H      -0.94810693       0.71251977       1.67292498        1       0.00416056      -0.02089021      -0.00200700 
O      -1.88837974       1.63670044      -0.54608825        8       0.00754377      -0.02225573       0.00636687 
H       0.68742708       2.18660000       0.69553201        1      -0.00802493      -0.01143308      -0.00755226 
H       2.85526504       2.52704961      -0.44108114        1      -0.01961700       0.02381603      -0.00462778 
H       4.09652905       0.59673181      -1.35103533        1       0.01956939       0.00938304       0.00023839 
H       3.18151804      -1.68901292      -1.07645718        1       0.03430757      -0.00964287       0.00193239 
H       1.05230281      -2.02639108       0.10819320        1       0.01123300      -0.01686947      -0.01042233 
H      -3.51095574      -1.57126563       0.28783840        1      -0.04087211       0.01798600       0.00596990 
H      -2.55587405      -1.90184164       1.57282930        1       0.00386478      -0.00281813      -0.00499889 
H      -3.31264091       0.78028013      -2.13076458        1      -0.00412821       0.01957340       0.01312260 
