23
Properties=species:S:1:pos:R:3:Z:I:1:forces:R:3 magmom=0 energy=-15095.6124423 dipole="0.4793984 -0.556101 -0.6102183" pbc="F F F"
C      -1.74246823      -0.58259603      -0.01241257        6      -0.00815395      -0.00393944      -0.00971003 
C      -0.84211034       0.05315354       1.03444966        6      -0.00614314      -0.00192380       0.00517203 
C      -0.26532819       1.38240546       0.61229902        6       0.00067414       0.00533833       0.01662640 
C      -0.20549049       2.42450499       1.53235981        6       0.02717142      -0.00231991       0.01678596 
C       0.20528270       1.61064780      -0.67916526        6      -0.01548241       0.02060390       0.00911101 
C      -2.87689503       0.36884491      -0.36476213        6       0.00088266       0.01224591      -0.01725072 
C       0.31709966       3.65954057       1.18220458        6       0.00246492       0.00285536      -0.00567777 
C       0.76846512       3.88146833      -0.11127450        6       0.00670559       0.00210193      -0.00200207 
C       0.70854825       2.85345919      -1.04090949        6       0.03110490      -0.00575125       0.01383377 
N      -2.35840111      -1.79252984       0.52999918        7       0.00701423      -0.04026939      -0.02484930 
O      -3.28421685       0.18225699      -1.63553892        8      -0.02389054      -0.01843306       0.00057130 
H      -1.17730757      -0.77148560      -0.92927065        1      -0.00338640      -0.02487537      -0.00506209 
H      -0.03910475      -0.65410013       1.26417920        1       0.00976186       0.01225748      -0.01404959 
H      -1.43166785       0.18408935       1.94171264        1       0.01191017       0.00933131       0.01575773 
O      -3.37687020       1.16606625       0.37111099        8       0.01711799      -0.01886835      -0.01478009 
H      -0.58075390       2.26347113       2.53505383        1      -0.00638811       0.00070921      -0.00025449 
H       0.36406345       4.45016675       1.91938668        1      -0.02138474       0.00846186      -0.02167538 
H       1.15909437       4.84978806      -0.39284043        1       0.01388416      -0.00370409      -0.00141010 
H       1.05741198       3.01450639      -2.05221989        1       0.00104017       0.00971219       0.00474677 
H       0.17623458       0.82177457      -1.42082362        1       0.00627046       0.01614051       0.02216960 
H      -2.79069383      -2.33933992      -0.20436495        1      -0.00464814       0.00191804       0.02263697 
H      -1.65800000      -2.37346482       0.97515518        1      -0.01910808       0.01634224      -0.03012125 
H      -4.01606788       0.79008173      -1.80147164        1      -0.02741717       0.00206640       0.01943122 
