23
Properties=species:S:1:pos:R:3:Z:I:1:forces:R:3 magmom=0 energy=-15095.4881462 dipole="0.176563 -0.2412521 0.5393924" pbc="F F F"
C      -1.66282015      -0.66528647       0.05624682        6      -0.00226082      -0.01323357      -0.01034627 
C      -0.63822654       0.14850485       0.87802173        6      -0.00290535       0.00645758      -0.00627894 
C       0.70476718      -0.52112180       1.04955303        6       0.01225702      -0.00230618      -0.00742283 
C       1.87246636       0.21808060       0.88122257        6       0.00872735       0.00545166       0.01419393 
C       0.82412138      -1.86944195       1.38149462        6      -0.00668739      -0.00677316      -0.00303642 
C      -2.41023802       0.26548031      -0.88115056        6      -0.01608873       0.01482920       0.00516288 
C       3.12131049      -0.36465676       1.04697374        6       0.00526757      -0.00006006      -0.02214137 
C       3.22473674      -1.70689256       1.37936658        6       0.00138572       0.00309581      -0.01869305 
C       2.06930713      -2.45907562       1.54302703        6       0.00363348       0.01344430       0.03731057 
N      -2.61322418      -1.32576763       0.94391088        7       0.00337915      -0.00272470       0.02190452 
O      -3.20417333       1.12978687      -0.23370665        8      -0.02225742       0.02128951       0.00683872 
H      -1.12595032      -1.35013865      -0.60452028        1       0.03342949      -0.02157541      -0.00976037 
H      -1.09328871       0.35029485       1.85070452        1      -0.01520993       0.00626686      -0.00248759 
H      -0.47664195       1.12226746       0.41581552        1       0.00232505      -0.00388427      -0.03194246 
O      -2.28820724       0.26169545      -2.07442335        8       0.00124745       0.00572055       0.01197425 
H       1.80279782       1.26480315       0.61133957        1      -0.00641423      -0.00360587       0.00285783 
H       4.01412667       0.22967909       0.90215275        1      -0.01374203      -0.00883740       0.01463025 
H       4.19726636      -2.16465256       1.50058252        1      -0.01568198      -0.00347994       0.01050573 
H       2.13764135      -3.50716381       1.80306012        1      -0.00747502       0.00419851      -0.01841563 
H      -0.06177489      -2.47841544       1.51305125        1      -0.01952717       0.00344903      -0.01815230 
H      -3.20858248      -1.97257324       0.44178625        1       0.02856938      -0.00595946      -0.00888044 
H      -2.13197833      -1.84513012       1.66510974        1       0.00034952      -0.00363631       0.02203456 
H      -3.62353919       1.69110579      -0.89884836        1       0.02767896      -0.00812669       0.01014460 
