23
Properties=species:S:1:pos:R:3:Z:I:1:forces:R:3 magmom=0 energy=-15095.7643608 dipole="0.0261018 -0.793114 -0.1215214" pbc="F F F"
C      -1.58971816      -0.59328333       0.10811429        6       0.00116039      -0.00331693      -0.02387213 
C      -0.89018408       0.29190047       1.14610487        6      -0.00216785      -0.00943379       0.00258324 
C       0.05836769      -0.51486886       1.99196755        6       0.00033085      -0.01007096       0.00435745 
C       1.39384003      -0.64777452       1.61671434        6      -0.01697586      -0.03395723      -0.01763900 
C      -0.38472107      -1.19537908       3.12446415        6       0.00238891      -0.02906627       0.00261882 
C      -2.30997140       0.26917541      -0.91308760        6      -0.00717708      -0.01506795       0.00848449 
C       2.26148690      -1.45099640       2.34201178        6       0.00658403       0.01100463       0.00804246 
C       1.80463900      -2.14093181       3.45659868        6      -0.00376466       0.01947719       0.00223280 
C       0.47883995      -2.00922843       3.84597053        6       0.01633417       0.00833994       0.02264278 
N      -2.49369697      -1.52749826       0.76095086        7       0.01387475       0.00591148      -0.02827391 
O      -3.41417799      -0.31602635      -1.40737664        8       0.00078840      -0.02399595       0.00219752 
H      -0.80979878      -1.09699442      -0.48456245        1       0.03097614       0.01527061      -0.01012105 
H      -1.66503659       0.75130020       1.76078047        1       0.01060482       0.00895443       0.02610596 
H      -0.35531218       1.08324893       0.62505276        1       0.00931619       0.00855591      -0.01890944 
O      -1.91767342       1.33153501      -1.30412729        8      -0.00560002       0.01576590       0.04346682 
H       1.75521417      -0.11574787       0.74463907        1      -0.00610282       0.00756856       0.00076218 
H       3.29639951      -1.53513072       2.03889386        1       0.00716777      -0.00841934      -0.00698132 
H       2.47976612      -2.76931325       4.02227684        1      -0.01961572       0.00731895      -0.01152708 
H       0.11808151      -2.54016976       4.71645068        1      -0.01499092       0.01408281       0.01515773 
H      -1.41770756      -1.08962693       3.43536055        1       0.01237889       0.00459580      -0.00471952 
H      -3.03406126      -2.04505384       0.08084647        1      -0.01828198      -0.01439412      -0.00430341 
H      -1.96085450      -2.19166823       1.31027889        1      -0.02133790       0.02723400      -0.02895433 
H      -3.77581658       0.27578789      -2.08006595        1       0.00410950      -0.00635777       0.01664892 
