23
Properties=species:S:1:pos:R:3:Z:I:1:forces:R:3 magmom=0 energy=-15095.6543587 dipole="0.5689356 -0.2894954 -0.5218665" pbc="F F F"
C      -1.67684662      -0.77644073       0.02107590        6      -0.01003121       0.00911595       0.00486160 
C      -0.47394609      -0.20890518       0.79055767        6       0.00073693      -0.00236603       0.02164699 
C      -0.80448996       0.52557241       2.06858690        6      -0.02114604       0.00270187       0.02168294 
C       0.04333953       0.39900337       3.16397023        6      -0.00073847      -0.02792923       0.00497966 
C      -1.92307020       1.34401007       2.19704722        6      -0.01492664       0.02044505       0.00239740 
C      -2.49555919       0.27663734      -0.69494008        6      -0.01744509       0.00288910      -0.00445063 
C      -0.20636058       1.07274589       4.35173151        6       0.01943646       0.01127146      -0.01380446 
C      -1.31806565       1.89408139       4.46157781        6       0.00514966      -0.00851267       0.00159702 
C      -2.17777537       2.02143628       3.38008329        6       0.01905933       0.03376656      -0.00585990 
N      -2.54683636      -1.54849069       0.88255499        7      -0.00082728       0.01158801      -0.02659184 
O      -1.72489883       1.16707131      -1.33825359        8       0.02518339       0.01476981      -0.01208923 
H      -1.26258581      -1.36011698      -0.81550254        1       0.02341185      -0.01157125       0.02384158 
H       0.09905420       0.43882117       0.12391447        1      -0.01418910      -0.02158904      -0.01108243 
H       0.17365101      -1.05204105       1.03623412        1       0.01333662       0.00163831       0.01486129 
O      -3.69355344       0.30022021      -0.74401516        8      -0.02152492       0.00776262      -0.01139554 
H       0.90821580      -0.24826002       3.08500708        1       0.02356966      -0.00154719       0.02335307 
H       0.46494486       0.94919374       5.19082954        1       0.01035872       0.01289527      -0.00060406 
H      -1.51783518       2.42528603       5.38206351        1      -0.00397122      -0.01756218       0.01059485 
H      -3.05537489       2.64906444       3.45896294        1      -0.00503016      -0.00435056      -0.00977204 
H      -2.62702363       1.45005522       1.38396166        1      -0.00941487      -0.00216302      -0.01946161 
H      -3.49389087      -1.56007184       0.52973958        1      -0.02162046      -0.01155063      -0.03877347 
H      -2.21949646      -2.49533378       0.99893987        1       0.02176475      -0.02414811       0.01229347 
H      -2.30780800       1.77005369      -1.81624875        1      -0.02114193       0.00444595       0.01177529 
