23
Properties=species:S:1:pos:R:3:Z:I:1:forces:R:3 magmom=0 energy=-15095.6529546 dipole="0.1226932 -0.7808678 -0.4547782" pbc="F F F"
C      -1.72938202      -0.57967924       0.01046961        6      -0.01407247       0.00246250       0.00700214 
C      -0.72608583       0.06136470       0.95636082        6      -0.00778926       0.01332438       0.00425461 
C       0.15933719       1.10182701       0.31662660        6      -0.00677151       0.03557790      -0.01009503 
C       0.38412147       2.31112623       0.96721985        6       0.01950280       0.01821287       0.00735006 
C       0.77450637       0.89137711      -0.91464651        6       0.00564100      -0.00611763      -0.01114897 
C      -2.71185564       0.45618017      -0.50785052        6       0.01178270       0.02300176      -0.02656258 
C       1.21354987       3.27654664       0.41691702        6       0.01286030       0.00356746      -0.00997197 
C       1.82713421       3.05210654      -0.80747798        6      -0.01775645       0.00961053      -0.02179709 
C       1.59697992       1.85902850      -1.47507337        6       0.03123263      -0.02181900       0.00506276 
N      -2.51378519      -1.58640659       0.72459804        7      -0.03653636      -0.02856023       0.00096247 
O      -3.50513169      -0.07578997      -1.45979067        8      -0.02064971      -0.00953730       0.01609860 
H      -1.21640300      -0.98992270      -0.86703632        1      -0.00492330      -0.00316225       0.00347330 
H      -0.11182240      -0.73498550       1.38741583        1       0.00955926      -0.00703063      -0.03528536 
H      -1.28390357       0.51256079       1.77606540        1       0.00536312      -0.00678123       0.02579943 
O      -2.81034812       1.58923306      -0.14197859        8      -0.00544071      -0.02511927       0.02891386 
H      -0.10740499       2.50171743       1.91283641        1      -0.00928148      -0.01146856      -0.00250050 
H       1.37478567       4.20912516       0.94034983        1      -0.00220071       0.00316066       0.01217592 
H       2.47215134       3.80257427      -1.24387197        1      -0.00259975       0.01126514       0.01177663 
H       2.06252007       1.67424589      -2.43386635        1       0.00662306       0.00865397      -0.00303863 
H       0.61334471      -0.03188800      -1.45601112        1       0.02901963      -0.02837639       0.02240526 
H      -3.16593861      -2.04303495       0.09970589        1      -0.01311746       0.00119284      -0.02150281 
H      -1.90583334      -2.30008470       1.10666650        1       0.01627498       0.02308563      -0.00099903 
H      -4.13041897       0.60809830      -1.73155735        1      -0.00672045      -0.00514318      -0.00237308 
