23
Properties=species:S:1:pos:R:3:Z:I:1:forces:R:3 magmom=0 energy=-15095.7366596 dipole="-0.218284 -0.5268955 0.3064727" pbc="F F F"
C      -1.66208594      -0.61843235       0.20426617        6       0.00528341       0.00291810      -0.03523445 
C      -1.08596542       0.50312422       1.09197345        6       0.01052558       0.00617224       0.00157665 
C      -0.54199216      -0.04912066       2.38009095        6       0.00210748      -0.01995001       0.00913703 
C       0.71889820      -0.64088389       2.40898096        6      -0.00244692      -0.00190262       0.00397786 
C      -1.29983936      -0.03349538       3.54711414        6       0.00235750      -0.00904067       0.01551527 
C      -2.12481950       0.02857283      -1.08545296        6      -0.01715666      -0.02359733       0.00511830 
C       1.20588938      -1.21565565       3.57303389        6      -0.00384493      -0.02696974      -0.02641546 
C       0.43700242      -1.20747573       4.72981144        6       0.00963166       0.01351146      -0.03071466 
C      -0.81457371      -0.60810492       4.71564648        6       0.00875204      -0.00113782      -0.01007132 
N      -2.73929846      -1.30299572       0.89398419        7       0.00389172       0.03085093       0.00310420 
O      -3.45816757       0.05077637      -1.22591880        8      -0.02018671       0.00402028      -0.02216944 
H      -0.83239209      -1.27485845      -0.08637268        1       0.00721518       0.02504260      -0.01681358 
H      -1.88533210       1.21888471       1.29248579        1       0.02266494      -0.00802698       0.00630866 
H      -0.29719730       1.00510809       0.53087463        1      -0.02846736       0.02238341      -0.00231523 
O      -1.37683128       0.49624496      -1.89787061        8      -0.00446205       0.00561354       0.03706873 
H       1.32196821      -0.64483518       1.50809042        1       0.00778103      -0.01830003       0.01302876 
H       2.18495462      -1.67433869       3.57423351        1       0.02664892      -0.00360695       0.02096509 
H       0.81536379      -1.66379446       5.63453324        1      -0.01121649       0.02349942       0.00500049 
H      -1.41374899      -0.58811636       5.61585179        1      -0.01776998       0.00372496      -0.00461714 
H      -2.27746004       0.43218771       3.53292331        1      -0.00910433      -0.02506743       0.01021751 
H      -3.25183408      -1.91217397       0.27050158        1      -0.00565684      -0.00575320       0.01916032 
H      -2.36798457      -1.85971129       1.65286991        1      -0.00368357       0.01164124       0.03095290 
H      -3.65140783       0.50889268      -2.05368754        1       0.01713630      -0.00602538      -0.03278044 
