23
Properties=species:S:1:pos:R:3:Z:I:1:forces:R:3 magmom=0 energy=-15095.6912792 dipole="-0.0194547 -0.8457963 -0.343708" pbc="F F F"
C      -1.68594218      -0.63480887       0.11066953        6      -0.00026559      -0.03243313      -0.01146599 
C      -0.59038350      -0.11404580       1.03092277        6       0.00135096      -0.00650767       0.00434799 
C       0.61015920       0.42192622       0.29399884        6       0.01809460      -0.00252323       0.01269050 
C       1.00945051       1.74564660       0.43582069        6      -0.00283598       0.02295239      -0.02530105 
C       1.35568648      -0.41210582      -0.53564822        6      -0.01162524      -0.02043791      -0.00656732 
C      -2.37834421       0.50092442      -0.61896331        6       0.03260560       0.02852238      -0.01722120 
C       2.12853536       2.22409667      -0.23174441        6      -0.00247098       0.00200294      -0.03412260 
C       2.85466890       1.38676493      -1.06562182        6       0.02214198      -0.01933495      -0.00688290 
C       2.46359401       0.06392456      -1.21927010        6      -0.00317902      -0.01377026       0.00353558 
N      -2.71376309      -1.32335142       0.88974547        7      -0.01995582      -0.02600203       0.01030061 
O      -3.23343060       0.01769150      -1.54246658        8      -0.01226169       0.01365487       0.01852881 
H      -1.23974592      -1.27356716      -0.66005895        1       0.01815641      -0.01782854      -0.04053123 
H      -0.27899813      -0.94778815       1.66595645        1       0.01184512      -0.00072094       0.02088497 
H      -1.01738327       0.64998440       1.67839669        1       0.00190010       0.01147303       0.01988532 
O      -2.22500619       1.66969250      -0.42163685        8      -0.00301092      -0.00235549       0.00041035 
H       0.43117833       2.40672452       1.06710802        1      -0.02626331       0.01380857       0.00865454 
H       2.43006994       3.25557655      -0.11039590        1      -0.01905537       0.01393286       0.02023777 
H       3.72319702       1.75684643      -1.59214383        1       0.00564712       0.03491291      -0.00330870 
H       3.02111662      -0.59787750      -1.86921414        1       0.01181376       0.01347978       0.02596835 
H       1.06785968      -1.45092975      -0.64171625        1       0.00972967      -0.03504080      -0.02377900 
H      -3.39881194      -1.75049819       0.27871760        1      -0.01401817       0.01741398       0.00821432 
H      -2.29008601      -2.05920213       1.44115954        1      -0.02604096      -0.00023531      -0.00295857 
H      -3.67735484       0.76838269      -1.95728817        1       0.00769783       0.00503659       0.01847934 
