23
Properties=species:S:1:pos:R:3:Z:I:1:forces:R:3 magmom=0 energy=-15095.6124423 dipole="0.4793977 -0.5561009 -0.6102185" pbc="F F F"
C      -1.74246824      -0.58259611      -0.01241264        6      -0.00815230      -0.00394531      -0.00970957 
C      -0.84211026       0.05315369       1.03444959        6      -0.00614437      -0.00192745       0.00517147 
C      -0.26532804       1.38240555       0.61229901        6       0.00067265       0.00533674       0.01662424 
C      -0.20549029       2.42450495       1.53235989        6       0.02717075      -0.00232093       0.01678493 
C       0.20528273       1.61064793      -0.67916530        6      -0.01548097       0.02060642       0.00910911 
C      -2.87689498       0.36884461      -0.36476237        6       0.00088575       0.01224750      -0.01725293 
C       0.31709998       3.65954045       1.18220477        6       0.00246363       0.00285773      -0.00567802 
C       0.76846516       3.88146841      -0.11127436        6       0.00670554       0.00210352      -0.00200238 
C       0.70854802       2.85345945      -1.04090955        6       0.03110696      -0.00574991       0.01383423 
N      -2.35840134      -1.79252975       0.52999933        7       0.00702199      -0.04026507      -0.02483444 
O      -3.28421696       0.18225659      -1.63553906        8      -0.02389234      -0.01843255       0.00056806 
H      -1.17730769      -0.77148649      -0.92927064        1      -0.00338537      -0.02487183      -0.00506153 
H      -0.03910453      -0.65409990       1.26417884        1       0.00976150       0.01225666      -0.01404902 
H      -1.43166756       0.18408933       1.94171283        1       0.01191094       0.00933100       0.01575444 
O      -3.37686971       1.16606616       0.37111071        8       0.01711321      -0.01886352      -0.01477706 
H      -0.58075403       2.26347096       2.53505371        1      -0.00638770       0.00070962      -0.00025253 
H       0.36406359       4.45016663       1.91938685        1      -0.02138387       0.00846217      -0.02167471 
H       1.15909425       4.84978829      -0.39284017        1       0.01388380      -0.00370568      -0.00141015 
H       1.05741154       3.01450707      -2.05222000        1       0.00103939       0.00971054       0.00474806 
H       0.17623490       0.82177488      -1.42082384        1       0.00626881       0.01613902       0.02217032 
H      -2.79069456      -2.33933971      -0.20436418        1      -0.00465303       0.00191208       0.02262658 
H      -1.65800041      -2.37346501       0.97515543        1      -0.01911034       0.01634517      -0.03012305 
H      -4.01606759       0.79008175      -1.80147232        1      -0.02741475       0.00206418       0.01943379 
