23
Properties=species:S:1:pos:R:3:Z:I:1:forces:R:3 magmom=0 energy=-15095.7730902 dipole="0.0225217 -0.8093416 0.1407175" pbc="F F F"
C      -1.69397935      -0.54792810       0.19946643        6      -0.00175761       0.02120075      -0.00643537 
C      -1.10073738       0.55256147       1.08500652        6      -0.00002407       0.03129197      -0.00374533 
C      -0.57883945      -0.00667631       2.38156790        6      -0.01546920      -0.00635433       0.00675593 
C       0.63829672      -0.68463502       2.42714433        6      -0.00653364       0.01890301      -0.00968643 
C      -1.32455536       0.09918499       3.55169271        6      -0.01392772      -0.01838719       0.00516046 
C      -2.18509352       0.05601523      -1.10325290        6      -0.01051916      -0.00503484      -0.01662769 
C       1.09762249      -1.24273286       3.61109636        6       0.02206264       0.01763689      -0.00428685 
C       0.34417177      -1.13166603       4.77305960        6      -0.02066015      -0.02233980      -0.01467648 
C      -0.86952716      -0.45909745       4.73925536        6       0.01982331       0.01120528       0.01697370 
N      -2.77632404      -1.23344952       0.88528338        7      -0.01302835       0.02527611      -0.01221495 
O      -3.17465067      -0.66277665      -1.66152424        8       0.00728059      -0.02026703       0.00042176 
H      -0.87555461      -1.22254693      -0.09612151        1       0.03207868      -0.01531611      -0.01706611 
H      -1.88028453       1.29109006       1.27733902        1       0.00999655      -0.02102828       0.01852480 
H      -0.30519785       1.05308583       0.53393275        1      -0.01199507      -0.02396186      -0.02521862 
O      -1.73005425       1.03599177      -1.62065906        8      -0.00040690       0.00196885       0.02127799 
H       1.23620368      -0.76718487       1.52628524        1      -0.01037600       0.00418879       0.00526978 
H       2.04955867      -1.75776600       3.62660397        1      -0.02539330       0.00020183       0.01144331 
H       0.70159381      -1.56883201       5.69624505        1      -0.01130447       0.02657600      -0.01718628 
H      -1.46602328      -0.36251554       5.63709438        1       0.02596799      -0.01615075      -0.00091634 
H      -2.27319162       0.62220266       3.52674812        1       0.01243139      -0.01571623       0.00643604 
H      -3.17873289      -1.95367368       0.30012096        1      -0.02758640       0.02246291       0.01972581 
H      -2.42983968      -1.66612392       1.73177949        1       0.00795047      -0.01946264       0.01889972 
H      -3.42238867      -0.22649504      -2.48656654        1       0.03139040       0.00310677      -0.00282899 
