23
Properties=species:S:1:pos:R:3:Z:I:1:forces:R:3 magmom=0 energy=-15095.7360364 dipole="-0.150879 -0.5840686 0.2147226" pbc="F F F"
C      -1.62658493      -0.60945465       0.15699578        6       0.02138320       0.01641511       0.00299868 
C      -0.95540919       0.34049839       1.16905966        6       0.01180471       0.01624212       0.00495683 
C      -0.13624017      -0.42595727       2.17372360        6      -0.01338100      -0.01359605      -0.01357023 
C       1.20079577      -0.71602318       1.91108531        6       0.00428865       0.02356046      -0.00485558 
C      -0.70177245      -0.90290890       3.35419144        6       0.00845512       0.02427039       0.00250965 
C      -2.21343271       0.23037489      -0.96044461        6      -0.01298453      -0.02536070       0.01813091 
C       1.95560548      -1.46306572       2.80280870        6      -0.01789318      -0.01156009      -0.02202099 
C       1.37874178      -1.94299804       3.97024306        6       0.01440322       0.02512462       0.00876355 
C       0.04910894      -1.65908116       4.24507892        6      -0.01059572      -0.00757843      -0.01276039 
N      -2.62570409      -1.42541882       0.82163336        7       0.00289182      -0.00168124      -0.00660414 
O      -3.55344035       0.21916757      -1.00383532        8      -0.00460932      -0.01947174      -0.00996524 
H      -0.82625520      -1.18671865      -0.32259403        1      -0.00169055       0.00074336      -0.03364926 
H      -1.73998262       0.91184987       1.66842690        1       0.00243180      -0.02226843      -0.00968463 
H      -0.32176171       1.03297652       0.61404868        1       0.00581239      -0.02098802       0.01704760 
O      -1.54317503       0.85139492      -1.73723334        8      -0.00895063       0.02653625       0.03251026 
H       1.65733864      -0.33980016       1.00319853        1      -0.01038160      -0.00765633      -0.01294628 
H       2.99462014      -1.66861673       2.58599499        1       0.01948104      -0.01067342      -0.00236660 
H       1.96711362      -2.52481478       4.66542770        1       0.00146142      -0.02053314       0.02076444 
H      -0.40427260      -2.02568115       5.15578354        1      -0.01662763       0.01297878       0.01474949 
H      -1.73651909      -0.67253021       3.57589625        1      -0.01469437      -0.00294432      -0.00543043 
H      -3.17966957      -1.95164567       0.15781995        1       0.02236839       0.01123356       0.03550863 
H      -2.17590701      -2.07768577       1.45188698        1      -0.00828307      -0.00332793      -0.00982619 
H      -3.81864116       0.78340958      -1.74139245        1       0.00530989       0.01053525      -0.01426006 
