23
Properties=species:S:1:pos:R:3:Z:I:1:forces:R:3 magmom=0 energy=-15095.5770022 dipole="0.5770039 -0.6670263 -0.450165" pbc="F F F"
C      -1.66248157      -0.68796166      -0.01239640        6       0.02305647       0.00622330       0.00687395 
C      -0.71848015      -0.00064566       0.98052319        6      -0.00984059       0.01054708       0.00491410 
C       0.11112422       1.10533152       0.37132359        6      -0.02169543      -0.02113051       0.00132119 
C       0.30272681       2.29871901       1.06229366        6      -0.03972689      -0.02173688      -0.00784104 
C       0.66835423       0.97816314      -0.89909823        6      -0.00018795      -0.00964477       0.01658526 
C      -2.44631817       0.39077251      -0.75278396        6       0.01616679      -0.01935655       0.03264751 
C       1.02434372       3.34136369       0.50050820        6       0.00934961      -0.02698846       0.00550113 
C       1.56413453       3.20591481      -0.77040709        6       0.01861505       0.00628265      -0.01572528 
C       1.38445879       2.02079759      -1.46842588        6      -0.00488129      -0.00982542      -0.01048568 
N      -2.59787747      -1.52960053       0.72133077        7      -0.00426356       0.02694393       0.00515352 
O      -2.27802748       0.30235070      -2.08650585        8      -0.02041158      -0.01718844       0.01470825 
H      -1.08135691      -1.23856685      -0.75649277        1       0.00168577      -0.01033100      -0.01278605 
H      -0.07231379      -0.76560065       1.42223708        1      -0.00677460      -0.00386077      -0.03107276 
H      -1.33759683       0.40249835       1.78191171        1      -0.00907075       0.03551105      -0.00443027 
O      -3.11741598       1.23141261      -0.23388775        8      -0.01298433      -0.00029321      -0.00822450 
H      -0.13623249       2.41444138       2.04471012        1      -0.01560382       0.01449778       0.01937717 
H       1.15334033       4.26414997       1.04977428        1       0.00527626       0.00063547       0.00504522 
H       2.11599639       4.02069747      -1.21684605        1       0.01893268       0.02981045      -0.01112804 
H       1.78834186       1.90766685      -2.46552105        1       0.03948330       0.01198263       0.00806812 
H       0.52432735       0.06534599      -1.46230733        1       0.03079446       0.00736894      -0.01995140 
H      -3.14493172      -2.10753222       0.09632059        1       0.00891977      -0.01758306       0.01752695 
H      -2.09969651      -2.14182489       1.35475571        1       0.00477212      -0.00902329      -0.01293784 
H      -2.75100441       1.04298976      -2.48687569        1      -0.03161151       0.01715908      -0.00313947 
