23
Properties=species:S:1:pos:R:3:Z:I:1:forces:R:3 magmom=0 energy=-15095.487621 dipole="0.0499081 -0.4598455 0.4510782" pbc="F F F"
C      -1.72753888      -0.71380862      -0.02145212        6      -0.02610986      -0.01059032       0.00119027 
C      -0.52598756      -0.05971915       0.71529147        6       0.01110830      -0.00734307      -0.00870540 
C      -0.68206302       0.17306359       2.20039847        6      -0.00325265      -0.01194920       0.02426906 
C       0.33942832      -0.22704932       3.05721994        6       0.00537993      -0.00754213       0.01334166 
C      -1.80779188       0.78487955       2.74965205        6      -0.00290668       0.01703752       0.01602492 
C      -2.53450617       0.36727471      -0.72581545        6       0.00525431       0.02979652      -0.01931495 
C       0.25252971      -0.01380018       4.42738496        6       0.00054605      -0.02053545       0.00658393 
C      -0.87122694       0.59652278       4.96292128        6       0.02607670       0.00023922      -0.01132545 
C      -1.89969088       0.99465171       4.11724307        6       0.01688212       0.01487142       0.01035836 
N      -2.53640762      -1.52306499       0.86669828        7      -0.00448462      -0.01516915       0.01278692 
O      -3.52811198       0.89752313       0.00135183        8      -0.02092688      -0.01306187      -0.02701566 
H      -1.29868227      -1.27645918      -0.85464564        1       0.00060488      -0.00738837      -0.00266130 
H      -0.28615569       0.87892827       0.21076923        1       0.01356350      -0.00443299      -0.00201826 
H       0.33762205      -0.70801830       0.56773834        1      -0.00250019      -0.00468512      -0.00059053 
O      -2.27528608       0.74738078      -1.83480501        8      -0.00228340       0.02780581       0.02623986 
H       1.21705919      -0.71274664       2.64635186        1      -0.00583733       0.00985740       0.00876937 
H       1.06084389      -0.33322679       5.07229968        1      -0.01616345       0.01055582      -0.00227445 
H      -0.94798789       0.75655521       6.03070480        1       0.00061305       0.00578678      -0.03061829 
H      -2.78181388       1.46979879       4.52579765        1       0.00017915      -0.01558130      -0.00099178 
H      -2.62460506       1.07507519       2.10504302        1      -0.00129604      -0.00138099       0.00279186 
H      -3.03288764      -2.25393211       0.37671637        1       0.01874597       0.02571093      -0.01486185 
H      -1.98440171      -1.93888576       1.60418226        1       0.00219408       0.00347557       0.00676756 
H      -3.92019334       1.60030672      -0.53362972        1      -0.01538687      -0.02547711      -0.00874587 
