23
Properties=species:S:1:pos:R:3:Z:I:1:forces:R:3 magmom=0 energy=-15095.6124423 dipole="0.4793976 -0.556101 -0.6102185" pbc="F F F"
C      -1.74246823      -0.58259612      -0.01241266        6      -0.00815245      -0.00394520      -0.00970931 
C      -0.84211025       0.05315369       1.03444958        6      -0.00614432      -0.00192756       0.00517131 
C      -0.26532804       1.38240555       0.61229899        6       0.00067260       0.00533653       0.01662434 
C      -0.20549030       2.42450494       1.53235988        6       0.02717080      -0.00232093       0.01678483 
C       0.20528274       1.61064794      -0.67916532        6      -0.01548102       0.02060652       0.00910921 
C      -2.87689496       0.36884461      -0.36476239        6       0.00088569       0.01224766      -0.01725282 
C       0.31709998       3.65954044       1.18220479        6       0.00246358       0.00285768      -0.00567802 
C       0.76846516       3.88146841      -0.11127435        6       0.00670554       0.00210347      -0.00200217 
C       0.70854801       2.85345947      -1.04090955        6       0.03110701      -0.00574996       0.01383413 
N      -2.35840135      -1.79252973       0.52999935        7       0.00702158      -0.04026507      -0.02483496 
O      -3.28421699       0.18225656      -1.63553905        8      -0.02389229      -0.01843255       0.00056801 
H      -1.17730768      -0.77148654      -0.92927065        1      -0.00338532      -0.02487172      -0.00506158 
H      -0.03910452      -0.65409991       1.26417884        1       0.00976150       0.01225676      -0.01404902 
H      -1.43166755       0.18408933       1.94171281        1       0.01191094       0.00933100       0.01575444 
O      -3.37686964       1.16606620       0.37111069        8       0.01711332      -0.01886367      -0.01477716 
H      -0.58075408       2.26347093       2.53505369        1      -0.00638760       0.00070962      -0.00025253 
H       0.36406359       4.45016661       1.91938688        1      -0.02138392       0.00846217      -0.02167476 
H       1.15909425       4.84978830      -0.39284013        1       0.01388380      -0.00370568      -0.00141025 
H       1.05741153       3.01450711      -2.05222000        1       0.00103939       0.00971054       0.00474811 
H       0.17623490       0.82177489      -1.42082387        1       0.00626881       0.01613907       0.02217042 
H      -2.79069458      -2.33933970      -0.20436416        1      -0.00465277       0.00191223       0.02262694 
H      -1.65800043      -2.37346497       0.97515547        1      -0.01911014       0.01634481      -0.03012294 
H      -4.01606761       0.79008173      -1.80147231        1      -0.02741475       0.00206418       0.01943379 
