23
Properties=species:S:1:pos:R:3:Z:I:1:forces:R:3 magmom=0 energy=-15095.6124423 dipole="0.4794006 -0.5561007 -0.6102182" pbc="F F F"
C      -1.74246843      -0.58259587      -0.01241224        6      -0.00815647      -0.00392520      -0.00971301 
C      -0.84211076       0.05315337       1.03444999        6      -0.00613959      -0.00191527       0.00517383 
C      -0.26532870       1.38240544       0.61229923        6       0.00067718       0.00534085       0.01663164 
C      -0.20549075       2.42450529       1.53235976        6       0.02717173      -0.00231656       0.01678864 
C       0.20528261       1.61064748      -0.67916494        6      -0.01548514       0.02059742       0.00911415 
C      -2.87689550       0.36884540      -0.36476146        6       0.00087541       0.01224354      -0.01724449 
C       0.31709911       3.65954100       1.18220400        6       0.00246826       0.00285017      -0.00567756 
C       0.76846500       3.88146819      -0.11127505        6       0.00670580       0.00209745      -0.00200140 
C       0.70854883       2.85345846      -1.04090940        6       0.03109904      -0.00575356       0.01383341 
N      -2.35840053      -1.79253038       0.52999868        7       0.00700533      -0.04028538      -0.02487666 
O      -3.28421625       0.18225829      -1.63553886        8      -0.02388694      -0.01843296       0.00058014 
H      -1.17730743      -0.77148325      -0.92927051        1      -0.00338897      -0.02488370      -0.00506327 
H      -0.03910531      -0.65410029       1.26417996        1       0.00976279       0.01225779      -0.01405046 
H      -1.43166848       0.18408941       1.94171255        1       0.01190745       0.00933218       0.01576503 
O      -3.37687226       1.16606579       0.37111190        8       0.01712962      -0.01888074      -0.01478873 
H      -0.58075313       2.26347192       2.53505437        1      -0.00638924       0.00070803      -0.00025958 
H       0.36406349       4.45016730       1.91938597        1      -0.02138695       0.00846104      -0.02167620 
H       1.15909448       4.84978755      -0.39284156        1       0.01388509      -0.00370013      -0.00140943 
H       1.05741289       3.01450452      -2.05221972        1       0.00104269       0.00971594       0.00474302 
H       0.17623410       0.82177365      -1.42082267        1       0.00627344       0.01614360       0.02216718 
H      -2.79069242      -2.33934037      -0.20436701        1      -0.00463549       0.00193203       0.02266206 
H      -1.65799850      -2.37346501       0.97515396        1      -0.01911276       0.01634291      -0.03012366 
H      -4.01606808       0.79008219      -1.80147042        1      -0.02742215       0.00207056       0.01942535 
