27
Properties=species:S:1:pos:R:3:Z:I:1:forces:R:3 magmom=0 energy=-18675.6065358 dipole="-0.3627659 0.4601518 0.163008" pbc="F F F"
C       2.54596396      -0.67824925      -0.25356000        6      -0.00883529       0.02415624      -0.01009410 
C       1.17588512      -0.34398179       0.43625188        6      -0.00238012       0.00391384      -0.01212476 
C       0.47942802       0.95582839       0.13713260        6      -0.00474893       0.00017468       0.03735721 
C      -0.14017646       1.78634341       1.13842209        6      -0.01751559       0.00120636       0.02595025 
C      -0.77190137       2.85546091       0.46934182        6      -0.00103790      -0.00431940       0.00900642 
C       0.19593299       1.53961046      -1.06547530        6      -0.00970144      -0.02992728       0.01636024 
N      -0.54550915       2.68204193      -0.87055136        7       0.01406995      -0.00685276      -0.00137636 
C      -0.24402297       1.71287185       2.53385709        6      -0.00429935       0.00138603       0.01289609 
C      -1.49114747       3.84101874       1.14318516        6       0.01685302      -0.00330227       0.01707094 
C       2.91627283       0.36804120      -1.27793121        6      -0.00212378       0.03403179      -0.03544461 
C      -0.95041970       2.68764985       3.20756197        6      -0.00580262      -0.00516494      -0.01019458 
C      -1.57084233       3.74197229       2.51660302        6       0.00444343       0.00064350       0.01502357 
N       3.67765240      -0.87014597       0.64223387        7      -0.02704353      -0.01617692       0.02520350 
O       3.57417550       1.40371374      -0.74069866        8       0.01309144       0.01108233      -0.01274455 
H       2.42314366      -1.59299199      -0.83114914        1       0.00772467       0.00679440       0.04148537 
H       1.36134406      -0.37483284       1.51123620        1       0.00199723      -0.00984378      -0.02848181 
H       0.48960553      -1.16638197       0.22470914        1       0.01431775      -0.00839501       0.00681322 
O       2.63541552       0.30966903      -2.44324585        8       0.02548185       0.01492798       0.00052630 
H       0.46497680       1.23098356      -2.06082281        1      -0.01484149      -0.00878937      -0.01374872 
H      -0.85346985       3.30145626      -1.59706992        1      -0.00903625      -0.01194689      -0.01820542 
H       0.20899852       0.89869170       3.08554785        1       0.02877198       0.00519574      -0.03351310 
H      -1.03715141       2.64050654       4.28525948        1       0.00448858      -0.01019442      -0.03648905 
H      -2.12799459       4.48314664       3.07302216        1       0.00976603       0.01551255      -0.00593673 
H      -1.97549358       4.64736485       0.60837154        1       0.00756290       0.00072767       0.00189300 
H       3.88652667      -0.01954573       1.15171138        1      -0.03893540      -0.01301210      -0.00910767 
H       3.48044352      -1.60141864       1.31262696        1      -0.00644601       0.00446781       0.00473813 
H       3.73935530       2.04209637      -1.44622085        1       0.00417887       0.00370424       0.01313716 
