27
Properties=species:S:1:pos:R:3:Z:I:1:forces:R:3 magmom=0 energy=-18675.8889165 dipole="-0.3773465 0.453655 0.0556757" pbc="F F F"
C       2.56887696      -0.54734249      -0.18336151        6       0.01121135       0.01602204      -0.01808972 
C       1.18072327      -0.27045402       0.44824242        6       0.02793961       0.00001753      -0.00157958 
C       1.15012230       0.79566696       1.50243602        6       0.00677136      -0.01967100       0.01440893 
C       0.35818683       0.72009107       2.70003447        6      -0.01647969       0.01322282       0.00799737 
C       0.61850963       1.88188409       3.45477342        6       0.00937239       0.00935727       0.01602234 
C       1.83804831       1.97395702       1.57660382        6      -0.00039184      -0.01842550      -0.01270578 
N       1.51741676       2.63197258       2.74261846        7       0.00317428      -0.01229568      -0.01014455 
C      -0.54030649      -0.22767036       3.20370458        6       0.00482524      -0.00670261       0.00211232 
C       0.02885851       2.11095618       4.69627717        6      -0.00320514      -0.01096426       0.01786264 
C       2.93865213       0.58333282      -1.11748987        6      -0.00453671      -0.00257054      -0.01824640 
C      -1.12659854      -0.00656088       4.43165127        6       0.00267163      -0.01579223       0.00171328 
C      -0.83851917       1.15070260       5.17348583        6       0.00013961      -0.02025927       0.02034761 
N       3.66358203      -0.75655064       0.74023932        7      -0.01109390       0.00701418      -0.00145514 
O       2.22412898       0.54165321      -2.25302829        8      -0.01239807      -0.00458587      -0.02338059 
H       2.45632986      -1.43534754      -0.80884051        1      -0.00489836       0.01587029      -0.00798564 
H       0.86263535      -1.20945012       0.90782585        1      -0.01336809       0.02098951       0.00031578 
H       0.46570865      -0.06621163      -0.35381099        1       0.01051648      -0.00076681       0.02462197 
O       3.74177915       1.44526165      -0.89142744        8       0.01216636      -0.02208974       0.02038741 
H       2.55223559       2.40095153       0.89328198        1       0.00639603       0.00702852      -0.00379927 
H       1.92764411       3.49452363       3.05024513        1      -0.00867470       0.01021643      -0.02467339 
H      -0.77270552      -1.12117198       2.63888106        1      -0.00237956      -0.01674812      -0.00177164 
H      -1.81643962      -0.73473867       4.83495719        1      -0.00504610      -0.00169893       0.00957175 
H      -1.29816700       1.28463970       6.14257400        1      -0.03838971       0.02841069      -0.00150451 
H       0.24630748       3.00084962       5.27171265        1       0.01718798       0.01465966      -0.01401493 
H       3.94012951       0.13004965       1.14478893        1       0.03872606      -0.01912315       0.01378811 
H       3.37882817      -1.36437299       1.49813847        1      -0.01868380       0.01618386      -0.00724856 
H       2.48513342       1.30140058      -2.78869059        1      -0.01155269       0.01270084      -0.00254987 
