27
Properties=species:S:1:pos:R:3:Z:I:1:forces:R:3 magmom=0 energy=-18675.8889165 dipole="-0.3773467 0.4536553 0.0556755" pbc="F F F"
C       2.56887714      -0.54734249      -0.18336138        6       0.01120924       0.01602255      -0.01809039 
C       1.18072329      -0.27045414       0.44824227        6       0.02793905       0.00001748      -0.00157861 
C       1.15012209       0.79566685       1.50243581        6       0.00677357      -0.01966827       0.01441001 
C       0.35818676       0.72009105       2.70003432        6      -0.01648010       0.01322092       0.00799762 
C       0.61850984       1.88188393       3.45477335        6       0.00937208       0.00935984       0.01602281 
C       1.83804836       1.97395677       1.57660370        6      -0.00039158      -0.01842221      -0.01270418 
N       1.51741717       2.63197236       2.74261852        7       0.00316719      -0.01230952      -0.01014984 
C      -0.54030657      -0.22767039       3.20370443        6       0.00482468      -0.00669891       0.00211442 
C       0.02885864       2.11095613       4.69627705        6      -0.00320380      -0.01096396       0.01786135 
C       2.93865225       0.58333288      -1.11748967        6      -0.00454144      -0.00257650      -0.01824583 
C      -1.12659852      -0.00656084       4.43165119        6       0.00267189      -0.01579480       0.00171117 
C      -0.83851912       1.15070265       5.17348563        6       0.00013925      -0.02025916       0.02035255 
N       3.66358207      -0.75655064       0.74023952        7      -0.01109863       0.00700091      -0.00144578 
O       2.22412857       0.54165345      -2.25302766        8      -0.01239863      -0.00458160      -0.02338825 
H       2.45633000      -1.43534745      -0.80884046        1      -0.00489769       0.01586921      -0.00798631 
H       0.86263540      -1.20945021       0.90782573        1      -0.01336814       0.02098859       0.00031604 
H       0.46570871      -0.06621193      -0.35381122        1       0.01051694      -0.00076660       0.02462161 
O       3.74177939       1.44526156      -0.89142758        8       0.01217284      -0.02208418       0.02039014 
H       2.55223555       2.40095130       0.89328182        1       0.00639685       0.00702837      -0.00379973 
H       1.92764392       3.49452352       3.05024497        1      -0.00866961       0.01022492      -0.02467118 
H      -0.77270578      -1.12117181       2.63888079        1      -0.00237966      -0.01675012      -0.00177211 
H      -1.81643937      -0.73473872       4.83495732        1      -0.00504687      -0.00169883       0.00957140 
H      -1.29816667       1.28463974       6.14257399        1      -0.03838981       0.02841028      -0.00150662 
H       0.24630767       3.00084947       5.27171260        1       0.01718834       0.01466023      -0.01401493 
H       3.94012976       0.13004967       1.14478858        1       0.03872838      -0.01911775       0.01379104 
H       3.37882784      -1.36437254       1.49813932        1      -0.01867999       0.01619219      -0.00725946 
H       2.48513298       1.30140083      -2.78869014        1      -0.01155428       0.01269688      -0.00254719 
