27
Properties=species:S:1:pos:R:3:Z:I:1:forces:R:3 magmom=0 energy=-18675.8842988 dipole="-0.335292 0.126091 0.2225127" pbc="F F F"
C       2.43733385      -0.78052752      -0.22005154        6      -0.01535561       0.00670739       0.02351012 
C       1.38114971      -0.00449084       0.57796932        6       0.01746777       0.01049350       0.00236413 
C       0.09744543       0.24403478      -0.15033947        6       0.01621585      -0.00748278       0.00626809 
C      -0.96567815       1.10803376       0.29033513        6       0.01859838       0.00961022       0.01026204 
C      -1.98487185       1.04753399      -0.68162792        6      -0.00334161      -0.00809934       0.01519378 
C      -0.31168787      -0.29109741      -1.33649277        6       0.02055551       0.01741341      -0.01032761 
N      -1.56051868       0.18595236      -1.66063135        7      -0.01259285      -0.01395153      -0.00273473 
C      -1.14535688       1.92584469       1.41153321        6      -0.00473114      -0.00806067       0.00975960 
C      -3.16487972       1.77919402      -0.56691528        6      -0.00587801      -0.00643614       0.00122061 
C       2.83284401      -0.04530516      -1.48698919        6      -0.02618139      -0.00492798       0.01885688 
C      -2.31439895       2.64921685       1.53258091        6       0.00523559       0.01314477      -0.02384472 
C      -3.31333221       2.57901219       0.54798430        6      -0.00321532      -0.01893844      -0.00375170 
N       3.66971066      -1.04321430       0.51644148        7      -0.01440980      -0.03323346      -0.01370588 
O       3.39408785       1.14317376      -1.20575478        8       0.02508584       0.00857185       0.02027536 
H       2.03213789      -1.73591322      -0.55317843        1      -0.01013832       0.00433082       0.03382919 
H       1.82006803       0.94860562       0.88739109        1       0.00640920       0.00793833      -0.01479665 
H       1.19278667      -0.56697699       1.49869055        1      -0.01190493       0.00198325      -0.02368331 
O       2.69267416      -0.44989044      -2.60512013        8      -0.02744658       0.00151006      -0.01559662 
H       0.20167722      -0.96512094      -2.00190207        1       0.01023109      -0.01503823      -0.01130175 
H      -2.07372247      -0.05983860      -2.48604682        1      -0.01385069       0.01142007      -0.03384791 
H      -0.37899666       1.98991591       2.17297121        1       0.01243812      -0.00586967       0.01179483 
H      -2.46872666       3.28395075       2.39413932        1       0.01465539       0.00198124       0.00067142 
H      -4.21662748       3.16265343       0.66439982        1       0.00951848      -0.01145427       0.01186081 
H      -3.93669167       1.72337164      -1.32238356        1      -0.00924240       0.00444801      -0.01598203 
H       4.04816966      -0.18072669       0.88858838        1       0.00748644       0.02398618       0.00017504 
H       3.48872890      -1.66449326       1.29376672        1       0.00202197      -0.00332557       0.01431266 
H       3.65606257       1.54924324      -2.04128504        1      -0.00763098       0.01327877      -0.01078161 
