27
Properties=species:S:1:pos:R:3:Z:I:1:forces:R:3 magmom=0 energy=-18675.8889165 dipole="-0.3773466 0.4536552 0.0556756" pbc="F F F"
C       2.56887707      -0.54734247      -0.18336142        6       0.01121006       0.01602229      -0.01809008 
C       1.18072328      -0.27045407       0.44824232        6       0.02793946       0.00001728      -0.00157922 
C       1.15012219       0.79566690       1.50243590        6       0.00677270      -0.01966935       0.01440944 
C       0.35818679       0.72009105       2.70003438        6      -0.01647980       0.01322174       0.00799721 
C       0.61850976       1.88188400       3.45477336        6       0.00937203       0.00935887       0.01602281 
C       1.83804837       1.97395686       1.57660375        6      -0.00039178      -0.01842360      -0.01270490 
N       1.51741703       2.63197244       2.74261849        7       0.00317012      -0.01230366      -0.01014753 
C      -0.54030653      -0.22767039       3.20370447        6       0.00482493      -0.00670030       0.00211360 
C       0.02885857       2.11095617       4.69627706        6      -0.00320426      -0.01096426       0.01786192 
C       2.93865221       0.58333288      -1.11748973        6      -0.00453954      -0.00257424      -0.01824619 
C      -1.12659851      -0.00656085       4.43165121        6       0.00267158      -0.01579383       0.00171215 
C      -0.83851914       1.15070264       5.17348569        6       0.00013951      -0.02025916       0.02035054 
N       3.66358203      -0.75655061       0.74023949        7      -0.01109642       0.00700667      -0.00144964 
O       2.22412873       0.54165341      -2.25302789        8      -0.01239853      -0.00458381      -0.02338475 
H       2.45632998      -1.43534748      -0.80884046        1      -0.00489805       0.01586983      -0.00798600 
H       0.86263538      -1.20945016       0.90782575        1      -0.01336819       0.02098889       0.00031599 
H       0.46570870      -0.06621178      -0.35381114        1       0.01051669      -0.00076665       0.02462181 
O       3.74177932       1.44526160      -0.89142751        8       0.01217032      -0.02208634       0.02038911 
H       2.55223561       2.40095137       0.89328189        1       0.00639649       0.00702842      -0.00379947 
H       1.92764404       3.49452355       3.05024505        1      -0.00867177       0.01022137      -0.02467210 
H      -0.77270570      -1.12117188       2.63888089        1      -0.00237950      -0.01674935      -0.00177200 
H      -1.81643943      -0.73473870       4.83495727        1      -0.00504666      -0.00169899       0.00957160 
H      -1.29816681       1.28463971       6.14257397        1      -0.03838981       0.02841059      -0.00150574 
H       0.24630755       3.00084956       5.27171258        1       0.01718824       0.01466017      -0.01401478 
H       3.94012967       0.13004971       1.14478873        1       0.03872735      -0.01912027       0.01378975 
H       3.37882794      -1.36437265       1.49813906        1      -0.01868164       0.01618880      -0.00725504 
H       2.48513315       1.30140078      -2.78869030        1      -0.01155346       0.01269883      -0.00254843 
