27
Properties=species:S:1:pos:R:3:Z:I:1:forces:R:3 magmom=0 energy=-18675.8592207 dipole="-0.4165263 -0.0878624 0.3120396" pbc="F F F"
C       2.51246860      -0.79721531      -0.04872993        6      -0.00707568       0.00085402       0.01224149 
C       1.33731465      -0.19890599       0.73364786        6       0.00781266       0.01147113       0.00665448 
C       0.04794665      -0.19498622      -0.02648607        6      -0.00464804      -0.04189047       0.01641526 
C      -1.08723192       0.65216473       0.22103119        6       0.00335359      -0.01706956       0.00204788 
C      -2.08704360       0.29404075      -0.70795501        6       0.00915200       0.00367534      -0.01193912 
C      -0.29733084      -1.00356393      -1.06918032        6      -0.00208871       0.00217829      -0.00920404 
N      -1.57943773      -0.72202164      -1.47798817        7      -0.00485789      -0.00586510      -0.01597452 
C      -1.34313634       1.68352903       1.13169803        6      -0.01096576      -0.00025788      -0.02085083 
C      -3.32305638       0.93601994      -0.75450288        6       0.00049607      -0.01625904      -0.00480519 
C       2.70097801      -0.05020082      -1.35609792        6      -0.01519496      -0.00713553      -0.00365133 
C      -2.56529161       2.32167362       1.08968139        6      -0.01252287       0.00502682      -0.00397297 
C      -3.54457142       1.95153023       0.15301698        6      -0.01884624      -0.01139832      -0.00370311 
N       3.78741425      -0.78592498       0.65747458        7      -0.00133065       0.01035270      -0.01688541 
O       2.95344378       1.25266011      -1.13950808        8       0.00879343      -0.00716448       0.03265368 
H       2.29651873      -1.82698342      -0.32700720        1      -0.00467879      -0.02840344      -0.00870797 
H       1.60385907       0.82516240       1.00612320        1      -0.01641027       0.01133188       0.03021283 
H       1.23224809      -0.76008991       1.66731136        1       0.01845415       0.01758280      -0.00231065 
O       2.63749332      -0.52788568      -2.45177294        8       0.00002206      -0.01782006      -0.02599134 
H       0.28437885      -1.75243853      -1.58135456        1      -0.01744170      -0.00109169      -0.00457533 
H      -2.04958994      -1.17214252      -2.24144539        1      -0.01815148       0.03092071      -0.01221274 
H      -0.59178612       1.98175215       1.85153505        1      -0.00032031      -0.01562711       0.01243895 
H      -2.78011778       3.12113212       1.78501180        1       0.01347392       0.00625215       0.00249227 
H      -4.49163294       2.47375593       0.14042000        1       0.00287655       0.00070623       0.01630650 
H      -4.07964915       0.65210673      -1.47528573        1       0.02688294       0.00900704       0.01834852 
H       3.95199694       0.11938420       1.07929901        1       0.03226406       0.02089124       0.00906823 
H       3.80198690      -1.48446572       1.38820249        1      -0.02553846       0.03091510       0.01765823 
H       3.04841533       1.68046867      -1.99895087        1       0.03649044       0.00881719      -0.03175369 
