27
Properties=species:S:1:pos:R:3:Z:I:1:forces:R:3 magmom=0 energy=-18675.7623156 dipole="-0.2647539 -0.4458027 1.011651" pbc="F F F"
C       2.54231413      -0.64968825      -0.27365539        6      -0.02015174      -0.00568435       0.00271581 
C       1.21999272      -0.06502776       0.25387609        6      -0.01743162       0.01020702      -0.01250132 
C       0.21485376      -1.08586344       0.68800297        6      -0.00617574       0.01018645       0.00873388 
C      -1.19509531      -0.81712950       0.76822329        6       0.00638014       0.00635896       0.00865824 
C      -1.83853861      -2.01874374       1.11944157        6       0.00666533      -0.00031198       0.00406234 
C       0.36621753      -2.40574162       0.99755008        6      -0.00350210      -0.00385162      -0.02414899 
N      -0.86216188      -2.96962825       1.27078146        7       0.00534234      -0.00120698      -0.01523538 
C      -1.96434359       0.32598167       0.52954280        6      -0.00339823      -0.00564373      -0.03106201 
C      -3.22511323      -2.11654694       1.21408800        6      -0.00113746      -0.01667705      -0.00127599 
C       3.19224472       0.42217778      -1.12001933        6      -0.01996883       0.00209190       0.03815744 
C      -3.33638265       0.23547025       0.62331390        6      -0.00936607       0.00196962      -0.01450354 
C      -3.96043563      -0.97819303       0.95491136        6      -0.00574420      -0.00807594       0.01271010 
N       3.47483803      -1.11897985       0.74278044        7       0.00837676      -0.00531714      -0.01288632 
O       3.85161407       1.32350745      -0.36710676        8       0.03018650      -0.00166751      -0.00623750 
H       2.31194829      -1.46554781      -0.95793448        1       0.02754253      -0.03316924       0.00688104 
H       0.75406294       0.52840274      -0.53754185        1       0.01471221       0.02022306      -0.03470419 
H       1.45670147       0.63052178       1.06544129        1      -0.03081041      -0.00432105       0.00039389 
O       3.08412699       0.52779201      -2.30701699        8       0.02137466      -0.01564732       0.00061614 
H       1.24693053      -3.02637468       1.02143311        1       0.02449680       0.02849425      -0.00853200 
H      -1.01724115      -3.92965781       1.51622027        1       0.01250703      -0.01681347      -0.01633417 
H      -1.49292634       1.26154053       0.25847945        1       0.01259866       0.01022985       0.00437036 
H      -3.94533220       1.10596297       0.42577126        1      -0.02070895       0.01117936       0.00858142 
H      -5.03964393      -1.02133049       0.99464253        1      -0.01550843      -0.00698600       0.04122301 
H      -3.70434800      -3.05460163       1.45971273        1      -0.02695457       0.00663226       0.01983920 
H       3.81758058      -0.33701212       1.28873970        1      -0.01390252      -0.00609629       0.00032668 
H       3.01430719      -1.75237383       1.38211191        1      -0.00595761       0.00677635       0.01709671 
H       4.19375342       2.00021376      -0.96443406        1       0.03053540       0.01712051       0.00305509 
