27
Properties=species:S:1:pos:R:3:Z:I:1:forces:R:3 magmom=0 energy=-18675.8983317 dipole="-0.2682163 0.3817551 0.3363989" pbc="F F F"
C       2.53743958      -0.47274223      -0.28142852        6      -0.00337560       0.00189526       0.00347767 
C       1.14437844      -0.36134095       0.38337298        6       0.00810103       0.00225527      -0.00233739 
C       1.13112614      -0.09884379       1.85835272        6       0.00996174      -0.00494634       0.00273905 
C       0.06830919      -0.50130432       2.74033648        6      -0.00423250       0.00819621      -0.00965264 
C       0.41888086      -0.09048302       4.04265835        6       0.01306722      -0.00723185      -0.00760784 
C       2.05556328       0.53080791       2.64086528        6       0.01027809      -0.01319732       0.00965295 
N       1.63330918       0.53864424       3.95100658        7       0.01364531       0.01022528       0.01901141 
C      -1.14585112      -1.16846379       2.54256131        6      -0.00538014       0.00451738      -0.00100756 
C      -0.39566238      -0.33974934       5.14567134        6       0.01185351      -0.00200772      -0.01057104 
C       3.20227680       0.88496176      -0.33284418        6      -0.00823128       0.00452658       0.01287228 
C      -1.95882360      -1.41244215       3.62966494        6      -0.01817256       0.01517018       0.00197306 
C      -1.58489628      -1.00173601       4.91971898        6       0.00663360      -0.00752433       0.01065568 
N       3.46034103      -1.41910993       0.31061149        7      -0.01278985       0.00708833       0.02900955 
O       2.61013128       1.69477649      -1.22431893        8       0.01311499       0.01254534      -0.00130031 
H       2.35944144      -0.75650555      -1.32104974        1      -0.00608220       0.00732050      -0.00558464 
H       0.63606552      -1.31240929       0.20294922        1       0.00393687       0.00088749      -0.00478539 
H       0.56460733       0.39690078      -0.14994553        1      -0.00032658      -0.00914583      -0.01943230 
O       4.13033206       1.23325597       0.34280276        8       0.01179674       0.00228113      -0.01348929 
H       2.99717485       0.98124100       2.37513272        1       0.00642015      -0.00987777      -0.00009631 
H       2.15494903       0.91925188       4.71854026        1      -0.00902108       0.01329101       0.01807954 
H      -1.44750236      -1.47901413       1.55034522        1      -0.00147052      -0.01636548      -0.00003512 
H      -2.90177400      -1.92332894       3.49244184        1       0.00256216      -0.01064828      -0.00470970 
H      -2.24160318      -1.20805429       5.75335038        1      -0.00947230      -0.00940746       0.00161285 
H      -0.10668918      -0.03297440       6.14227067        1      -0.00094781       0.02274305      -0.00991736 
H       3.88776975      -1.02363765       1.13972902        1      -0.00269673      -0.00443886      -0.03662578 
H       2.97192881      -2.26000935       0.58927065        1      -0.01113637      -0.01407993       0.00935954 
H       3.06282576       2.54746888      -1.18942551        1      -0.01803578      -0.00407196       0.00870905 
