27
Properties=species:S:1:pos:R:3:Z:I:1:forces:R:3 magmom=0 energy=-18675.8889165 dipole="-0.3773466 0.4536551 0.0556757" pbc="F F F"
C       2.56887703      -0.54734250      -0.18336145        6       0.01121042       0.01602214      -0.01808997 
C       1.18072328      -0.27045406       0.44824237        6       0.02793951       0.00001728      -0.00157938 
C       1.15012224       0.79566690       1.50243596        6       0.00677218      -0.01966997       0.01440929 
C       0.35818681       0.72009104       2.70003442        6      -0.01647959       0.01322216       0.00799711 
C       0.61850972       1.88188402       3.45477338        6       0.00937203       0.00935820       0.01602286 
C       1.83804837       1.97395689       1.57660379        6      -0.00039184      -0.01842432      -0.01270526 
N       1.51741694       2.63197247       2.74261849        7       0.00317187      -0.01230026      -0.01014624 
C      -0.54030650      -0.22767040       3.20370453        6       0.00482498      -0.00670112       0.00211314 
C       0.02885854       2.11095617       4.69627710        6      -0.00320462      -0.01096442       0.01786207 
C       2.93865217       0.58333282      -1.11748980        6      -0.00453841      -0.00257280      -0.01824625 
C      -1.12659851      -0.00656087       4.43165124        6       0.00267153      -0.01579326       0.00171261 
C      -0.83851916       1.15070263       5.17348574        6       0.00013971      -0.02025916       0.02034931 
N       3.66358205      -0.75655064       0.74023941        7      -0.01109534       0.00701027      -0.00145190 
O       2.22412881       0.54165328      -2.25302806        8      -0.01239843      -0.00458479      -0.02338300 
H       2.45632992      -1.43534753      -0.80884046        1      -0.00489816       0.01586993      -0.00798595 
H       0.86263537      -1.20945016       0.90782580        1      -0.01336814       0.02098910       0.00031594 
H       0.46570867      -0.06621174      -0.35381107        1       0.01051669      -0.00076670       0.02462186 
O       3.74177923       1.44526160      -0.89142751        8       0.01216883      -0.02208763       0.02038849 
H       2.55223563       2.40095139       0.89328194        1       0.00639634       0.00702847      -0.00379942 
H       1.92764410       3.49452355       3.05024509        1      -0.00867300       0.01021921      -0.02467272 
H      -0.77270561      -1.12117195       2.63888098        1      -0.00237956      -0.01674894      -0.00177190 
H      -1.81643949      -0.73473870       4.83495726        1      -0.00504651      -0.00169904       0.00957165 
H      -1.29816689       1.28463971       6.14257397        1      -0.03838981       0.02841064      -0.00150512 
H       0.24630753       3.00084957       5.27171260        1       0.01718819       0.01466023      -0.01401472 
H       3.94012963       0.13004969       1.14478876        1       0.03872678      -0.01912181       0.01378903 
H       3.37882805      -1.36437277       1.49813885        1      -0.01868256       0.01618679      -0.00725236 
H       2.48513323       1.30140064      -2.78869043        1      -0.01155315       0.01269976      -0.00254909 
