27
Properties=species:S:1:pos:R:3:Z:I:1:forces:R:3 magmom=0 energy=-18675.8875424 dipole="-0.4209021 0.4448942 0.0806961" pbc="F F F"
C       2.53472549      -0.50267535      -0.23536563        6      -0.01335169      -0.01656834       0.02927124 
C       1.19375886      -0.27760078       0.50293225        6      -0.01528706       0.01399827       0.01693370 
C       1.20118952       0.71483551       1.62779429        6      -0.01446225       0.01547367      -0.00609969 
C       0.37547050       0.60406920       2.80101076        6       0.00274296      -0.01497935       0.00506070 
C       0.62815679       1.73267271       3.60738796        6       0.01018969      -0.00735274      -0.00744422 
C       1.90110725       1.87944991       1.76733443        6       0.00895325      -0.00834652      -0.00625776 
N       1.56535878       2.49000852       2.95483245        7      -0.00616659       0.02747013      -0.02717080 
C      -0.55091159      -0.34828007       3.24017712        6      -0.01526258      -0.00546586      -0.01558706 
C      -0.01007619       1.93236435       4.82991010        6       0.01261651      -0.02691621      -0.00592367 
C       2.92047554       0.73457071      -1.01579632        6      -0.01063655       0.01493749       0.03879517 
C      -1.18582780      -0.15670552       4.44892747        6      -0.01971964       0.00938113      -0.00708684 
C      -0.91864876       0.97642109       5.23441352        6       0.01860204      -0.01310167       0.02381695 
N       3.65498013      -0.90595916       0.58702326        7       0.01322534      -0.02544554       0.00056960 
O       2.14097938       0.90209047      -2.09711232        8       0.02424648       0.00795037      -0.00163388 
H       2.34420525      -1.27954798      -0.97922412        1       0.03993278      -0.00005908       0.01055340 
H       0.90591104      -1.24897493       0.91326008        1      -0.00072952      -0.00037811      -0.02273200 
H       0.42762566      -0.01984327      -0.23364702        1       0.00963413       0.00106392      -0.00289964 
O       3.78700277       1.50823491      -0.71700271        8       0.00383830      -0.03613341      -0.02806544 
H       2.62913832       2.33127633       1.11611846        1       0.01544822       0.00549337       0.00600862 
H       1.92248102       3.37437060       3.26679216        1       0.02220431      -0.02082517       0.01621271 
H      -0.77404358      -1.21924082       2.63745819        1       0.01056194      -0.01904838       0.00094411 
H      -1.90145926      -0.88676962       4.80077007        1      -0.00625524       0.00366603       0.00335688 
H      -1.43076821       1.09787994       6.17814826        1      -0.01583805       0.00655786       0.02505581 
H       0.20465013       2.79614049       5.44457562        1      -0.01206079       0.02701685      -0.01254776 
H       3.95657379      -0.14453894       1.18343149        1      -0.02332124       0.02341195      -0.03671016 
H       3.39427110      -1.68223695       1.18190895        1      -0.01006654       0.03195213       0.00347469 
H       2.42485569       1.71589949      -2.53282519        1      -0.02903814       0.00624711       0.00010536 
