27
Properties=species:S:1:pos:R:3:Z:I:1:forces:R:3 magmom=0 energy=-18675.6486373 dipole="-0.35926 0.6293989 0.9513394" pbc="F F F"
C       2.59195170      -0.51639363      -0.19567583        6       0.00179273       0.01704492      -0.01003358 
C       1.23882982      -0.24560406       0.49171456        6      -0.00343463      -0.02873018      -0.03477633 
C       1.25350171       0.38164455       1.85433726        6       0.02823977      -0.01696501      -0.01584021 
C       0.30698833       0.04613574       2.88575194        6       0.00089562       0.02233847      -0.01395256 
C       0.61861928       0.82222620       4.01964445        6      -0.00024240       0.00678576       0.00631499 
C       2.07905245       1.32548562       2.39331169        6       0.00094581      -0.00615265       0.00911466 
N       1.71396704       1.58244483       3.69682582        7      -0.03706888       0.02696368      -0.00676005 
C      -0.78926432      -0.82218595       2.93555350        6       0.01568388       0.00514894       0.00563421 
C      -0.13043882       0.75408979       5.19357671        6      -0.00398752       0.02613095       0.01002463 
C       3.17525322       0.67463241      -0.94767349        6      -0.03274105       0.01743676      -0.01250163 
C      -1.53519165      -0.89312256       4.09357439        6       0.01297291       0.00623143       0.00584828 
C      -1.20801742      -0.10823493       5.21243490        6       0.01226488       0.01127383       0.00136196 
N       3.64513179      -1.05949592       0.65266639        7      -0.00994030       0.01081056       0.00659545 
O       2.80406724       1.86775084      -0.43818095        8       0.02337349       0.01126591       0.01142316 
H       2.41687803      -1.24234254      -0.99058094        1       0.02215237      -0.00671701       0.01697057 
H       0.75823562      -1.22067255       0.59912959        1      -0.01775383      -0.01134237      -0.00766852 
H       0.60208412       0.32833095      -0.18785703        1       0.01953766       0.02066961      -0.00121243 
O       3.88929826       0.58695793      -1.90209100        8      -0.01225172      -0.01180358      -0.01689498 
H       2.90026105       1.85757618       1.94439185        1      -0.01442646      -0.01554397       0.01545321 
H       2.13705373       2.27628369       4.28499837        1       0.00938463      -0.01306959       0.02303570 
H      -1.05155857      -1.41786764       2.07080176        1      -0.03034103      -0.02693874       0.02072037 
H      -2.38750122      -1.55681527       4.14352432        1       0.00163995       0.01013462       0.00053109 
H      -1.81638479      -0.17397928       6.10452939        1       0.01432110      -0.02219484      -0.01477022 
H       0.11483915       1.36112513       6.05587744        1       0.00266886      -0.01592007      -0.02261841 
H       3.69045289      -0.54726532       1.52514744        1      -0.01137461      -0.02445315       0.03549372 
H       3.44643667      -2.02373992       0.88442345        1       0.00550046      -0.00086183      -0.00693797 
H       3.21998558       2.54757744      -0.98432541        1       0.00218837       0.00845754      -0.00455507 
