27
Properties=species:S:1:pos:R:3:Z:I:1:forces:R:3 magmom=0 energy=-18675.828842 dipole="0.1768463 0.5334649 0.1390911" pbc="F F F"
C       2.52038580      -0.52665554      -0.11662574        6       0.01742468      -0.00538029       0.01452031 
C       1.05892021      -0.23883066       0.26627689        6      -0.00145463      -0.00173575      -0.00732734 
C       0.84170956       1.13881664       0.81799506        6      -0.01271323      -0.00979714       0.01586304 
C       0.27516239       1.44875774       2.10339949        6      -0.02065228       0.00784973       0.01074572 
C       0.26978466       2.85352576       2.23667258        6       0.00741362       0.00930189       0.00421707 
C       1.14190996       2.33879876       0.23777637        6       0.00669793      -0.01790182      -0.00658598 
N       0.80997005       3.36870238       1.08762728        7      -0.01386467       0.00294823      -0.01984069 
C      -0.25473291       0.67195354       3.14146475        6       0.00527014      -0.00908366       0.01046326 
C      -0.22589190       3.49479415       3.37095779        6       0.01681728      -0.00963968       0.01956892 
C       2.89263558       0.24455270      -1.37683302        6       0.00239750      -0.03371997      -0.00096324 
C      -0.74898306       1.30027008       4.26499611        6       0.01810833       0.00073811      -0.00011349 
C      -0.72829020       2.70054445       4.38028907        6      -0.00869007      -0.00857453       0.00505561 
N       3.50342786      -0.32976175       0.93068296        7       0.02100427      -0.00358551       0.01058256 
O       4.20598126       0.46000994      -1.50808415        8      -0.01020800       0.00861654       0.00871681 
H       2.58236838      -1.57645716      -0.42516471        1       0.01383866       0.01184168      -0.01794332 
H       0.77769532      -0.96824784       1.02804206        1      -0.01649409       0.01033851      -0.01033542 
H       0.42517422      -0.42207908      -0.60175414        1      -0.01163897       0.02052702      -0.01431338 
O       2.09733093       0.59867791      -2.20620110        8       0.00362731      -0.00405268       0.02193460 
H       1.55152831       2.54496954      -0.73567905        1       0.00354391       0.01332773      -0.02347602 
H       0.93164579       4.34334970       0.88491781        1      -0.00998689       0.02319418       0.00460042 
H      -0.29103287      -0.40671094       3.06024530        1       0.02229836      -0.01345931       0.00550077 
H      -1.16192457       0.71196793       5.07333073        1       0.01044665       0.00098540      -0.01540081 
H      -1.11758305       3.16203286       5.27727283        1      -0.01175812       0.01195301      -0.00510431 
H      -0.21894416       4.57334789       3.45901238        1       0.00786722      -0.00497658      -0.01537571 
H       3.46073797       0.62069542       1.28104942        1      -0.01798420      -0.01564743       0.02037975 
H       3.31768955      -0.94853607       1.70934451        1      -0.02263203       0.01480277      -0.01082069 
H       4.33127649       0.90460509      -2.35655905        1       0.00132129       0.00112954      -0.00454854 
