27
Properties=species:S:1:pos:R:3:Z:I:1:forces:R:3 magmom=0 energy=-18675.8403007 dipole="-0.5150051 -1.1579091 -0.2078245" pbc="F F F"
C       2.45049933      -0.57395934      -0.11843157        6       0.03035306       0.01276836      -0.01121988 
C       1.26721792      -0.44147733       0.85549307        6       0.02072073      -0.01111262      -0.01645630 
C      -0.05772420      -0.65508162       0.18799640        6       0.00815806      -0.01768899       0.00409705 
C      -1.21212762       0.20089128       0.24406802        6       0.00851863      -0.00813142       0.01324761 
C      -2.21593220      -0.39759417      -0.54729336        6      -0.00655858       0.01057695       0.01479577 
C      -0.39753033      -1.70136366      -0.61849492        6      -0.01646879      -0.00993361       0.00223455 
N      -1.68932382      -1.55501055      -1.06494038        7      -0.01611511       0.00809476       0.02161090 
C      -1.49108147       1.41056983       0.89311717        6       0.01402845       0.00157897      -0.01207282 
C      -3.47896908       0.17267058      -0.70250102        6      -0.00615548      -0.00468933       0.01000267 
C       2.29202416       0.47463987      -1.20277255        6       0.01258231       0.01503581      -0.00551599 
C      -2.74146158       1.97308782       0.74775728        6       0.00830389       0.00122441      -0.00598527 
C      -3.72733183       1.35811511      -0.04230719        6       0.00764548      -0.01313505       0.00755426 
N       3.76460423      -0.36204127       0.47132698        7      -0.00046203       0.03384009       0.01713342 
O       2.10999393      -0.03822020      -2.42621325        8      -0.00392854       0.00162566      -0.00140511 
H       2.43736666      -1.55749365      -0.58771799        1       0.00487893       0.00645727       0.00646031 
H       1.30574631       0.55822264       1.29432649        1      -0.00082347      -0.02353701      -0.01497992 
H       1.42598349      -1.15789044       1.66557241        1      -0.02747044       0.01971517       0.01956265 
O       2.32989830       1.65300883      -0.98537757        8       0.00300979       0.01903306       0.00975559 
H       0.19170891      -2.55022716      -0.92467116        1      -0.02062200      -0.00749672       0.00139791 
H      -2.17685272      -2.21360709      -1.64380549        1      -0.01273082       0.03195290      -0.02518313 
H      -0.73474064       1.89968584       1.49430309        1      -0.02107801      -0.02033578      -0.00110763 
H      -2.97538339       2.90387659       1.24559848        1       0.02483017       0.00405581       0.00281315 
H      -4.70005564       1.82351112      -0.13037250        1       0.02067234      -0.00803280      -0.02033331 
H      -4.23906177      -0.29445719      -1.31418407        1       0.00503504      -0.02463420      -0.00283253 
H       3.81867500       0.57387263       0.85831441        1       0.00779168      -0.00161645      -0.01668132 
H       3.93926203      -1.02140409       1.21883969        1      -0.04050002      -0.00182862      -0.00281274 
H       2.00844654       0.70473796      -3.03668694        1      -0.00361528      -0.01378662       0.00592012 
