27
Properties=species:S:1:pos:R:3:Z:I:1:forces:R:3 magmom=0 energy=-18675.8889165 dipole="-0.3773467 0.4536553 0.0556755" pbc="F F F"
C       2.56887713      -0.54734249      -0.18336138        6       0.01120939       0.01602250      -0.01809028 
C       1.18072328      -0.27045414       0.44824226        6       0.02793925       0.00001753      -0.00157876 
C       1.15012210       0.79566685       1.50243580        6       0.00677337      -0.01966853       0.01440995 
C       0.35818675       0.72009105       2.70003430        6      -0.01648016       0.01322102       0.00799752 
C       0.61850982       1.88188394       3.45477332        6       0.00937213       0.00935969       0.01602281 
C       1.83804837       1.97395676       1.57660369        6      -0.00039168      -0.01842273      -0.01270444 
N       1.51741715       2.63197236       2.74261849        7       0.00316791      -0.01230808      -0.01014933 
C      -0.54030657      -0.22767040       3.20370442        6       0.00482478      -0.00669911       0.00211453 
C       0.02885863       2.11095614       4.69627702        6      -0.00320385      -0.01096401       0.01786140 
C       2.93865224       0.58333288      -1.11748967        6      -0.00454103      -0.00257604      -0.01824609 
C      -1.12659851      -0.00656084       4.43165119        6       0.00267199      -0.01579465       0.00171127 
C      -0.83851911       1.15070265       5.17348563        6       0.00013920      -0.02025916       0.02035213 
N       3.66358205      -0.75655062       0.74023954        7      -0.01109842       0.00700183      -0.00144604 
O       2.22412855       0.54165348      -2.25302767        8      -0.01239873      -0.00458232      -0.02338732 
H       2.45633002      -1.43534746      -0.80884045        1      -0.00489780       0.01586936      -0.00798631 
H       0.86263538      -1.20945023       0.90782571        1      -0.01336814       0.02098874       0.00031604 
H       0.46570871      -0.06621191      -0.35381123        1       0.01051694      -0.00076665       0.02462176 
O       3.74177941       1.44526153      -0.89142758        8       0.01217237      -0.02208460       0.02038998 
H       2.55223560       2.40095126       0.89328182        1       0.00639670       0.00702847      -0.00379958 
H       1.92764399       3.49452349       3.05024498        1      -0.00867017       0.01022410      -0.02467138 
H      -0.77270577      -1.12117185       2.63888082        1      -0.00237966      -0.01674997      -0.00177216 
H      -1.81643933      -0.73473873       4.83495734        1      -0.00504697      -0.00169888       0.00957140 
H      -1.29816669       1.28463974       6.14257397        1      -0.03838976       0.02841033      -0.00150641 
H       0.24630765       3.00084950       5.27171256        1       0.01718834       0.01466028      -0.01401483 
H       3.94012977       0.13004971       1.14478858        1       0.03872807      -0.01911852       0.01379073 
H       3.37882781      -1.36437249       1.49813935        1      -0.01868009       0.01619199      -0.00725910 
H       2.48513293       1.30140086      -2.78869013        1      -0.01155402       0.01269745      -0.00254750 
