27
Properties=species:S:1:pos:R:3:Z:I:1:forces:R:3 magmom=0 energy=-18675.9713099 dipole="-0.4061795 -0.1739785 1.2058867" pbc="F F F"
C       2.04946459      -0.41924667      -0.09218986        6      -0.00778654      -0.01189043      -0.00410919 
C       1.64467975       0.29049537       1.22829195        6       0.01748098       0.00383465       0.00230134 
C       0.94635176      -0.64771991       2.15204735        6       0.00779209       0.01760949      -0.01108536 
C      -0.41189745      -1.09950226       2.01883702        6      -0.00396084       0.00385691      -0.02392730 
C      -0.65411603      -2.01422368       3.06370750        6      -0.00278127       0.01646401      -0.00245947 
C       1.45858696      -1.29128237       3.23887279        6       0.00510410       0.00956749       0.00072248 
N       0.50649176      -2.11923729       3.79053016        7      -0.01222040       0.04095721      -0.00690917 
C      -1.44349797      -0.79569038       1.12276411        6      -0.02253078      -0.00468208       0.00033296 
C      -1.89324471      -2.62608968       3.23938303        6       0.00043128       0.00098895       0.03788870 
C       2.59558034       0.63911482      -1.02065437        6      -0.00972098      -0.04652823       0.00446153 
C      -2.67096128      -1.39921540       1.29502269        6      -0.03125258       0.00394284       0.00441654 
C      -2.89261973      -2.30479306       2.34482636        6      -0.01226972      -0.00090071       0.01852017 
N       3.03298118      -1.46973566       0.05442164        7       0.01262401       0.00322951       0.00381835 
O       1.61690147       1.26712953      -1.69606161        8       0.00012933       0.01475165      -0.00912675 
H       1.15010766      -0.84065522      -0.54461157        1       0.00053762       0.02980042      -0.00314117 
H       0.99728867       1.13981273       0.99619415        1      -0.03216810      -0.00877502      -0.00351017 
H       2.55072397       0.68964861       1.69101183        1      -0.00498100      -0.02689050      -0.00374651 
O       3.75107732       0.93983160      -1.11676098        8       0.01397616      -0.01317768       0.01491543 
H       2.43937408      -1.21338160       3.67819615        1       0.02010515      -0.00874232      -0.00213720 
H       0.62471122      -2.66302803       4.62479207        1       0.00332259      -0.02527446       0.01098545 
H      -1.28831726      -0.09196075       0.31400680        1       0.03784500       0.00099867       0.00912757 
H      -3.48433320      -1.17017231       0.62120057        1       0.00359512       0.00607984      -0.02940818 
H      -3.87082215      -2.75073422       2.45941262        1       0.00236310      -0.02066000      -0.00790054 
H      -2.07116901      -3.31707306       4.05219238        1       0.00576205      -0.02126112       0.00199456 
H       3.92577359      -1.07992035       0.33653395        1      -0.01224539       0.00706668      -0.03870878 
H       2.73032738      -2.13227342       0.75819507        1       0.01193069       0.02939995       0.01072839 
H       2.02668446       1.95742320      -2.23346776        1       0.00891844       0.00023428       0.02595637 
