27
Properties=species:S:1:pos:R:3:Z:I:1:forces:R:3 magmom=0 energy=-18675.8753 dipole="-0.4978244 0.6952962 -0.0575923" pbc="F F F"
C       2.59093939      -0.48219413      -0.11268012        6      -0.00147833       0.00142537       0.00378430 
C       1.18871154      -0.07947211       0.40229293        6      -0.00122801       0.00996308       0.00108331 
C       1.17109768       1.00456335       1.43917477        6      -0.00999079      -0.00145314      -0.00005255 
C       0.42520277       0.95675140       2.66820451        6       0.00529992      -0.00913359       0.00483409 
C       0.64454672       2.17354612       3.34652091        6      -0.01763751       0.00088209      -0.00713311 
C       1.79116581       2.22211124       1.42263454        6      -0.00290154      -0.00658269      -0.00376610 
N       1.47558313       2.92836068       2.55988196        7       0.02147339      -0.02539355       0.01389008 
C      -0.41383284      -0.00101322       3.25014393        6       0.00908582      -0.00627195       0.00283336 
C       0.06412143       2.45257422       4.58249456        6      -0.00866277      -0.00688022       0.00223398 
C       3.23375733       0.69472944      -0.80984933        6       0.02518072      -0.01501262      -0.02275180 
C      -0.99437845       0.27132705       4.47082475        6       0.00839044      -0.00534224      -0.00060796 
C      -0.75615188       1.48845252       5.13069755        6       0.00032828      -0.01192174       0.00728512 
N       3.51007892      -0.99551218       0.87867664        7      -0.00710164      -0.00786588      -0.00049807 
O       2.52214547       1.08260126      -1.88471000        8       0.01600923      -0.00207966      -0.00354689 
H       2.43851916      -1.24179314      -0.88496513        1      -0.01544703       0.00719564       0.00743507 
H       0.74677708      -0.97908739       0.83574166        1       0.00063599       0.00577886      -0.01547794 
H       0.56817257       0.18608908      -0.45614842        1       0.00588253       0.02051046       0.00422869 
O       4.22842431       1.26137116      -0.45574206        8      -0.02070304       0.00694177      -0.00073996 
H       2.44728197       2.66212940       0.69127217        1       0.00904838      -0.00827972      -0.00553929 
H       1.85216175       3.82698311       2.79939005        1      -0.01593117       0.00620649       0.00946377 
H      -0.60694748      -0.94128578       2.74933984        1      -0.00622459       0.00320421       0.01011606 
H      -1.64220231      -0.46118499       4.93241185        1      -0.00184204       0.00674488      -0.00109812 
H      -1.22616799       1.67121188       6.08701106        1       0.00327631       0.00770004       0.00754120 
H       0.24535146       3.38913631       5.09280161        1       0.00014887       0.00658753      -0.00911014 
H       3.91338944      -0.23776222       1.41552846        1      -0.00078794       0.01857293       0.00000165 
H       3.03710988      -1.62202089       1.51689009        1      -0.00327795       0.02686340       0.00164936 
H       2.96864202       1.84753182      -2.26921910        1       0.00845451      -0.02235975      -0.00605793 
