27
Properties=species:S:1:pos:R:3:Z:I:1:forces:R:3 magmom=0 energy=-18675.8889165 dipole="-0.3773467 0.4536553 0.0556755" pbc="F F F"
C       2.56887711      -0.54734248      -0.18336139        6       0.01120960       0.01602245      -0.01809023 
C       1.18072328      -0.27045410       0.44824229        6       0.02793925       0.00001723      -0.00157891 
C       1.15012213       0.79566687       1.50243584        6       0.00677331      -0.01966853       0.01440970 
C       0.35818677       0.72009106       2.70003434        6      -0.01647985       0.01322128       0.00799731 
C       0.61850981       1.88188396       3.45477335        6       0.00937203       0.00935959       0.01602291 
C       1.83804837       1.97395680       1.57660372        6      -0.00039173      -0.01842273      -0.01270444 
N       1.51741713       2.63197240       2.74261851        7       0.00316811      -0.01230756      -0.01014907 
C      -0.54030655      -0.22767039       3.20370443        6       0.00482478      -0.00669932       0.00211422 
C       0.02885860       2.11095616       4.69627704        6      -0.00320380      -0.01096411       0.01786146 
C       2.93865223       0.58333290      -1.11748968        6      -0.00454077      -0.00257578      -0.01824599 
C      -1.12659850      -0.00656084       4.43165119        6       0.00267168      -0.01579449       0.00171153 
C      -0.83851913       1.15070265       5.17348564        6       0.00013930      -0.02025911       0.02035198 
N       3.66358204      -0.75655062       0.74023952        7      -0.01109781       0.00700281      -0.00144676 
O       2.22412861       0.54165344      -2.25302774        8      -0.01239848      -0.00458232      -0.02338691 
H       2.45633000      -1.43534746      -0.80884046        1      -0.00489785       0.01586957      -0.00798616 
H       0.86263540      -1.20945019       0.90782573        1      -0.01336825       0.02098869       0.00031609 
H       0.46570870      -0.06621188      -0.35381120        1       0.01051689      -0.00076655       0.02462176 
O       3.74177936       1.44526159      -0.89142755        8       0.01217181      -0.02208506       0.02038967 
H       2.55223559       2.40095132       0.89328185        1       0.00639665       0.00702837      -0.00379958 
H       1.92764396       3.49452355       3.05024499        1      -0.00867038       0.01022363      -0.02467149 
H      -0.77270575      -1.12117184       2.63888082        1      -0.00237956      -0.01674981      -0.00177206 
H      -1.81643937      -0.73473871       4.83495730        1      -0.00504692      -0.00169904       0.00957150 
H      -1.29816672       1.28463973       6.14257398        1      -0.03838981       0.02841038      -0.00150636 
H       0.24630763       3.00084950       5.27171260        1       0.01718829       0.01466028      -0.01401488 
H       3.94012974       0.13004970       1.14478863        1       0.03872791      -0.01911883       0.01379052 
H       3.37882786      -1.36437256       1.49813927        1      -0.01868045       0.01619142      -0.00725838 
H       2.48513300       1.30140082      -2.78869020        1      -0.01155397       0.01269755      -0.00254755 
