27
Properties=species:S:1:pos:R:3:Z:I:1:forces:R:3 magmom=0 energy=-18675.8889165 dipole="-0.3773466 0.4536552 0.0556756" pbc="F F F"
C       2.56887707      -0.54734246      -0.18336142        6       0.01121011       0.01602224      -0.01809008 
C       1.18072328      -0.27045407       0.44824233        6       0.02793946       0.00001733      -0.00157927 
C       1.15012220       0.79566690       1.50243591        6       0.00677265      -0.01966935       0.01440949 
C       0.35818680       0.72009105       2.70003439        6      -0.01647974       0.01322169       0.00799711 
C       0.61850977       1.88188400       3.45477338        6       0.00937203       0.00935887       0.01602281 
C       1.83804837       1.97395687       1.57660376        6      -0.00039178      -0.01842370      -0.01270490 
N       1.51741703       2.63197245       2.74261850        7       0.00317012      -0.01230360      -0.01014753 
C      -0.54030653      -0.22767039       3.20370448        6       0.00482493      -0.00670035       0.00211370 
C       0.02885857       2.11095617       4.69627708        6      -0.00320431      -0.01096442       0.01786176 
C       2.93865221       0.58333289      -1.11748974        6      -0.00453959      -0.00257450      -0.01824619 
C      -1.12659851      -0.00656085       4.43165121        6       0.00267168      -0.01579383       0.00171215 
C      -0.83851915       1.15070264       5.17348569        6       0.00013941      -0.02025916       0.02035049 
N       3.66358204      -0.75655062       0.74023946        7      -0.01109642       0.00700677      -0.00144974 
O       2.22412877       0.54165338      -2.25302793        8      -0.01239858      -0.00458366      -0.02338480 
H       2.45632996      -1.43534747      -0.80884047        1      -0.00489805       0.01586983      -0.00798605 
H       0.86263540      -1.20945017       0.90782576        1      -0.01336825       0.02098900       0.00031599 
H       0.46570869      -0.06621177      -0.35381112        1       0.01051679      -0.00076675       0.02462186 
O       3.74177930       1.44526162      -0.89142750        8       0.01217037      -0.02208619       0.02038906 
H       2.55223560       2.40095138       0.89328188        1       0.00639644       0.00702847      -0.00379942 
H       1.92764402       3.49452357       3.05024505        1      -0.00867177       0.01022132      -0.02467215 
H      -0.77270570      -1.12117189       2.63888091        1      -0.00237945      -0.01674925      -0.00177200 
H      -1.81643943      -0.73473870       4.83495727        1      -0.00504677      -0.00169904       0.00957160 
H      -1.29816684       1.28463971       6.14257396        1      -0.03838976       0.02841059      -0.00150569 
H       0.24630756       3.00084955       5.27171259        1       0.01718824       0.01466033      -0.01401467 
H       3.94012968       0.13004968       1.14478875        1       0.03872730      -0.01912016       0.01378975 
H       3.37882796      -1.36437269       1.49813901        1      -0.01868169       0.01618875      -0.00725493 
H       2.48513316       1.30140075      -2.78869034        1      -0.01155346       0.01269873      -0.00254832 
