27
Properties=species:S:1:pos:R:3:Z:I:1:forces:R:3 magmom=0 energy=-18675.8657052 dipole="0.6524244 -0.6926422 0.5730108" pbc="F F F"
C       2.44954867      -0.59385041      -0.48161121        6       0.00870108      -0.01173601       0.00739223 
C       1.05868319      -0.01029444      -0.23985214        6       0.01476364       0.00415480      -0.00404275 
C       0.02354171      -1.00654643       0.17279405        6       0.01572415       0.01714731       0.01391337 
C      -1.34908846      -0.67417624       0.43761717        6      -0.00983421      -0.00554782      -0.01177750 
C      -2.00864932      -1.86687831       0.79715391        6      -0.00600929      -0.00892353       0.00424530 
C       0.14152753      -2.34891311       0.37867667        6       0.00848562       0.01762784       0.00457245 
N      -1.07836474      -2.87439748       0.74514899        7       0.00968211       0.00864693      -0.00448061 
C      -2.07071183       0.52342801       0.40462578        6      -0.00960847       0.00195100       0.01008474 
C      -3.36058940      -1.89283208       1.13104622        6      -0.01444060      -0.00335128      -0.00150667 
C       3.34050116       0.51728192      -1.03021106        6      -0.00694198       0.00987160      -0.00639346 
C      -3.40985313       0.50281320       0.73613440        6      -0.02030169      -0.00783261      -0.01008474 
C      -4.04739082      -0.69571455       1.09447895        6      -0.01007394      -0.01129969       0.00552977 
N       2.95355041      -1.28820226       0.69067308        7       0.02009374       0.02159783      -0.00013529 
O       4.57232302       0.53638205      -0.48800857        8      -0.00759134       0.00110650       0.00564691 
H       2.37364141      -1.31048643      -1.30865597        1      -0.00211000      -0.00875368      -0.00680849 
H       0.74638183       0.49799984      -1.15351435        1      -0.00401663      -0.00581049       0.00587867 
H       1.14254543       0.77331985       0.52340621        1      -0.00543716      -0.01280389       0.01120338 
O       3.00825880       1.28885262      -1.88475792        8       0.00024204      -0.00231399      -0.00780757 
H       1.01901121      -2.97037167       0.31986740        1      -0.01610940       0.00392988      -0.00441993 
H      -1.24835453      -3.83766143       0.96728728        1      -0.00017334      -0.00525102       0.00432346 
H      -1.58544326       1.44938090       0.12299430        1       0.00249366       0.00306789       0.00939162 
H      -3.98568097       1.41767082       0.72086440        1       0.01333760       0.01500280      -0.01472224 
H      -5.09938663      -0.68003549       1.34466087        1       0.00476395      -0.00443197       0.01166304 
H      -3.85537880      -2.81343317       1.41137962        1      -0.00081627      -0.00016260      -0.01416750 
H       3.96405067      -1.31312512       0.70270207        1      -0.00335452      -0.02000097      -0.02619461 
H       2.64716606      -0.82618412       1.53758784        1       0.01219001       0.02119900       0.01318837 
H       5.05920484       1.24978107      -0.92121898        1       0.00634122      -0.01708385       0.00550807 
