27
Properties=species:S:1:pos:R:3:Z:I:1:forces:R:3 magmom=0 energy=-18675.6289281 dipole="-0.4018344 -0.4532123 0.7611486" pbc="F F F"
C       2.53450137      -0.61366577      -0.20497710        6      -0.01388051       0.00407695      -0.00143236 
C       1.27810137      -0.01737099       0.48874608        6      -0.01453532       0.00687472      -0.01945225 
C       0.00191964      -0.75175688       0.22753484        6      -0.00941358       0.00631622      -0.00883796 
C      -1.30217672      -0.15302971       0.29186866        6       0.01018465      -0.00346045       0.01550504 
C      -2.24511174      -1.15776556       0.00005935        6       0.00683646      -0.00145154       0.00001928 
C      -0.19599876      -2.06203617      -0.09284403        6      -0.01109380      -0.00669947       0.00305869 
N      -1.54415615      -2.31601911      -0.22238255        7       0.00231939       0.01033861       0.00296150 
C      -1.74609464       1.14778388       0.54970125        6      -0.00635109      -0.00151551      -0.00402732 
C      -3.61303131      -0.89701589      -0.04800259        6       0.00061059      -0.01532763      -0.00103873 
C       3.09862047       0.42873605      -1.14367162        6      -0.02544688       0.00295862       0.03806272 
C      -3.09815176       1.41101563       0.50329251        6       0.00180918       0.00957124      -0.01991551 
C      -4.02231972       0.39636497       0.20485111        6      -0.01223989       0.00020970      -0.00891134 
N       3.59429848      -1.06650626       0.68715570        7       0.01281937      -0.00478585      -0.02747574 
O       3.68945557       1.43108867      -0.46010896        8       0.02637083      -0.01258704      -0.00766281 
H       2.23790522      -1.44462103      -0.84029572        1       0.03150023      -0.01388555      -0.00262345 
H       1.13724039       1.02071374       0.18173589        1       0.00383747       0.03396278       0.00164139 
H       1.48266970       0.02127822       1.56223260        1      -0.01382040       0.00676822      -0.00856892 
O       3.00174918       0.42885179      -2.33522874        8      -0.00049339      -0.01010521      -0.01811949 
H       0.51617506      -2.85467346      -0.25437967        1       0.00594532       0.01320051       0.01897310 
H      -1.94316415      -3.20069659      -0.47526786        1      -0.00752942      -0.00919555      -0.01683558 
H      -1.04005920       1.93635755       0.77488223        1       0.00613810       0.00691509       0.01773254 
H      -3.45448987       2.41421491       0.68926606        1      -0.02423100       0.00629170       0.01345592 
H      -5.07487462       0.63915497       0.16490567        1      -0.01969959      -0.02013930       0.01484766 
H      -4.32456614      -1.67683828      -0.28373375        1      -0.02236053       0.00313366      -0.00094025 
H       3.94833286      -0.28774507       1.22988526        1       0.00086209       0.00477068       0.01073646 
H       3.22459658      -1.74784733       1.33774831        1       0.02671222      -0.02632938       0.01420493 
H       3.98749755       2.08413820      -1.10510382        1       0.04514950       0.01009369      -0.00535751 
