27
Properties=species:S:1:pos:R:3:Z:I:1:forces:R:3 magmom=0 energy=-18675.7485602 dipole="-0.1820614 -0.7820687 0.8249469" pbc="F F F"
C       2.53917161      -0.46247399      -0.04382612        6       0.00429426       0.01257151       0.00105148 
C       1.12010547      -0.08131807       0.36014635        6      -0.00106166       0.01743707      -0.02006037 
C       0.35294390      -1.15155784       1.07106126        6       0.00349192       0.00271627      -0.01160061 
C      -1.07563770      -1.11993039       1.22715553        6       0.00241473      -0.02875203      -0.03039708 
C      -1.45663631      -2.30189767       1.89036809        6       0.00689858       0.00629545       0.04857200 
C       0.77191122      -2.31985838       1.63693501        6      -0.00746463      -0.00177905      -0.03623106 
N      -0.31101026      -3.01657795       2.13295534        7       0.00158030       0.00749996       0.01854789 
C      -2.05913277      -0.20797962       0.83045099        6       0.00817601       0.00395107       0.04191248 
C      -2.78852075      -2.59030797       2.18258963        6       0.00086878      -0.00878983       0.00001116 
C       3.07920097       0.52140971      -1.07013484        6       0.01915698       0.00272558       0.00750150 
C      -3.37954091      -0.49351820       1.10674430        6       0.00233945      -0.00965521      -0.00412719 
C      -3.73831976      -1.67316798       1.78098797        6       0.00926908       0.00081638       0.02399456 
N       3.43642119      -0.41951180       1.10801852        7      -0.01824470      -0.00658660       0.02876319 
O       2.81857671       1.79833077      -0.75151738        8      -0.02392864       0.00333241      -0.00403077 
H       2.51939497      -1.43290267      -0.55019025        1       0.02899901      -0.00051674       0.01279057 
H       0.56575797       0.18431282      -0.54352966        1      -0.00658424       0.00991865      -0.01278219 
H       1.16889098       0.82831950       0.96378308        1      -0.00399786       0.00374389       0.00139642 
O       3.68184467       0.20921699      -2.05877400        8       0.01418056      -0.02362767       0.01040567 
H       1.76192262      -2.74090498       1.71334628        1      -0.01720603       0.01559852      -0.01435864 
H      -0.26433214      -3.88676261       2.63029182        1       0.02246692      -0.00872977      -0.02962878 
H      -1.78572530       0.70886852       0.32385850        1      -0.00785025      -0.01268125      -0.02426345 
H      -4.15400153       0.19456225       0.79812713        1      -0.00904987       0.01385156       0.02690999 
H      -4.78091128      -1.86428503       1.99341327        1      -0.01501961      -0.01013133      -0.01560603 
H      -3.06639646      -3.50076043       2.69767464        1      -0.01595118       0.01852485      -0.00466367 
H       2.99802574      -0.81111790       1.93095206        1       0.01776067       0.01367338      -0.03056127 
H       4.30263654      -0.91113220       0.92976456        1      -0.04355485      -0.00572605       0.01399081 
H       3.20769848       2.35621944      -1.43670285        1       0.02801634      -0.01568106       0.00246343 
