27
Properties=species:S:1:pos:R:3:Z:I:1:forces:R:3 magmom=0 energy=-18675.8885982 dipole="-0.3169287 0.4077879 0.1723067" pbc="F F F"
C       2.51877738      -0.51504443      -0.25424569        6       0.03095012      -0.01389938      -0.02528773 
C       1.17559976      -0.34393527       0.49426260        6       0.00234531      -0.01245998      -0.03422164 
C       1.20326128       0.46128810       1.75799503        6       0.01912921      -0.01176573      -0.01007574 
C       0.30539234       0.24296619       2.86006803        6      -0.01765525       0.01201729      -0.00335627 
C       0.62694420       1.18261817       3.86061788        6      -0.00755786       0.00034129       0.01504908 
C       2.01062885       1.50030174       2.12416959        6      -0.01162627       0.00752716      -0.00693308 
N       1.66498678       1.94006054       3.38244726        7       0.01390777      -0.01074870       0.02403879 
C      -0.73578548      -0.66416167       3.09032998        6       0.02305241      -0.02380945       0.02361368 
C      -0.04258819       1.22641983       5.08251067        6       0.00612082      -0.00102582       0.01185515 
C       2.92239451       0.78681211      -0.91262539        6       0.00342137       0.03487686       0.01369853 
C      -1.40294277      -0.62284251       4.29647458        6       0.01209781      -0.01672359       0.01196118 
C      -1.05540535       0.31104075       5.28609927        6      -0.01595915       0.03618453      -0.01309807 
N       3.63385881      -1.00135330       0.53234006        7      -0.00237606       0.02652037       0.01929464 
O       2.23097602       1.01348566      -2.04071960        8      -0.03674487       0.00463143       0.03184522 
H       2.33336236      -1.21860606      -1.06737698        1      -0.01861818      -0.00300783      -0.01191691 
H       0.83554732      -1.35224970       0.74419037        1      -0.00589559      -0.00055356       0.00425410 
H       0.43562077       0.05564813      -0.20493622        1      -0.00214224       0.00606487      -0.01267780 
O       3.73788257       1.55814308      -0.48919616        8       0.02201872      -0.02610811      -0.00601155 
H       2.82176493       1.96770612       1.59109088        1      -0.02531493       0.00457029      -0.01462114 
H       2.10721912       2.69859737       3.86870315        1       0.00698780      -0.02884253      -0.00084044 
H      -1.01418319      -1.39232686       2.33899790        1       0.00979837       0.01442044      -0.01603803 
H      -2.20156894      -1.32477154       4.49112855        1      -0.01939718      -0.00073096       0.00128509 
H      -1.59611671       0.31243766       6.22285297        1       0.01864148       0.01315896      -0.00166895 
H       0.22825099       1.94280237       5.84754016        1      -0.01306357       0.00014002      -0.01837233 
H       3.97441115      -0.26880700       1.14316450        1       0.01738729       0.00365194      -0.00364063 
H       3.34130089      -1.77425777       1.11670801        1      -0.01194725       0.00812232       0.00433380 
H       2.49964499       1.87715110      -2.38109102        1       0.00244008      -0.02255212       0.01753102 
