27
Properties=species:S:1:pos:R:3:Z:I:1:forces:R:3 magmom=0 energy=-18675.8889165 dipole="-0.3773466 0.4536552 0.0556755" pbc="F F F"
C       2.56887707      -0.54734248      -0.18336141        6       0.01121027       0.01602229      -0.01809003 
C       1.18072328      -0.27045406       0.44824233        6       0.02793946       0.00001743      -0.00157917 
C       1.15012219       0.79566692       1.50243590        6       0.00677254      -0.01966951       0.01440939 
C       0.35818679       0.72009107       2.70003438        6      -0.01647980       0.01322185       0.00799731 
C       0.61850976       1.88188402       3.45477337        6       0.00937224       0.00935892       0.01602281 
C       1.83804835       1.97395690       1.57660374        6      -0.00039178      -0.01842386      -0.01270480 
N       1.51741702       2.63197247       2.74261849        7       0.00317022      -0.01230360      -0.01014773 
C      -0.54030653      -0.22767037       3.20370447        6       0.00482504      -0.00670035       0.00211370 
C       0.02885861       2.11095617       4.69627710        6      -0.00320426      -0.01096437       0.01786176 
C       2.93865222       0.58333286      -1.11748973        6      -0.00453928      -0.00257393      -0.01824625 
C      -1.12659850      -0.00656084       4.43165121        6       0.00267179      -0.01579372       0.00171210 
C      -0.83851911       1.15070264       5.17348572        6       0.00013935      -0.02025901       0.02035039 
N       3.66358204      -0.75655062       0.74023948        7      -0.01109642       0.00700657      -0.00144933 
O       2.22412877       0.54165336      -2.25302792        8      -0.01239837      -0.00458356      -0.02338460 
H       2.45632996      -1.43534750      -0.80884044        1      -0.00489805       0.01586993      -0.00798605 
H       0.86263539      -1.20945016       0.90782577        1      -0.01336819       0.02098905       0.00031599 
H       0.46570870      -0.06621178      -0.35381113        1       0.01051669      -0.00076670       0.02462181 
O       3.74177933       1.44526159      -0.89142749        8       0.01216975      -0.02208681       0.02038880 
H       2.55223559       2.40095139       0.89328186        1       0.00639639       0.00702852      -0.00379932 
H       1.92764402       3.49452359       3.05024502        1      -0.00867182       0.01022127      -0.02467205 
H      -0.77270570      -1.12117187       2.63888090        1      -0.00237950      -0.01674925      -0.00177206 
H      -1.81643944      -0.73473868       4.83495726        1      -0.00504677      -0.00169909       0.00957165 
H      -1.29816679       1.28463971       6.14257399        1      -0.03838976       0.02841054      -0.00150559 
H       0.24630764       3.00084953       5.27171264        1       0.01718813       0.01466012      -0.01401488 
H       3.94012970       0.13004969       1.14478874        1       0.03872714      -0.01912042       0.01378965 
H       3.37882796      -1.36437269       1.49813904        1      -0.01868153       0.01618906      -0.00725524 
H       2.48513316       1.30140073      -2.78869034        1      -0.01155346       0.01269868      -0.00254827 
