27
Properties=species:S:1:pos:R:3:Z:I:1:forces:R:3 magmom=0 energy=-18675.8889165 dipole="-0.3773466 0.4536552 0.0556756" pbc="F F F"
C       2.56887707      -0.54734249      -0.18336143        6       0.01121047       0.01602214      -0.01808992 
C       1.18072329      -0.27045408       0.44824235        6       0.02793961       0.00001733      -0.00157938 
C       1.15012222       0.79566691       1.50243591        6       0.00677213      -0.01967002       0.01440918 
C       0.35818680       0.72009105       2.70003438        6      -0.01647974       0.01322216       0.00799721 
C       0.61850974       1.88188401       3.45477337        6       0.00937229       0.00935835       0.01602260 
C       1.83804836       1.97395690       1.57660375        6      -0.00039189      -0.01842448      -0.01270516 
N       1.51741697       2.63197246       2.74261847        7       0.00317176      -0.01230052      -0.01014655 
C      -0.54030654      -0.22767037       3.20370447        6       0.00482509      -0.00670117       0.00211314 
C       0.02885860       2.11095615       4.69627711        6      -0.00320457      -0.01096442       0.01786202 
C       2.93865222       0.58333285      -1.11748975        6      -0.00453825      -0.00257239      -0.01824655 
C      -1.12659852      -0.00656086       4.43165121        6       0.00267158      -0.01579311       0.00171256 
C      -0.83851911       1.15070261       5.17348574        6       0.00013946      -0.02025927       0.02034941 
N       3.66358205      -0.75655062       0.74023946        7      -0.01109544       0.00700960      -0.00145062 
O       2.22412874       0.54165341      -2.25302796        8      -0.01239781      -0.00458433      -0.02338269 
H       2.45632999      -1.43534751      -0.80884047        1      -0.00489816       0.01587003      -0.00798585 
H       0.86263541      -1.20945018       0.90782578        1      -0.01336819       0.02098920       0.00031594 
H       0.46570871      -0.06621180      -0.35381113        1       0.01051664      -0.00076665       0.02462202 
O       3.74177939       1.44526155      -0.89142748        8       0.01216811      -0.02208819       0.02038808 
H       2.55223562       2.40095140       0.89328189        1       0.00639629       0.00702847      -0.00379927 
H       1.92764411       3.49452355       3.05024506        1      -0.00867290       0.01021947      -0.02467256 
H      -0.77270569      -1.12117189       2.63888089        1      -0.00237956      -0.01674889      -0.00177180 
H      -1.81643951      -0.73473868       4.83495721        1      -0.00504651      -0.00169904       0.00957170 
H      -1.29816682       1.28463969       6.14257398        1      -0.03838981       0.02841059      -0.00150523 
H       0.24630760       3.00084954       5.27171262        1       0.01718819       0.01466007      -0.01401483 
H       3.94012972       0.13004974       1.14478872        1       0.03872663      -0.01912212       0.01378888 
H       3.37882800      -1.36437266       1.49813898        1      -0.01868220       0.01618762      -0.00725344 
H       2.48513319       1.30140077      -2.78869034        1      -0.01155320       0.01269955      -0.00254889 
