27
Properties=species:S:1:pos:R:3:Z:I:1:forces:R:3 magmom=0 energy=-18675.8591228 dipole="-0.3722765 -0.0112404 0.2760358" pbc="F F F"
C       2.54018435      -0.83743992       0.04307711        6       0.01160863      -0.01175205      -0.00193738 
C       1.32393747      -0.31947102       0.82197665        6       0.00352323       0.00748710       0.00143658 
C       0.02463824      -0.51172129       0.10568667        6      -0.00939707       0.01978274      -0.00040531 
C      -1.15178001       0.29960929       0.25921591        6      -0.02206161      -0.01580524       0.00400681 
C      -2.13139964      -0.21211971      -0.61586996        6       0.00087654       0.01398228      -0.04095109 
C      -0.27901848      -1.45244189      -0.83356259        6      -0.00415331      -0.00076753      -0.01387774 
N      -1.57542226      -1.28793300      -1.26283080        7      -0.01496197      -0.00425698      -0.01409705 
C      -1.45629287       1.42069938       1.03826016        6       0.02698054       0.01614792      -0.00312718 
C      -3.39433221       0.36462866      -0.73313839        6      -0.02002782      -0.01849641      -0.00032139 
C       2.58865772      -0.22227300      -1.34277748        6       0.00525040      -0.00380693       0.02318796 
C      -2.70246057       1.99977759       0.92107125        6       0.00055407      -0.01085530       0.00723005 
C      -3.66434610       1.47257188       0.04381309        6       0.01193079      -0.00538821      -0.00347078 
N       3.82775479      -0.57507198       0.67407909        7       0.02143184       0.00291162      -0.00475726 
O       2.72700303       1.11393119      -1.27205867        8       0.01009765       0.01329055       0.00005471 
H       2.45271646      -1.91139594      -0.11658015        1       0.01556998      -0.00948933       0.01921519 
H       1.47307262       0.74538183       1.01545529        1       0.00618546       0.01674961      -0.00834858 
H       1.31251812      -0.81593395       1.79672375        1       0.01836313      -0.00189686       0.00441582 
O       2.52582279      -0.81687096      -2.37914092        8      -0.01348518      -0.01901413      -0.02118949 
H       0.33828805      -2.22745125      -1.25693562        1       0.00257897       0.01244486      -0.02412579 
H      -1.99798000      -1.79952187      -2.01607822        1      -0.02122590      -0.00251521       0.03958178 
H      -0.71925726       1.83333917       1.71478306        1      -0.00080352       0.01148630       0.01872154 
H      -2.94664832       2.87371660       1.50895119        1      -0.00567304      -0.01065573       0.01095172 
H      -4.63485259       1.94417302      -0.02527140        1      -0.00272028       0.00832400      -0.00101296 
H      -4.13730707      -0.03944323      -1.40772684        1       0.00287943      -0.00623724      -0.01014814 
H       3.92674803       0.41303559       0.87221473        1      -0.00070988       0.02485794       0.00024919 
H       3.91155398      -1.07650460       1.54770144        1      -0.02395322      -0.03062061       0.02822208 
H       2.76368638       1.45426094      -2.17456143        1       0.00134222       0.00409294      -0.00950326 
