27
Properties=species:S:1:pos:R:3:Z:I:1:forces:R:3 magmom=0 energy=-18675.8718604 dipole="-0.2358586 0.0748814 0.2137721" pbc="F F F"
C       2.40775905      -0.67006353      -0.36267559        6       0.00334218      -0.00497107      -0.02077220 
C       1.45662542       0.07614788       0.58475016        6       0.00227214      -0.00436599      -0.00768127 
C       0.24343684       0.66139421      -0.06939066        6       0.01418503       0.02803073      -0.00520587 
C      -0.67703004       1.58170339       0.54482739        6      -0.01766106      -0.02091886       0.00146316 
C      -1.69980093       1.83842182      -0.39163001        6      -0.00861201      -0.02128632       0.00328386 
C      -0.23898429       0.41728822      -1.32162875        6       0.01239729       0.00056009       0.00608745 
N      -1.40904654       1.11359091      -1.51985532        7       0.02249880       0.00250261       0.00083540 
C      -0.72687472       2.21161630       1.79348498        6       0.02529338      -0.00670081      -0.00398367 
C      -2.77249574       2.67973535      -0.10647123        6       0.01719060       0.03843131      -0.00778160 
C       2.99587801       0.28537681      -1.38035239        6       0.00048152       0.00323316      -0.02997891 
C      -1.77646783       3.06260579       2.07414390        6       0.00490294      -0.04770914       0.00953982 
C      -2.79547312       3.28394999       1.13384172        6      -0.00157809       0.01509531       0.02621317 
N       3.51547706      -1.35097297       0.29750593        7      -0.00856064       0.00178280       0.00817086 
O       3.88009772       1.12373009      -0.80679717        8      -0.02413963      -0.01842957      -0.02381798 
H       1.84959099      -1.40658473      -0.94092549        1      -0.00209967      -0.01701649       0.04036864 
H       2.02474513       0.86043964       1.09237351        1      -0.00099769       0.00630820       0.02255007 
H       1.15151670      -0.63756584       1.35600854        1       0.00372111       0.00635248       0.03301430 
O       2.72631246       0.32160582      -2.54635565        8       0.02176557       0.00777949       0.01925726 
H       0.17086653      -0.19114117      -2.11015216        1       0.01712586       0.01279587      -0.02073518 
H      -1.91906408       1.14449792      -2.38339827        1      -0.02089736      -0.00543284       0.01433467 
H       0.04864961       2.03461639       2.52744319        1       0.01245422       0.00137153       0.01075539 
H      -1.82218691       3.56458016       3.03164689        1      -0.00981894      -0.03468645      -0.02095341 
H      -3.61747194       3.93675137       1.39143326        1      -0.00275705       0.03653630      -0.01970643 
H      -3.55609909       2.85893081      -0.82989687        1      -0.01539618      -0.00758676      -0.01406332 
H       4.09605532      -0.68691868       0.79517812        1      -0.01159449       0.03227110       0.00487270 
H       3.16771509      -2.02075879       0.97091652        1      -0.02244203      -0.02723673      -0.00421316 
H       4.23504586       1.69716364      -1.49700766        1      -0.01107580       0.02328998      -0.02185381 
