27
Properties=species:S:1:pos:R:3:Z:I:1:forces:R:3 magmom=0 energy=-18675.914917 dipole="-0.3542756 0.7760266 0.0835936" pbc="F F F"
C       2.61433598      -0.42261321       0.13801665        6      -0.00364248       0.00833223       0.01378492 
C       1.07417345      -0.29877742       0.05529679        6      -0.01126390       0.01043853       0.01118831 
C       0.60995514       1.08788310       0.37347393        6      -0.00857201       0.00654886      -0.02155675 
C       0.16822323       1.58478301       1.64941590        6       0.00311042      -0.00088446      -0.01943842 
C      -0.09001457       2.96340674       1.49490264        6      -0.00571844       0.00090446       0.00220390 
C       0.59612827       2.15534921      -0.47795707        6       0.01825848       0.01789539       0.00524366 
N       0.18403170       3.28454969       0.19031577        7      -0.01793190       0.01481696      -0.00466136 
C      -0.06129681       0.98996778       2.89685702        6      -0.01174233       0.00106418      -0.02636389 
C      -0.54953624       3.75822929       2.54362665        6      -0.02337164      -0.01105158       0.00059182 
C       3.19910291       0.44348318      -0.96465857        6       0.00476899      -0.00769650      -0.01973157 
C      -0.53444746       1.76833682       3.93273343        6       0.03387264      -0.00312888      -0.00365647 
C      -0.76937440       3.14317143       3.75824433        6       0.00321532      -0.00956970       0.00336367 
N       3.20144037      -0.11685548       1.42562489        7       0.03076335      -0.00697355       0.03169142 
O       4.06202758       1.37102696      -0.53568814        8      -0.00009919      -0.01700420      -0.00806673 
H       2.88391019      -1.44749906      -0.12812321        1       0.00544225      -0.00121325      -0.00704853 
H       0.64521943      -1.00859874       0.76510295        1      -0.01262026       0.00389414      -0.01120944 
H       0.75550063      -0.59775435      -0.94349549        1      -0.00170181       0.01729828       0.00881955 
O       2.89355597       0.33154832      -2.12192638        8       0.00190138       0.00249150       0.02760249 
H       0.85219100       2.19565760      -1.52503409        1      -0.00262782      -0.01714422       0.01721580 
H       0.08270815       4.19678909      -0.21535898        1      -0.00308286      -0.01031696      -0.01769001 
H       0.11616445      -0.06918872       3.03928720        1      -0.00569957       0.01263420       0.01425235 
H      -0.73175440       1.31908937       4.89613694        1       0.02171585      -0.00170150       0.00583229 
H      -1.13270965       3.72926635       4.59152792        1       0.00330937      -0.01346286      -0.00511500 
H      -0.73587897       4.81531816       2.40834086        1       0.00007256       0.00380240      -0.00162190 
H       2.99320048       0.83764449       1.69682532        1       0.01146949      -0.00549265       0.01188945 
H       2.82508907      -0.72652452       2.13973465        1      -0.02501133      -0.00623169      -0.00937332 
H       4.35412857       1.86388224      -1.31321948        1      -0.00481460       0.01175087       0.00185382 
