27
Properties=species:S:1:pos:R:3:Z:I:1:forces:R:3 magmom=0 energy=-18675.8360339 dipole="-0.4467036 -1.1309117 -0.1786068" pbc="F F F"
C       2.48630938      -0.62569119      -0.06299955        6      -0.00388329       0.01668862       0.00255814 
C       1.31160359      -0.40040368       0.90366110        6      -0.00561184      -0.00791262       0.00152492 
C      -0.01042047      -0.71280746       0.26932867        6       0.01140475       0.00494043      -0.01572980 
C      -1.19964071       0.09657350       0.27802358        6       0.00514899      -0.00362376       0.00092220 
C      -2.17121550      -0.58251953      -0.48661544        6      -0.00460078      -0.00792301       0.01118106 
C      -0.30378229      -1.81220765      -0.48376579        6       0.00975867       0.00549825      -0.01704462 
N      -1.59976926      -1.74534449      -0.93373951        7      -0.00676025      -0.02267662      -0.01908360 
C      -1.53535656       1.33007885       0.84990397        6       0.00718351      -0.00355846       0.00152142 
C      -3.45231309      -0.07696769      -0.69241768        6      -0.00138948       0.01256668      -0.00301873 
C       2.32436641       0.32441060      -1.23541099        6       0.01542909       0.01909656      -0.02071985 
C      -2.80217000       1.83610581       0.64834092        6       0.00557456       0.01237955       0.00832534 
C      -3.75350247       1.13800194      -0.11519566        6       0.00494171       0.01775938      -0.00847029 
N       3.80698164      -0.37033623       0.49407871        7      -0.02120476       0.00419378       0.02412039 
O       2.17395388      -0.29616121      -2.41331903        8       0.00189783       0.03192714       0.01117695 
H       2.46681694      -1.64763596      -0.44231600        1       0.01239755       0.02833047       0.00790239 
H       1.33402331       0.64561863       1.21936398        1      -0.00437463      -0.03429883      -0.01125881 
H       1.48409421      -1.01013660       1.79489389        1      -0.00871877       0.00649029      -0.01487918 
O       2.34006533       1.51820460      -1.12042925        8       0.00848546      -0.04474939      -0.00038284 
H       0.32147492      -2.64700250      -0.75299063        1      -0.00509675      -0.01801690      -0.00263250 
H      -2.03518987      -2.40671877      -1.54927161        1      -0.01040711      -0.03041271       0.01138886 
H      -0.81235404       1.88274513       1.43626987        1       0.00257110      -0.01515568      -0.00599185 
H      -3.07172279       2.78955000       1.08059747        1      -0.00481398       0.00512215       0.00482252 
H      -4.73720936       1.56326824      -0.25819334        1      -0.00289856       0.01084435       0.01596748 
H      -4.17890843      -0.61678980      -1.28467483        1      -0.01845127       0.00141040       0.00028112 
H       3.86475250       0.59284435       0.80629533        1       0.01546724      -0.01034015       0.00349567 
H       3.97635495      -0.97273625       1.28977127        1       0.00555312       0.04175760       0.00462063 
H       2.08257143       0.38988373      -3.08864363        1      -0.00760214      -0.02033758       0.00940299 
