27
Properties=species:S:1:pos:R:3:Z:I:1:forces:R:3 magmom=0 energy=-18675.6255947 dipole="-0.4067312 -0.464102 0.7486857" pbc="F F F"
C       2.52527606      -0.58631996      -0.18252968        6      -0.00551903       0.01468450       0.00208588 
C       1.27042708      -0.01986132       0.53844632        6      -0.00108902       0.00565704      -0.01681250 
C      -0.01002307      -0.72723290       0.22879870        6       0.00779882       0.00654773      -0.02685651 
C      -1.30773003      -0.11545761       0.28556657        6       0.01266680      -0.01070237       0.02581018 
C      -2.25531530      -1.09895400      -0.05878857        6       0.00627318      -0.00001918      -0.00799742 
C      -0.21565214      -2.02502046      -0.13543581        6      -0.00789082       0.00027362      -0.00126020 
N      -1.56308224      -2.25798387      -0.30247512        7      -0.00228088      -0.00191861      -0.00130854 
C      -1.74253796       1.17974408       0.58341735        6      -0.00005014      -0.00245808      -0.01173344 
C      -3.61828078      -0.81953526      -0.12955446        6      -0.00991916      -0.00668132       0.00146311 
C       3.06203428       0.46736312      -1.12614987        6      -0.01316467       0.00485810       0.04430150 
C      -3.09007908       1.45986398       0.51970619        6      -0.00336434       0.01271987      -0.01584103 
C      -4.01839587       0.46845684       0.16229575        6      -0.01308753      -0.00445850      -0.00669479 
N       3.61040782      -1.02058914       0.68946868        7       0.00327291      -0.01693442      -0.03885482 
O       3.61765532       1.49116820      -0.44457222        8       0.03606579      -0.00245021       0.01037368 
H       2.23570281      -1.42136503      -0.81601762        1       0.03996544      -0.01064041       0.01059891 
H       1.14376570       1.03606260       0.29232925        1       0.00171832       0.02557970       0.01635155 
H       1.46954613      -0.04709926       1.61318546        1      -0.01421980       0.00224663      -0.00422772 
O       2.98304593       0.45412957      -2.31856559        8      -0.01939903      -0.02039265      -0.03827751 
H       0.49075389      -2.82151040      -0.30424142        1      -0.00015046       0.01766286       0.01767099 
H      -1.96634754      -3.13119125      -0.58683392        1      -0.01077210      -0.00216451      -0.01967604 
H      -1.03294584       1.95057689       0.85373198        1       0.00891458       0.01007189       0.01698024 
H      -3.43946593       2.45843194       0.73932735        1      -0.02877939       0.01552730       0.00929865 
H      -5.06676406       0.72526029       0.10898586        1      -0.02960985      -0.01887133       0.00974577 
H      -4.33315795      -1.58018368      -0.41227364        1      -0.02649522      -0.00598465       0.00533123 
H       3.94895018      -0.24065294       1.24047893        1      -0.00283896       0.00454345       0.00889679 
H       3.26710740      -1.72320195       1.33210921        1       0.04111138      -0.01353979       0.01859201 
H       3.91465939       2.14421607      -1.09030491        1       0.03084316      -0.00315654      -0.00795988 
