27
Properties=species:S:1:pos:R:3:Z:I:1:forces:R:3 magmom=0 energy=-18675.8827205 dipole="-0.3195789 0.0811767 0.2696995" pbc="F F F"
C       2.42428650      -0.53594111      -0.41811945        6       0.01030951      -0.00173945      -0.01651754 
C       1.55650296       0.02783210       0.71280807        6      -0.00147335      -0.00716500      -0.01224976 
C       0.53327356       1.02754321       0.27360064        6       0.01438712       0.00308635      -0.02439298 
C      -0.22881873       1.87999830       1.14569189        6       0.01710735       0.01597612      -0.01080244 
C      -1.08362554       2.65296623       0.33370898        6      -0.01567725      -0.01872859      -0.01388817 
C       0.12221389       1.31085759      -0.99636631        6      -0.03552828      -0.01932652      -0.00115335 
N      -0.85387539       2.28120253      -0.96680347        7       0.00827515       0.00010608      -0.00405201 
C      -0.25696033       2.06511402       2.53217986        6      -0.01119782      -0.01706328       0.00582473 
C      -1.95997166       3.59680342       0.86487091        6       0.00844561      -0.00090796      -0.02383572 
C       3.17715387       0.57300067      -1.12699266        6       0.01361811       0.00452576      -0.01291702 
C      -1.11911753       3.00259849       3.06255431        6       0.00452298       0.00482354      -0.00020229 
C      -1.96172765       3.76146694       2.23471178        6      -0.01525610      -0.00066931      -0.01120117 
N       3.41527890      -1.52149248       0.00034184        7      -0.02538605      -0.00374209       0.02975708 
O       4.02955023       1.19232107      -0.29115532        8       0.01943266       0.01652227      -0.00229821 
H       1.79589662      -0.99867632      -1.17742421        1      -0.02854084      -0.00023901      -0.01602610 
H       2.21810072       0.48225439       1.45437419        1       0.01427384       0.00347130       0.03208408 
H       1.06507416      -0.81702083       1.20434612        1       0.02293177      -0.02449269       0.02198165 
O       3.06234331       0.87626765      -2.27928957        8      -0.02613892       0.01151386      -0.02217484 
H       0.45598555       0.90320843      -1.93728211        1       0.01388098       0.03088425       0.02011708 
H      -1.30163954       2.67492923      -1.77373594        1       0.01253778       0.00205524      -0.00152189 
H       0.38483737       1.48004050       3.17882118        1       0.00928636       0.00916028      -0.00834858 
H      -1.15067386       3.16162955       4.13101735        1       0.00240892      -0.00946120       0.01973024 
H      -2.62681757       4.48899103       2.67837606        1      -0.00884136       0.00607377       0.01842864 
H      -2.61241801       4.18020394       0.22864062        1       0.00694059       0.00351696       0.00411521 
H       3.99740924      -1.14922130       0.74158665        1      -0.01971692       0.00154688      -0.00124282 
H       2.95843398      -2.35527696       0.34630262        1       0.01614293       0.00575732       0.01897474 
H       4.49035127       1.87543695      -0.79511691        1      -0.00674478      -0.01548493       0.01181139 
