27
Properties=species:S:1:pos:R:3:Z:I:1:forces:R:3 magmom=0 energy=-18675.8889165 dipole="-0.3773466 0.4536553 0.0556756" pbc="F F F"
C       2.56887709      -0.54734249      -0.18336139        6       0.01121001       0.01602229      -0.01809008 
C       1.18072327      -0.27045410       0.44824230        6       0.02793946       0.00001733      -0.00157907 
C       1.15012215       0.79566689       1.50243586        6       0.00677265      -0.01966956       0.01440923 
C       0.35818676       0.72009106       2.70003434        6      -0.01647974       0.01322190       0.00799731 
C       0.61850975       1.88188400       3.45477332        6       0.00937208       0.00935882       0.01602296 
C       1.83804836       1.97395684       1.57660370        6      -0.00039194      -0.01842360      -0.01270459 
N       1.51741703       2.63197243       2.74261845        7       0.00317017      -0.01230371      -0.01014778 
C      -0.54030657      -0.22767037       3.20370444        6       0.00482488      -0.00670050       0.00211355 
C       0.02885859       2.11095616       4.69627705        6      -0.00320411      -0.01096447       0.01786166 
C       2.93865223       0.58333287      -1.11748970        6      -0.00453923      -0.00257378      -0.01824630 
C      -1.12659852      -0.00656085       4.43165120        6       0.00267168      -0.01579372       0.00171215 
C      -0.83851911       1.15070263       5.17348568        6       0.00013935      -0.02025921       0.02035059 
N       3.66358203      -0.75655060       0.74023955        7      -0.01109642       0.00700703      -0.00144846 
O       2.22412862       0.54165347      -2.25302781        8      -0.01239755      -0.00458284      -0.02338439 
H       2.45633002      -1.43534750      -0.80884044        1      -0.00489800       0.01586988      -0.00798600 
H       0.86263538      -1.20945019       0.90782574        1      -0.01336819       0.02098900       0.00031599 
H       0.46570870      -0.06621184      -0.35381118        1       0.01051679      -0.00076665       0.02462181 
O       3.74177944       1.44526152      -0.89142750        8       0.01216924      -0.02208717       0.02038844 
H       2.55223561       2.40095133       0.89328184        1       0.00639649       0.00702852      -0.00379942 
H       1.92764409       3.49452350       3.05024502        1      -0.00867177       0.01022142      -0.02467210 
H      -0.77270575      -1.12117187       2.63888086        1      -0.00237950      -0.01674925      -0.00177190 
H      -1.81643944      -0.73473869       4.83495726        1      -0.00504672      -0.00169904       0.00957160 
H      -1.29816675       1.28463969       6.14257398        1      -0.03838981       0.02841054      -0.00150574 
H       0.24630762       3.00084952       5.27171258        1       0.01718824       0.01466033      -0.01401478 
H       3.94012973       0.13004979       1.14478867        1       0.03872699      -0.01912140       0.01378939 
H       3.37882787      -1.36437252       1.49813923        1      -0.01868133       0.01618957      -0.00725591 
H       2.48513303       1.30140087      -2.78869020        1      -0.01155372       0.01269822      -0.00254812 
