27
Properties=species:S:1:pos:R:3:Z:I:1:forces:R:3 magmom=0 energy=-18675.8889165 dipole="-0.3773466 0.4536552 0.0556756" pbc="F F F"
C       2.56887706      -0.54734250      -0.18336141        6       0.01120991       0.01602234      -0.01809033 
C       1.18072326      -0.27045410       0.44824231        6       0.02793920       0.00001748      -0.00157891 
C       1.15012214       0.79566688       1.50243587        6       0.00677295      -0.01966899       0.01440975 
C       0.35818677       0.72009105       2.70003436        6      -0.01647980       0.01322159       0.00799747 
C       0.61850977       1.88188399       3.45477335        6       0.00937183       0.00935897       0.01602296 
C       1.83804833       1.97395683       1.57660372        6      -0.00039163      -0.01842298      -0.01270459 
N       1.51741702       2.63197244       2.74261847        7       0.00316945      -0.01230499      -0.01014789 
C      -0.54030653      -0.22767040       3.20370448        6       0.00482473      -0.00670004       0.00211370 
C       0.02885857       2.11095617       4.69627706        6      -0.00320431      -0.01096421       0.01786176 
C       2.93865220       0.58333285      -1.11748972        6      -0.00454016      -0.00257460      -0.01824599 
C      -1.12659852      -0.00656086       4.43165122        6       0.00267174      -0.01579398       0.00171189 
C      -0.83851915       1.15070264       5.17348568        6       0.00013966      -0.02025911       0.02035100 
N       3.66358201      -0.75655064       0.74023950        7      -0.01109673       0.00700600      -0.00144907 
O       2.22412865       0.54165341      -2.25302783        8      -0.01239858      -0.00458330      -0.02338578 
H       2.45632995      -1.43534749      -0.80884047        1      -0.00489795       0.01586962      -0.00798605 
H       0.86263534      -1.20945017       0.90782575        1      -0.01336814       0.02098869       0.00031599 
H       0.46570868      -0.06621181      -0.35381115        1       0.01051674      -0.00076670       0.02462161 
O       3.74177931       1.44526157      -0.89142754        8       0.01217114      -0.02208583       0.02038947 
H       2.55223556       2.40095136       0.89328188        1       0.00639670       0.00702842      -0.00379983 
H       1.92764402       3.49452354       3.05024503        1      -0.00867135       0.01022188      -0.02467210 
H      -0.77270570      -1.12117188       2.63888088        1      -0.00237956      -0.01674940      -0.00177185 
H      -1.81643943      -0.73473871       4.83495730        1      -0.00504661      -0.00169888       0.00957150 
H      -1.29816677       1.28463973       6.14257400        1      -0.03838986       0.02841049      -0.00150610 
H       0.24630755       3.00084957       5.27171257        1       0.01718829       0.01465997      -0.01401493 
H       3.94012964       0.13004970       1.14478869        1       0.03872755      -0.01911996       0.01379001 
H       3.37882789      -1.36437264       1.49813911        1      -0.01868138       0.01618931      -0.00725565 
H       2.48513308       1.30140079      -2.78869024        1      -0.01155377       0.01269827      -0.00254812 
