27
Properties=species:S:1:pos:R:3:Z:I:1:forces:R:3 magmom=0 energy=-18675.9104843 dipole="-0.3928411 0.8089922 0.0614203" pbc="F F F"
C       2.60039665      -0.45704323       0.11896153        6      -0.00352179       0.00093454       0.01108295 
C       1.05628699      -0.35969972       0.05112003        6       0.00751390       0.00851591       0.00841882 
C       0.58136453       1.03687425       0.30256881        6      -0.02175441      -0.00126293      -0.01996559 
C       0.14949471       1.59600914       1.55495101        6      -0.00748705       0.01416837      -0.00837228 
C      -0.11758514       2.96379567       1.33193117        6      -0.02526644       0.01348595       0.00937244 
C       0.55603218       2.05995171      -0.60070829        6       0.01259568       0.00654233      -0.01194663 
N       0.14374467       3.22000140       0.01061724        7      -0.00954476       0.00233472       0.00583764 
C      -0.06584045       1.06469316       2.83313117        6      -0.00915539       0.01715867      -0.00714772 
C      -0.58454880       3.80672707       2.33846724        6      -0.03650154      -0.00649697       0.00768873 
C       3.14564984       0.38805522      -1.01718820        6      -0.01351814       0.00054878       0.00564229 
C      -0.53855021       1.89201027       3.83067425        6       0.01397374       0.01565766      -0.00476575 
C      -0.79404151       3.25249930       3.58394346        6       0.00753122       0.00038376       0.00546421 
N       3.19334761      -0.09059276       1.38804902        7       0.03966235      -0.01214785       0.01874910 
O       3.89756461       1.41918640      -0.61563262        8       0.03132812      -0.01771372      -0.02866806 
H       2.88770350      -1.48389440      -0.11694062        1      -0.00858867      -0.00400845       0.00208686 
H       0.64664460      -1.03746405       0.80211342        1      -0.01563375      -0.00010675      -0.00409890 
H       0.73079414      -0.71581668      -0.92604274        1      -0.01654068       0.02301749      -0.01287701 
O       2.88609577       0.18800604      -2.17360048        8       0.01648483       0.00009796       0.01961556 
H       0.80341881       2.04626212      -1.64949984        1       0.00706370      -0.00693072      -0.02440728 
H       0.06426706       4.11642163      -0.43349867        1      -0.02901624      -0.02116491      -0.01848325 
H       0.12310483       0.01648565       3.02975941        1      -0.00679733       0.00452463       0.01116131 
H      -0.72393993       1.49322972       4.81873081        1       0.01922208      -0.00282945      -0.00906941 
H      -1.16894418       3.87757194       4.38314894        1       0.01737984      -0.02386061       0.01025150 
H      -0.79236995       4.85187370       2.14690060        1       0.01893587      -0.02055741       0.00697494 
H       2.97771671       0.87375192       1.61487036        1       0.01514426      -0.00879713       0.03129079 
H       2.82390846      -0.67139787       2.12952140        1      -0.01796733       0.00303313      -0.00269961 
H       4.15857653       1.90278992      -1.40967697        1       0.01445793       0.01547295      -0.00113571 
