27
Properties=species:S:1:pos:R:3:Z:I:1:forces:R:3 magmom=0 energy=-18675.8889165 dipole="-0.3773466 0.4536552 0.0556756" pbc="F F F"
C       2.56887707      -0.54734246      -0.18336142        6       0.01121011       0.01602224      -0.01809008 
C       1.18072328      -0.27045407       0.44824233        6       0.02793951       0.00001733      -0.00157927 
C       1.15012219       0.79566690       1.50243590        6       0.00677265      -0.01966935       0.01440949 
C       0.35818680       0.72009105       2.70003438        6      -0.01647980       0.01322169       0.00799711 
C       0.61850977       1.88188399       3.45477337        6       0.00937203       0.00935887       0.01602281 
C       1.83804837       1.97395686       1.57660375        6      -0.00039178      -0.01842370      -0.01270490 
N       1.51741703       2.63197244       2.74261850        7       0.00317017      -0.01230355      -0.01014753 
C      -0.54030653      -0.22767039       3.20370447        6       0.00482493      -0.00670035       0.00211370 
C       0.02885857       2.11095617       4.69627707        6      -0.00320426      -0.01096442       0.01786176 
C       2.93865221       0.58333289      -1.11748974        6      -0.00453959      -0.00257445      -0.01824619 
C      -1.12659851      -0.00656085       4.43165121        6       0.00267168      -0.01579383       0.00171215 
C      -0.83851914       1.15070264       5.17348569        6       0.00013941      -0.02025916       0.02035054 
N       3.66358203      -0.75655062       0.74023948        7      -0.01109642       0.00700677      -0.00144969 
O       2.22412875       0.54165339      -2.25302791        8      -0.01239853      -0.00458371      -0.02338475 
H       2.45632997      -1.43534747      -0.80884046        1      -0.00489805       0.01586983      -0.00798605 
H       0.86263540      -1.20945017       0.90782576        1      -0.01336825       0.02098900       0.00031599 
H       0.46570869      -0.06621177      -0.35381113        1       0.01051679      -0.00076675       0.02462186 
O       3.74177932       1.44526161      -0.89142751        8       0.01217032      -0.02208624       0.02038906 
H       2.55223560       2.40095137       0.89328188        1       0.00639644       0.00702847      -0.00379937 
H       1.92764403       3.49452355       3.05024505        1      -0.00867177       0.01022127      -0.02467215 
H      -0.77270570      -1.12117189       2.63888090        1      -0.00237945      -0.01674925      -0.00177200 
H      -1.81643942      -0.73473870       4.83495727        1      -0.00504677      -0.00169904       0.00957160 
H      -1.29816683       1.28463971       6.14257396        1      -0.03838976       0.02841059      -0.00150569 
H       0.24630756       3.00084955       5.27171258        1       0.01718829       0.01466033      -0.01401467 
H       3.94012968       0.13004969       1.14478874        1       0.03872730      -0.01912027       0.01378970 
H       3.37882795      -1.36437267       1.49813904        1      -0.01868164       0.01618880      -0.00725499 
H       2.48513315       1.30140076      -2.78869033        1      -0.01155346       0.01269878      -0.00254837 
