27
Properties=species:S:1:pos:R:3:Z:I:1:forces:R:3 magmom=0 energy=-18675.8117069 dipole="0.4090952 -0.1085761 1.520461" pbc="F F F"
C       2.44598056      -0.59215441      -0.04981543        6       0.00287259      -0.00400830      -0.01794167 
C       1.48615804       0.12923490       0.92960242        6       0.01212075      -0.01269940       0.01198782 
C       0.83645488      -0.80492432       1.90018920        6      -0.01205590       0.00644139       0.00877302 
C      -0.55943552      -1.15760311       1.91965932        6      -0.00095321       0.00633880       0.01147900 
C      -0.74772770      -2.07465836       2.97357743        6       0.01474584       0.00452576       0.02407550 
C       1.41727149      -1.50196746       2.92077650        6       0.01713630      -0.00295523      -0.01010413 
N       0.47391346      -2.27034161       3.56324634        7       0.01714489      -0.03788022       0.02694475 
C      -1.67021507      -0.75587840       1.16721013        6      -0.00097589      -0.00238748      -0.01092842 
C      -1.99758367      -2.60362473       3.29245380        6       0.00295697       0.00698965      -0.00863387 
C       2.69470896       0.33816947      -1.21436848        6       0.02158724       0.02696249      -0.01137991 
C      -2.91087637      -1.26649861       1.48503521        6      -0.00471479       0.00180178       0.00593519 
C      -3.07204041      -2.18331803       2.53833251        6       0.00284595      -0.00804735      -0.01868560 
N       3.70900688      -1.02765296       0.52099608        7      -0.02370285       0.00317423       0.01011158 
O       3.70953208       1.18899472      -0.97571782        8       0.01353820       0.03094626      -0.00598352 
H       1.93614694      -1.46097860      -0.46292258        1      -0.03479896       0.00690521      -0.01068304 
H       0.70840008       0.63994699       0.35780751        1       0.00898457      -0.01518555       0.00954903 
H       2.06164313       0.90022099       1.44755795        1      -0.00676185       0.02698342      -0.00977138 
O       2.03739536       0.37788051      -2.21458426        8       0.00551682       0.00981190      -0.00905949 
H       2.43923771      -1.50359182       3.26286873        1      -0.01609871       0.02274038       0.02312260 
H       0.65265634      -2.87907476       4.34000674        1       0.01100088       0.00373679       0.02756207 
H      -1.55736023      -0.05183699       0.35248840        1      -0.01522967      -0.01144953       0.00054250 
H      -3.78042204      -0.95734971       0.92205181        1       0.01035748      -0.00123434      -0.02597714 
H      -4.05846265      -2.56463099       2.76344726        1      -0.00673963       0.00256596      -0.01408384 
H      -2.12410482      -3.30894163       4.10339324        1       0.01931577       0.01658521       0.00361127 
H       4.20608684      -0.24580854       0.93269338        1      -0.00413973      -0.03696604      -0.02279113 
H       3.54883375      -1.72053765       1.23918771        1      -0.01946346      -0.03509736      -0.00116569 
H       3.79155204       1.76952260      -1.74348698        1      -0.01448950      -0.00859839       0.01349454 
