27
Properties=species:S:1:pos:R:3:Z:I:1:forces:R:3 magmom=0 energy=-18675.7395913 dipole="-0.2208815 -0.4854658 1.2710563" pbc="F F F"
C       2.58758665      -0.62810225      -0.22212351        6      -0.00835516       0.01269853       0.00423610 
C       1.23569423      -0.14204492       0.33397543        6       0.00308964       0.02251747       0.00224360 
C       0.36375829      -1.18402282       0.96584891        6       0.01295137      -0.02084183      -0.03166016 
C      -1.07063625      -1.08123962       1.05266959        6       0.03264777       0.00346379       0.00600106 
C      -1.54051622      -2.22998587       1.72057340        6      -0.00853344       0.00080080      -0.02228802 
C       0.69232462      -2.36323272       1.56802515        6      -0.02619060      -0.00778247       0.02303467 
N      -0.44438559      -2.99717482       2.02242592        7      -0.02247803       0.01563395       0.00712977 
C      -1.99159459      -0.12224564       0.61502215        6       0.00835943      -0.01142696       0.02171199 
C      -2.89715101      -2.44443181       1.96391598        6       0.01760553      -0.00093532       0.00746211 
C       3.14153701       0.48728716      -1.08685453        6      -0.02846273       0.00475947       0.02521101 
C      -3.33446941      -0.33224555       0.84884245        6      -0.00149386      -0.01205940      -0.00512971 
C      -3.78201660      -1.48349110       1.51949560        6       0.02205117      -0.01000519       0.02086399 
N       3.60502115      -0.98778686       0.75605437        7      -0.01367992       0.01259152       0.00768847 
O       3.62518273       1.49283326      -0.33079585        8       0.00693961       0.00473834      -0.01086790 
H       2.42585393      -1.47685015      -0.88534694        1      -0.01376152       0.00616859       0.00299395 
H       0.67507148       0.31495641      -0.48702569        1      -0.00908921      -0.02677264      -0.00931804 
H       1.43766206       0.66385757       1.04631464        1       0.00107035       0.01795731       0.00339576 
O       3.11978109       0.52750021      -2.28218949        8      -0.00294407      -0.00789432      -0.01036977 
H       1.64991382      -2.82643677       1.73135482        1      -0.02149427      -0.01367097      -0.01870514 
H      -0.46243762      -3.87718450       2.50417594        1       0.00198767       0.00155140      -0.01237040 
H      -1.65420728       0.77081618       0.10395243        1      -0.01604075      -0.01551008      -0.00255599 
H      -4.05934331       0.39516929       0.51166840        1      -0.00115530       0.01600064       0.00668430 
H      -4.84102194      -1.61953053       1.69466764        1       0.01589934       0.01286935      -0.01862106 
H      -3.24597840      -3.32826126       2.48247255        1       0.01813965       0.00508302      -0.01661318 
H       3.72453870      -0.24524202       1.43380520        1       0.01914413      -0.00209026       0.02293563 
H       3.36239500      -1.83264505       1.24975370        1      -0.00230438       0.00686783       0.01217515 
H       3.93744952       2.18606578      -0.92568875        1       0.01609763      -0.01471262      -0.01526824 
