27
Properties=species:S:1:pos:R:3:Z:I:1:forces:R:3 magmom=0 energy=-18675.9168735 dipole="-0.76806 0.6581217 -0.0519275" pbc="F F F"
C       2.60812314      -0.39490645       0.16967269        6      -0.00430670       0.01027871      -0.01707423 
C       1.07063264      -0.45201806      -0.04708568        6      -0.00281700      -0.02774961      -0.00114759 
C       0.41485584       0.88869945       0.02911713        6      -0.00108074      -0.01603412       0.01725282 
C       0.04445696       1.61001645       1.21613508        6      -0.01348081      -0.00067147       0.01107338 
C      -0.47073792       2.85758227       0.80551676        6       0.00802051       0.00558505       0.00515758 
C       0.11900678       1.70530871      -1.02266176        6       0.00209524      -0.00983714       0.01155176 
N      -0.41122762       2.88932342      -0.56499459        7      -0.00443721       0.00636734      -0.00356998 
C       0.08662111       1.31124032       2.58304274        6      -0.01175426       0.00749471       0.01468265 
C      -0.92733313       3.81125090       1.71473737        6      -0.00159969      -0.02782330       0.00196113 
C       3.13480285       0.60926218      -0.83278717        6       0.01541808       0.01079910      -0.03012824 
C      -0.35854557       2.25158763       3.48834681        6      -0.00433776       0.01922023      -0.01307272 
C      -0.85827639       3.49236680       3.05561680        6      -0.00226334       0.00155454       0.00839100 
N       3.05421169      -0.08824939       1.51369573        7       0.00171513       0.00575819       0.00503695 
O       3.52440254       1.76202409      -0.27375055        8       0.01845656       0.00181936      -0.03214795 
H       3.02445121      -1.36103669      -0.12114400        1      -0.01892157       0.01359342      -0.00483943 
H       0.66018364      -1.11874284       0.71448468        1      -0.01361163      -0.03066555      -0.01796507 
H       0.87895748      -0.90523976      -1.02085557        1       0.00880819       0.02483758       0.01229296 
O       3.13302169       0.42712702      -2.01973880        8       0.00892055       0.01459718       0.02414497 
H       0.26291783       1.53094346      -2.07688439        1      -0.01107744       0.00575356      -0.00022091 
H      -0.74250883       3.63977513      -1.14252486        1       0.01040757       0.00590582      -0.01614082 
H       0.46027409       0.35265429       2.92127092        1      -0.00040464       0.02174192       0.01697108 
H      -0.32199780       2.03897893       4.54821582        1      -0.01536502      -0.00571459      -0.01625405 
H      -1.19591596       4.21035326       3.79069194        1      -0.00689662      -0.00049149      -0.01147278 
H      -1.32181729       4.76289939       1.38057723        1       0.02151103      -0.02629899       0.02309478 
H       2.75714079       0.83873297       1.79295841        1       0.00558567       0.03347736       0.00813939 
H       2.66607196      -0.75069309       2.17168860        1       0.00138870      -0.02220107       0.00948177 
H       3.75952709       2.36635479      -0.98937281        1       0.01002725      -0.02129665      -0.00519846 
