27
Properties=species:S:1:pos:R:3:Z:I:1:forces:R:3 magmom=0 energy=-18675.8889165 dipole="-0.3773467 0.4536553 0.0556755" pbc="F F F"
C       2.56887709      -0.54734250      -0.18336140        6       0.01120996       0.01602250      -0.01809018 
C       1.18072327      -0.27045410       0.44824229        6       0.02793931       0.00001728      -0.00157907 
C       1.15012215       0.79566687       1.50243585        6       0.00677301      -0.01966894       0.01440954 
C       0.35818677       0.72009105       2.70003433        6      -0.01647990       0.01322149       0.00799742 
C       0.61850977       1.88188399       3.45477332        6       0.00937219       0.00935918       0.01602281 
C       1.83804837       1.97395681       1.57660370        6      -0.00039178      -0.01842314      -0.01270470 
N       1.51741707       2.63197242       2.74261846        7       0.00316883      -0.01230597      -0.01014825 
C      -0.54030654      -0.22767041       3.20370445        6       0.00482498      -0.00669942       0.00211401 
C       0.02885859       2.11095618       4.69627702        6      -0.00320421      -0.01096401       0.01786192 
C       2.93865223       0.58333287      -1.11748970        6      -0.00454000      -0.00257450      -0.01824604 
C      -1.12659850      -0.00656085       4.43165120        6       0.00267179      -0.01579398       0.00171179 
C      -0.83851913       1.15070266       5.17348565        6       0.00013946      -0.02025932       0.02035121 
N       3.66358202      -0.75655062       0.74023953        7      -0.01109724       0.00700441      -0.00144820 
O       2.22412865       0.54165345      -2.25302779        8      -0.01239853      -0.00458325      -0.02338578 
H       2.45632999      -1.43534749      -0.80884046        1      -0.00489790       0.01586967      -0.00798605 
H       0.86263535      -1.20945018       0.90782572        1      -0.01336814       0.02098874       0.00031604 
H       0.46570871      -0.06621182      -0.35381119        1       0.01051674      -0.00076660       0.02462166 
O       3.74177936       1.44526157      -0.89142752        8       0.01217083      -0.02208614       0.02038936 
H       2.55223560       2.40095131       0.89328183        1       0.00639660       0.00702847      -0.00379953 
H       1.92764400       3.49452353       3.05024498        1      -0.00867094       0.01022276      -0.02467174 
H      -0.77270573      -1.12117188       2.63888085        1      -0.00237956      -0.01674961      -0.00177200 
H      -1.81643938      -0.73473872       4.83495730        1      -0.00504682      -0.00169893       0.00957160 
H      -1.29816673       1.28463974       6.14257397        1      -0.03838981       0.02841049      -0.00150615 
H       0.24630759       3.00084957       5.27171254        1       0.01718819       0.01465992      -0.01401503 
H       3.94012970       0.13004971       1.14478867        1       0.03872766      -0.01911939       0.01379022 
H       3.37882787      -1.36437258       1.49813921        1      -0.01868097       0.01619024      -0.00725684 
H       2.48513304       1.30140084      -2.78869022        1      -0.01155366       0.01269817      -0.00254796 
