27
Properties=species:S:1:pos:R:3:Z:I:1:forces:R:3 magmom=0 energy=-18675.8889165 dipole="-0.3773466 0.4536552 0.0556756" pbc="F F F"
C       2.56887704      -0.54734248      -0.18336146        6       0.01121078       0.01602204      -0.01808977 
C       1.18072329      -0.27045407       0.44824237        6       0.02793951       0.00001759      -0.00157922 
C       1.15012223       0.79566694       1.50243593        6       0.00677182      -0.01967028       0.01440934 
C       0.35818681       0.72009106       2.70003440        6      -0.01647985       0.01322257       0.00799752 
C       0.61850968       1.88188404       3.45477339        6       0.00937239       0.00935804       0.01602255 
C       1.83804831       1.97395697       1.57660375        6      -0.00039184      -0.01842478      -0.01270521 
N       1.51741687       2.63197252       2.74261847        7       0.00317269      -0.01229908      -0.01014629 
C      -0.54030652      -0.22767035       3.20370451        6       0.00482498      -0.00670184       0.00211283 
C       0.02885856       2.11095616       4.69627714        6      -0.00320457      -0.01096447       0.01786207 
C       2.93865219       0.58333284      -1.11748979        6      -0.00453753      -0.00257172      -0.01824666 
C      -1.12659854      -0.00656086       4.43165122        6       0.00267174      -0.01579290       0.00171292 
C      -0.83851913       1.15070260       5.17348578        6       0.00013935      -0.02025916       0.02034869 
N       3.66358207      -0.75655061       0.74023940        7      -0.01109529       0.00701073      -0.00145108 
O       2.22412881       0.54165332      -2.25302806        8      -0.01239760      -0.00458423      -0.02338213 
H       2.45632994      -1.43534751      -0.80884048        1      -0.00489816       0.01587008      -0.00798585 
H       0.86263541      -1.20945017       0.90782583        1      -0.01336814       0.02098936       0.00031583 
H       0.46570868      -0.06621177      -0.35381108        1       0.01051664      -0.00076675       0.02462197 
O       3.74177934       1.44526157      -0.89142748        8       0.01216713      -0.02208891       0.02038767 
H       2.55223555       2.40095148       0.89328189        1       0.00639629       0.00702852      -0.00379927 
H       1.92764408       3.49452359       3.05024508        1      -0.00867351       0.01021844      -0.02467287 
H      -0.77270563      -1.12117191       2.63888095        1      -0.00237961      -0.01674868      -0.00177180 
H      -1.81643957      -0.73473867       4.83495719        1      -0.00504625      -0.00169888       0.00957160 
H      -1.29816688       1.28463969       6.14257399        1      -0.03838976       0.02841054      -0.00150492 
H       0.24630758       3.00084954       5.27171266        1       0.01718808       0.01465997      -0.01401488 
H       3.94012968       0.13004974       1.14478876        1       0.03872627      -0.01912289       0.01378852 
H       3.37882807      -1.36437275       1.49813882        1      -0.01868236       0.01618710      -0.00725257 
H       2.48513325       1.30140068      -2.78869043        1      -0.01155320       0.01269966      -0.00254904 
