27
Properties=species:S:1:pos:R:3:Z:I:1:forces:R:3 magmom=0 energy=-18675.8922826 dipole="-0.2603917 0.4292865 0.3728713" pbc="F F F"
C       2.41461001      -0.47407362      -0.37415938        6       0.00837203      -0.03973702      -0.01107940 
C       1.02458765      -0.32817960       0.28909618        6      -0.01734271       0.00495174      -0.00334804 
C       0.99670735      -0.27618546       1.78723815        6      -0.03433642      -0.01868385      -0.01025834 
C      -0.09397753      -0.77578106       2.58206771        6      -0.02632008       0.03372048       0.01219623 
C       0.21804290      -0.52273783       3.93386878        6      -0.00747317       0.00624948       0.01221973 
C       1.90488690       0.24088266       2.66689313        6      -0.03842262       0.01038623      -0.02820742 
N       1.44285780       0.09507831       3.95677392        7      -0.01476461      -0.01421445      -0.02105579 
C      -1.30861344      -1.40110138       2.27013267        6       0.02451203      -0.00485640       0.01041518 
C      -0.64130992      -0.87658278       4.97360844        6       0.00068196       0.01898523      -0.01076485 
C       3.16705352       0.83404307      -0.27276864        6      -0.03085319      -0.01048630       0.01113041 
C      -2.16337116      -1.75105153       3.29532032        6       0.02396556      -0.00820670      -0.01174773 
C      -1.83110981      -1.48891800       4.63516493        6       0.00954080       0.01291707      -0.00477932 
N       3.26153490      -1.53509511       0.12931252        7       0.03426803       0.01508014       0.02285490 
O       2.68919375       1.75153689      -1.12822205        8       0.02292416       0.00694141       0.02947935 
H       2.22691514      -0.63670980      -1.43792981        1       0.03327810       0.00968128       0.00518725 
H       0.43039965      -1.18703538      -0.03342812        1       0.03093978      -0.01378497       0.01459507 
H       0.53445758       0.54934923      -0.14241431        1      -0.02235374      -0.00592917       0.02159778 
O       4.06235042       1.06292852       0.49218871        8       0.02906488       0.01652078      -0.02317263 
H       2.85721194       0.70778180       2.47648707        1      -0.00751312      -0.00523024       0.02356570 
H       1.92069757       0.41244364       4.78065823        1       0.00269837      -0.02702842      -0.02834909 
H      -1.57567517      -1.60484650       1.23983342        1       0.00065975       0.01809239       0.03528330 
H      -3.10392978      -2.23621503       3.06970809        1       0.02403457       0.01708668       0.00383506 
H      -2.52381257      -1.76949924       5.41651828        1       0.00475484      -0.01143421       0.00389527 
H      -0.39022461      -0.67534589       6.00742013        1       0.00592346      -0.00537047      -0.02793432 
H       3.71067576      -1.24304883       0.98958966        1      -0.01573382      -0.01709748      -0.02755050 
H       2.71957333      -2.36542647       0.33145705        1      -0.02928312       0.02338809      -0.00228648 
H       3.18219137       2.57009321      -0.98514587        1      -0.01122179      -0.01194144       0.00427857 
