27
Properties=species:S:1:pos:R:3:Z:I:1:forces:R:3 magmom=0 energy=-18675.8596208 dipole="-0.3301464 -0.1068578 0.2411401" pbc="F F F"
C       2.47828618      -0.64530781      -0.18786080        6       0.03070849      -0.00902488      -0.00194478 
C       1.36190563      -0.08193871       0.70217341        6       0.01770786      -0.00177514      -0.00975132 
C       0.12300739       0.28207968      -0.05413634        6       0.00966000      -0.01419995      -0.02555204 
C      -0.88602432       1.21517673       0.36493468        6      -0.02911425      -0.02600357      -0.02167378 
C      -1.87472103       1.23990978      -0.63965863        6      -0.03341900      -0.01480920      -0.02214404 
C      -0.28004542      -0.20019743      -1.26561844        6       0.00289609       0.01982089      -0.02097254 
N      -1.48252089       0.36392264      -1.61886879        7      -0.00688593       0.00301266      -0.02343211 
C      -1.04240478       2.03428138       1.48754963        6       0.01563488       0.00220138      -0.00980012 
C      -3.00834975       2.04317480      -0.55087104        6      -0.03027896      -0.02358185       0.00196103 
C       2.87791868       0.37460371      -1.23733558        6       0.01746155       0.00143375      -0.02535756 
C      -2.16184589       2.83492684       1.57908323        6      -0.01477567      -0.01768302       0.02767988 
C      -3.14124668       2.83297662       0.57184131        6       0.01698075       0.02090034      -0.01338388 
N       3.68382805      -1.05224656       0.52161056        7       0.01081529      -0.01128483       0.02392679 
O       3.50201136       1.42844644      -0.67916380        8      -0.00185546      -0.00362304      -0.00530773 
H       2.10862129      -1.50953187      -0.73877856        1       0.00860903       0.00824347      -0.00454792 
H       1.74868868       0.79669186       1.22502659        1       0.00223851       0.01075158       0.00131286 
H       1.14334308      -0.83086329       1.47030986        1      -0.00310096       0.01627807      -0.01133229 
O       2.67857573       0.28791762      -2.41455787        8       0.01322529      -0.03296905       0.00180800 
H       0.21228297      -0.88449045      -1.93687993        1      -0.00247176       0.00999830       0.01627400 
H      -1.96745709       0.19956701      -2.48215098        1       0.01644658       0.00168911       0.00822810 
H      -0.29169881       2.04083118       2.26713948        1      -0.01578663       0.00964832       0.03180193 
H      -2.29456576       3.47253565       2.44075961        1      -0.00931902       0.02281361       0.03253428 
H      -4.01529067       3.46160807       0.67443157        1       0.02276450       0.02107148       0.01784371 
H      -3.75794372       2.04229055      -1.33093109        1      -0.01172259       0.00734862       0.00175185 
H       4.03108096      -0.29611823       1.09996352        1      -0.00463575       0.00107776      -0.01035640 
H       3.48810576      -1.84233135       1.12231775        1       0.00555358       0.01300315       0.02150455 
H       3.75033319       2.03357590      -1.39004107        1      -0.02733649      -0.01433796       0.01892944 
