19
Properties=species:S:1:pos:R:3:Z:I:1:forces:R:3 magmom=0 energy=-10948.440725 dipole="0.2576281 0.3397364 -0.3236733" pbc="F F F"
C      -0.65785924       0.21800752      -0.27012721        6       0.02364531      -0.00324376       0.02019252 
C       0.59931454      -0.60501710       0.10089007        6      -0.00192735      -0.01517136       0.00654629 
C      -1.89833613      -0.66938366      -0.36092542        6       0.03395857       0.00398156       0.00849050 
C      -0.86661242       1.33174466       0.75083110        6       0.01175143      -0.00528706      -0.00029568 
C       0.94718751      -1.52166785      -1.05949921        6      -0.02887827       0.03859195      -0.01286904 
N       0.41038555      -1.32954072       1.34129542        7      -0.01623282       0.01025011       0.02735927 
O       1.49829815      -0.84901387      -2.08550366        8      -0.00865541       0.03059104       0.00566142 
H      -0.46414430       0.65866012      -1.25136052        1      -0.01246903       0.02141796       0.02194550 
H       1.42952796       0.09452735       0.22115015        1      -0.02439679      -0.00422813      -0.00189953 
H      -2.74928297      -0.09137669      -0.72253143        1       0.02151607      -0.01518566       0.02373977 
H      -1.75257444      -1.51570429      -1.03392698        1      -0.00424247       0.00519152      -0.00561704 
H      -2.15359258      -1.05681055       0.62717749        1      -0.02477376      -0.00118183      -0.02765474 
H      -1.00447159       0.90193951       1.74267572        1      -0.00381804       0.00599134      -0.00168145 
H      -1.75028515       1.92048948       0.50322079        1       0.01075832      -0.00547290      -0.01165404 
H      -0.00826607       2.00381369       0.79012453        1      -0.00872941       0.00227440      -0.02284276 
O       0.73649453      -2.70146156      -1.09553266        8       0.02985210      -0.02141703      -0.00994729 
H       1.29886746      -1.65319285       1.70026000        1      -0.00277957      -0.01031825       0.00901840 
H      -0.14727224      -2.15914985       1.17077155        1       0.00331585       0.00307329      -0.00108948 
H       1.65634280      -1.47721634      -2.80067045        1       0.00210537      -0.03985730      -0.02740267 
