19
Properties=species:S:1:pos:R:3:Z:I:1:forces:R:3 magmom=0 energy=-10948.3384183 dipole="0.4840592 -0.1898504 0.2202511" pbc="F F F"
C      -0.83347266       0.04445249      -0.19484785        6      -0.00354041      -0.03346168       0.01089315 
C       0.43723333      -0.69266934       0.24155880        6      -0.01254225      -0.03775763      -0.00545470 
C      -2.10849684      -0.59737628       0.35024703        6      -0.01198684      -0.00318616       0.02382765 
C      -0.75759009       1.50583141       0.23790704        6       0.00650571      -0.02186178      -0.02116044 
C       0.57901642      -2.03722318      -0.46298992        6       0.00996806      -0.01304573      -0.01971897 
N       0.52108877      -0.82334483       1.69274150        7       0.00195944       0.02766147       0.01482282 
O       1.75109615      -2.63229755      -0.15809293        8      -0.00292844      -0.00295739       0.02949200 
H      -0.86349891      -0.01307970      -1.28535227        1      -0.00514169       0.04024476       0.00238022 
H       1.30093944      -0.09859878      -0.07207503        1      -0.01323676      -0.02229558      -0.00222400 
H      -2.97492553      -0.01409512       0.03860237        1      -0.00739341      -0.01955432      -0.02936138 
H      -2.24135570      -1.61876273      -0.00248521        1       0.04314841       0.01006597       0.00302377 
H      -2.10244925      -0.59100630       1.44142924        1      -0.00679615       0.00538646       0.02299744 
H      -0.78907330       1.57242384       1.32568106        1       0.02522731       0.03632342      -0.02249638 
H      -1.59770650       2.06680678      -0.17054002        1      -0.01595349       0.00676560       0.02680519 
H       0.16308032       1.97799646      -0.10748304        1       0.00086533       0.01168376       0.00233358 
O      -0.21939669      -2.54991141      -1.19514638        8      -0.00563205       0.00958507      -0.04352569 
H       1.44174887      -1.13217131       1.97524226        1      -0.01549913      -0.02868184      -0.01490741 
H      -0.14896409      -1.50035679       2.03619471        1       0.00777718       0.00772452       0.00616710 
H       1.77176057      -3.48104671      -0.61931686        1       0.00519929       0.02736101       0.01610616 
