19
Properties=species:S:1:pos:R:3:Z:I:1:forces:R:3 magmom=0 energy=-10948.3616215 dipole="0.2298114 -0.3045702 0.4416176" pbc="F F F"
C      -0.80317007       0.04784663      -0.16456950        6      -0.03134581      -0.02265317       0.00371437 
C       0.49337943      -0.63777207       0.29382200        6       0.00714432       0.00041235       0.00075606 
C      -2.03544298      -0.65853965       0.39492428        6      -0.03517069      -0.01904679       0.00379248 
C      -0.81068704       1.52483353       0.21449023        6       0.00573197      -0.01716607       0.01421573 
C       0.58713077      -2.03371780      -0.32131265        6       0.00141920      -0.01024574      -0.02569653 
N       0.67093941      -0.58166138       1.73356684        7      -0.00010048      -0.00269179       0.00918995 
O       1.14201828      -2.93619589       0.51132430        8       0.00935640       0.00075092      -0.01105826 
H      -0.82217504      -0.04299155      -1.25177998        1      -0.00398567      -0.00232181       0.00281469 
H       1.32409193      -0.08851194      -0.16158834        1       0.01662866       0.00244538       0.01628799 
H      -2.94255592      -0.16074831       0.05408940        1      -0.01039086       0.00463215      -0.01599360 
H      -2.09056372      -1.69849108       0.07035123        1       0.02489677      -0.01217762       0.01229928 
H      -2.04629992      -0.62762463       1.48660545        1       0.00825026       0.01089490      -0.00678684 
H      -0.89396182       1.64341319       1.29430968        1       0.02335595       0.00562249       0.00026889 
H      -1.65814922       2.02713150      -0.25430768        1       0.02432619      -0.00939337       0.02766096 
H       0.10339589       2.02659778      -0.10467481        1      -0.00142203      -0.00186153      -0.02938283 
O       0.24359362      -2.32012038      -1.43390028        8       0.00981421       0.01978104       0.01748669 
H       1.58934805      -0.92271292       1.98725017        1      -0.02808149       0.03080922       0.02035064 
H       0.00563098      -1.18494882       2.20279981        1       0.00530732       0.02506841      -0.03373159 
H       1.20977874      -3.76804743       0.02508080        1      -0.02573433      -0.00285896      -0.00618813 
