19
Properties=species:S:1:pos:R:3:Z:I:1:forces:R:3 magmom=0 energy=-10948.379317 dipole="-0.0147573 -0.2991621 0.5412342" pbc="F F F"
C      -0.78583156       0.02247270      -0.15189751        6      -0.02204377      -0.00753606      -0.00301637 
C       0.53446691      -0.60599153       0.34071951        6      -0.00294808      -0.00777265      -0.00051628 
C      -2.00188299      -0.69176877       0.43248974        6      -0.00448076      -0.02114948      -0.00265425 
C      -0.82188620       1.51182356       0.16752810        6       0.00260319       0.00760409      -0.00796934 
C       0.62903941      -2.01457073      -0.23334434        6       0.01740236      -0.00972016      -0.00810463 
N       0.67753298      -0.49819189       1.77903884        7      -0.02220518       0.01743645       0.02468336 
O       0.56960460      -2.98310630       0.70010279        8      -0.00324576      -0.00390499       0.02610385 
H      -0.79550480      -0.11349502      -1.23524226        1       0.00693992       0.01845785      -0.00731242 
H       1.34814361      -0.05084801      -0.13123864        1       0.00215839      -0.00262361       0.02027804 
H      -2.91747738      -0.27664272       0.01071772        1       0.00663823      -0.00808643       0.02898688 
H      -1.99049509      -1.76053671       0.21189295        1      -0.01635042      -0.01079385       0.00319568 
H      -2.05049520      -0.56408225       1.51596284        1       0.00840720       0.01589929      -0.02115663 
H      -0.82765664       1.67090195       1.24528768        1       0.00602548      -0.00610344      -0.01249844 
H      -1.71517537       1.97018659      -0.25748261        1      -0.00795037      -0.01333919       0.01360242 
H       0.04751833       2.02363804      -0.24485401        1       0.02095732       0.01600620      -0.00498938 
O       0.72485180      -2.26049971      -1.40260049        8      -0.00245139       0.01186657      -0.04263985 
H       1.62218845      -0.71323622       2.06726028        1       0.00381115      -0.01448359       0.00426855 
H       0.07064932      -1.15667760       2.25180027        1       0.00724923       0.01793165      -0.00850542 
H       0.61361569      -3.82809432       0.23426679        1      -0.00051674       0.00031131      -0.00175576 
