19
Properties=species:S:1:pos:R:3:Z:I:1:forces:R:3 magmom=0 energy=-10948.1442161 dipole="-0.0157379 -0.2721195 -0.4671583" pbc="F F F"
C      -0.76174330       0.09235895      -0.20248218        6       0.00112362       0.00362947      -0.00349778 
C       0.56629189      -0.63022255       0.24416393        6       0.00790763      -0.00709167       0.00080959 
C      -2.03541604      -0.70763627       0.07677095        6       0.00919807      -0.00412210       0.00355393 
C      -0.88373501       1.48441085       0.41232062        6      -0.01042768       0.02114187      -0.01180311 
C       0.26877475      -2.00943978       0.81582741        6      -0.02039492      -0.00367935       0.00835783 
N       1.34784370       0.16469786       1.17693755        7      -0.00091464      -0.02085437      -0.00283757 
O       0.16599180      -2.95665533      -0.13479708        8       0.01370187       0.00838015       0.01822923 
H      -0.69311235       0.21598760      -1.28435868        1       0.02822280      -0.00413017       0.00286174 
H       1.17139053      -0.78724388      -0.64808275        1       0.01665792       0.00356982       0.01590428 
H      -2.89710676      -0.16356816      -0.31022439        1       0.00730780      -0.00636055       0.03305256 
H      -2.01858559      -1.68374721      -0.40648859        1      -0.01260221      -0.00410482       0.02133867 
H      -2.17945858      -0.85068220       1.14948658        1      -0.01115185      -0.02274804      -0.00775635 
H      -0.98086787       1.43202306       1.49793061        1      -0.01439155      -0.01633874      -0.00495236 
H      -1.77886886       1.97020853       0.02565399        1      -0.02403910       0.01106747      -0.02076444 
H      -0.01964497       2.10255340       0.18801767        1       0.00748232       0.01564928      -0.00359127 
O       0.13867217      -2.25279909       1.98317931        8       0.00176064       0.00032483      -0.02112542 
H       2.26504303      -0.24483329       1.30026877        1       0.00041672      -0.02549871      -0.00454880 
H       0.90628359       0.15014001       2.08996304        1       0.00735675       0.00718562      -0.00219403 
H      -0.03717067      -3.79237307       0.30792385        1      -0.00721426       0.04397996      -0.02103677 
