19
Properties=species:S:1:pos:R:3:Z:I:1:forces:R:3 magmom=0 energy=-10948.3565438 dipole="0.3336188 0.3486126 0.3525379" pbc="F F F"
C      -0.72417121       0.14370770      -0.12924252        6      -0.00010521       0.00259805       0.00145334 
C       0.50660664      -0.76673991       0.07737348        6       0.01081447       0.01016326      -0.00204583 
C      -2.00959686      -0.65112337      -0.33009511        6      -0.01050327      -0.00072875      -0.01396531 
C      -0.88984505       1.15906903       0.99958200        6      -0.00128226       0.00082748      -0.00230047 
C       0.35936348      -1.54149826       1.38002943        6      -0.03796784       0.02637680       0.00380019 
N       1.72797382       0.01023019      -0.04434662        7       0.01316703      -0.00963248       0.01473828 
O       1.06922945      -1.00085547       2.39043990        8       0.01914613      -0.00148276       0.00739737 
H      -0.49530701       0.68605589      -1.04924645        1      -0.00576657      -0.00846114       0.00146028 
H       0.49267560      -1.51809055      -0.71371813        1      -0.00023196       0.00319475       0.01345731 
H      -2.81762169       0.02209364      -0.61465408        1      -0.02783261       0.00899074       0.02045565 
H      -1.90039469      -1.39654453      -1.11711965        1       0.01966097      -0.01727869      -0.01923525 
H      -2.30368272      -1.17353820       0.57992107        1       0.00611352       0.00184040       0.00848140 
H      -1.11609224       0.65943790       1.94352808        1      -0.01466295       0.00169441       0.01172444 
H      -1.71719701       1.83257887       0.77690798        1       0.00089968      -0.00253948      -0.00089593 
H       0.00010539       1.77142670       1.14504068        1       0.01613126      -0.00309813      -0.01175555 
O      -0.33114664      -2.51073876       1.52974647        8       0.03199795       0.00552803      -0.01435925 
H       2.54028564      -0.59310906      -0.04325211        1       0.00386797      -0.01108752      -0.00976695 
H       1.83170796       0.62752472       0.75140267        1       0.00158946       0.02047421      -0.02095094 
H       0.89692201      -1.52847916       3.18009527        1      -0.02503576      -0.02737922       0.01230725 
