19
Properties=species:S:1:pos:R:3:Z:I:1:forces:R:3 magmom=0 energy=-10948.4044168 dipole="0.0964781 0.0730665 0.5031042" pbc="F F F"
C      -0.70928094       0.12151978      -0.23073749        6      -0.01461770       0.00569777       0.00241159 
C       0.55722758      -0.69878608       0.07118044        6       0.01437874      -0.01801351       0.00629524 
C      -1.94489204      -0.70849124       0.09382085        6      -0.01173590      -0.00224442       0.01218065 
C      -0.73098050       1.44921037       0.52333850        6      -0.02330083       0.00876823      -0.01494793 
C       1.76300946       0.22125077       0.01213967        6       0.03757776       0.01267312      -0.01181638 
N       0.67239253      -1.79707453      -0.87404059        7      -0.01044557      -0.00397606      -0.00656434 
O       2.21347207       0.57842394       1.22671426        8       0.01722927       0.02268742      -0.01515449 
H      -0.68911044       0.32859211      -1.30588660        1       0.00885457       0.01895952       0.01223722 
H       0.47426354      -1.10362986       1.08198647        1       0.04337719       0.01241056      -0.00071281 
H      -2.84428819      -0.21403006      -0.27296034        1      -0.00627539      -0.02518046      -0.00797783 
H      -1.87605912      -1.70044560      -0.34911366        1      -0.02856779       0.02801238      -0.01919401 
H      -2.04538261      -0.81888812       1.17594524        1      -0.00341941      -0.01498964       0.01190457 
H      -0.61644374       1.28862964       1.59837665        1      -0.00039209      -0.00075436      -0.03927211 
H      -1.68388958       1.95198844       0.35859312        1       0.01658752       0.01501488       0.00648797 
H       0.06257233       2.12128859       0.19153178        1      -0.02682021      -0.01680766       0.03159598 
O       2.26400918       0.61214361      -1.00611375        8       0.01319485      -0.02395708       0.02367117 
H       1.42704811      -2.42093952      -0.61572717        1      -0.02088934       0.00699217      -0.01658809 
H       0.89594323      -1.42122382      -1.79010202        1       0.01030509      -0.02535746       0.01820953 
H       2.95827714       1.18094378       1.09502999        1      -0.01504075       0.00006464       0.00723406 
