19
Properties=species:S:1:pos:R:3:Z:I:1:forces:R:3 magmom=0 energy=-10948.3753387 dipole="-0.0597924 -0.1716735 0.6006647" pbc="F F F"
C      -0.78575834       0.02964621      -0.09256496        6      -0.03504162       0.01108022      -0.02728475 
C       0.54636878      -0.52003744       0.45889147        6      -0.01100113       0.02708220      -0.01018671 
C      -1.96602049      -0.48755951       0.72615039        6      -0.03574281       0.02045961      -0.00344646 
C      -0.76719335       1.55278683      -0.15724390        6      -0.00772879       0.01914114       0.00082826 
C       0.54027706      -2.02581085       0.23064573        6       0.00973132      -0.02188780      -0.01126940 
N       0.77965531      -0.08291174       1.82112894        7       0.02716031      -0.00209432       0.00951828 
O       0.45528976      -2.74114142       1.36817154        8       0.00444739      -0.00208990       0.02082882 
H      -0.87454684      -0.36072032      -1.10754589        1       0.00152888      -0.02325676      -0.02458515 
H       1.34674818      -0.13202597      -0.17412497        1       0.01285022       0.00024729       0.01147406 
H      -2.90534718      -0.13815652       0.30140637        1      -0.02874776       0.02376677      -0.01429364 
H      -2.00017129      -1.57832987       0.74780911        1      -0.00016357       0.01255377       0.00788249 
H      -1.91929302      -0.12517818       1.75423817        1      -0.01448842       0.02251592       0.00554479 
H      -0.64111937       1.98244548       0.83537137        1       0.01435766      -0.01663200       0.01701387 
H      -1.70182015       1.92777416      -0.57741116        1       0.01227892      -0.03990054       0.01374913 
H       0.04854167       1.90974379      -0.78814337        1       0.00144378      -0.01904427       0.03037116 
O       0.56934164      -2.54329474      -0.85042405        8       0.01443412      -0.00744818      -0.01177257 
H       1.70741779      -0.34195239       2.12976982        1       0.00513305       0.01797700      -0.00773054 
H       0.13096815      -0.52967911       2.45686778        1       0.00640246      -0.00842083      -0.00391651 
H       0.41093254      -3.67199856       1.11493604        1       0.02314600      -0.01404933      -0.00272516 
