19
Properties=species:S:1:pos:R:3:Z:I:1:forces:R:3 magmom=0 energy=-10948.3475505 dipole="0.4562978 -0.2166726 0.2170683" pbc="F F F"
C      -0.79824032       0.09815171      -0.24334748        6      -0.00149777       0.00761211      -0.01369766 
C       0.48041839      -0.66128475       0.12092621        6      -0.00405118      -0.00621857       0.02599092 
C      -2.06078160      -0.69272733       0.09865422        6       0.01643979       0.00118569      -0.00106577 
C      -0.80806714       1.44885982       0.46508175        6      -0.00209905      -0.00025300       0.00311181 
C       0.78736901      -1.77106754      -0.87687498        6      -0.01309221      -0.00313407      -0.01596110 
N       0.42562805      -1.15796271       1.49139654        7       0.01256627      -0.00067975       0.04296190 
O       1.97433281      -2.35468724      -0.60992182        8      -0.00998154      -0.01175015       0.02030400 
H      -0.77403172       0.25364151      -1.32279862        1      -0.01405072       0.01829165      -0.03097979 
H       1.32611742       0.03046175       0.06879721        1      -0.00774036      -0.00090873      -0.02154497 
H      -2.93819045      -0.18178439      -0.29814769        1       0.01542456      -0.02719425      -0.00615640 
H      -2.03722887      -1.69873701      -0.32114244        1      -0.00444755       0.01970694      -0.02020491 
H      -2.18717524      -0.75905220       1.18080092        1       0.00153906      -0.00927932      -0.00398629 
H      -0.74348637       1.29751383       1.54260023        1      -0.00053057       0.02360036       0.01585851 
H      -1.72719776       1.99391647       0.24997386        1       0.00182435      -0.00363492      -0.00969933 
H       0.03524805       2.06734246       0.15493641        1      -0.01143781       0.01370218       0.00274141 
O       0.09563528      -2.12539797      -1.78917093        8      -0.01212573       0.00871414      -0.02006283 
H       1.32231536      -1.52159452       1.78248597        1       0.03446945      -0.03019951      -0.00968709 
H      -0.25154563      -1.90616802       1.57318983        1      -0.00236274      -0.00945935       0.03125469 
H       2.10414828      -3.05731544      -1.25985008        1       0.00115365       0.00989849       0.01082285 
