19
Properties=species:S:1:pos:R:3:Z:I:1:forces:R:3 magmom=0 energy=-10948.356454 dipole="0.2704167 0.5341734 0.0411245" pbc="F F F"
C      -0.75061703       0.06797441      -0.23751048        6       0.00774992       0.01139338       0.00830621 
C       0.64565271      -0.53841434       0.02307067        6       0.01449753      -0.01066180      -0.00563411 
C      -1.86610341      -0.79989733       0.33539606        6      -0.01066643       0.00671644      -0.00899552 
C      -0.86034554       1.50418158       0.26934021        6      -0.00578452       0.00567664       0.00418051 
C       0.92549462      -0.58283166       1.51895250        6      -0.01030889       0.02248286      -0.00808082 
N       1.64725739       0.14683747      -0.77550238        7       0.01409474      -0.00230597       0.01811533 
O       1.60490661       0.49399769       1.96115483        8       0.00249598       0.02376234       0.00532825 
H      -0.82822959       0.07675730      -1.32707058        1      -0.02424782       0.01322961       0.01336521 
H       0.60774409      -1.58171704      -0.28979275        1       0.01264967      -0.02299934      -0.02000277 
H      -2.83791376      -0.36817469       0.09967041        1      -0.01784582       0.03065994      -0.01671644 
H      -1.83890414      -1.80753637      -0.07945980        1       0.03182167      -0.01741280       0.02797468 
H      -1.78865523      -0.88042664       1.41990604        1      -0.00553553      -0.01118409      -0.00459940 
H      -0.82597696       1.53495762       1.36029495        1      -0.01430413       0.01976988      -0.01110542 
H      -1.80478499       1.94569305      -0.04817555        1      -0.01134859      -0.02644267       0.01281582 
H      -0.06103465       2.14013429      -0.11138010        1       0.00434177      -0.00236434      -0.00197065 
O       0.56784463      -1.45706344       2.25776810        8      -0.01748294      -0.02448529       0.00588495 
H       2.53646085      -0.33352995      -0.73187645        1       0.00807594       0.00049581       0.00591631 
H       1.80361119       1.08457844      -0.42779328        1       0.00206778      -0.00691946       0.00508575 
H       1.69039715       0.40304946       2.91936188        1       0.01972962      -0.00941111      -0.02986789 
