19
Properties=species:S:1:pos:R:3:Z:I:1:forces:R:3 magmom=0 energy=-10948.361831 dipole="0.3553871 -0.299539 0.3131157" pbc="F F F"
C      -0.79876407       0.07523352      -0.21627590        6       0.02697555      -0.01196849       0.01251073 
C       0.46881014      -0.67919766       0.19678816        6       0.02572379      -0.00729638      -0.01228134 
C      -2.05913706      -0.69522025       0.16964113        6      -0.00358582       0.00793422      -0.00852285 
C      -0.79745141       1.46901897       0.40180399        6      -0.00916794       0.00351748       0.00054471 
C       0.70417678      -1.89673432      -0.69712777        6      -0.02620448      -0.00552021       0.02247005 
N       0.48037003      -0.96990232       1.62354059        7       0.02156616      -0.01067085      -0.03636209 
O       1.62001138      -2.73775416      -0.17402456        8      -0.01455368       0.01690274       0.00181319 
H      -0.77361072       0.16682978      -1.30379917        1       0.01641768      -0.03049776       0.02288354 
H       1.32506896      -0.02656110      -0.00391607        1       0.03245355       0.00165265       0.00482344 
H      -2.93642742      -0.20909073      -0.25382287        1      -0.03598249       0.00834416       0.00988939 
H      -2.03788418      -1.71986272      -0.20387885        1       0.01239863       0.00175612      -0.00186359 
H      -2.18658828      -0.71211304       1.25378286        1       0.00335195      -0.00749924      -0.00673655 
H      -0.74633012       1.40431899       1.48836661        1      -0.02423147      -0.00821128       0.00234361 
H      -1.70448974       2.00634731       0.12838467        1      -0.01636703       0.03440507      -0.00363595 
H       0.05872202       2.05304767       0.06142381        1      -0.00683487       0.00085865      -0.02265245 
O       0.18615061      -2.10532080      -1.75764066        8      -0.00737166       0.02807341      -0.00503263 
H       1.37881180      -1.33643427       1.90851785        1      -0.01695540      -0.01818989      -0.00173508 
H      -0.21591008      -1.66854602       1.85323377        1       0.02062251      -0.00275046       0.00390787 
H       1.74548844      -3.45190677      -0.81225723        1       0.00174496      -0.00084003       0.01763587 
