19
Properties=species:S:1:pos:R:3:Z:I:1:forces:R:3 magmom=0 energy=-10948.3786612 dipole="-0.4723659 -0.1808724 0.2600121" pbc="F F F"
C      -0.73696501       0.10358594      -0.19918701        6      -0.00807656       0.00050481       0.00630969 
C       0.60281438      -0.59567281       0.12905844        6      -0.00807743      -0.02563179       0.00712586 
C      -1.96149937      -0.70639562       0.22017314        6       0.00610524       0.00176033      -0.00032087 
C      -0.79662007       1.51482971       0.38430327        6       0.00442405       0.00825324       0.00734225 
C       0.95400275      -0.46850558       1.60594537        6       0.01046079       0.00088605       0.02434655 
N       1.65733325      -0.08183077      -0.72439396        7      -0.00879477       0.01304166       0.02214466 
O       0.12536759      -1.16782641       2.40392398        8      -0.01372877       0.00669546      -0.01257964 
H      -0.73024177       0.17304645      -1.28907065        1       0.00454844       0.01760851       0.00933434 
H       0.48260297      -1.66099714      -0.07751150        1      -0.01605716      -0.04253757       0.01315376 
H      -2.86958926      -0.21459615      -0.13109373        1       0.02171436       0.00036638      -0.00244234 
H      -1.93860524      -1.71148139      -0.20293554        1       0.01204978       0.01373735      -0.00190113 
H      -2.02697640      -0.79883830       1.30331659        1       0.00475742       0.00599514      -0.00697314 
H      -0.90430396       1.47547554       1.47096591        1       0.01138022       0.00373931       0.00007868 
H      -1.65294528       2.06022587      -0.01252225        1       0.00094524      -0.03535797       0.00768847 
H       0.09692212       2.09833435       0.15967231        1      -0.00499601      -0.00104731      -0.00891468 
O       1.86897142       0.17325609       2.04042890        8      -0.02980654       0.02337575      -0.00490315 
H       2.54540425      -0.49705107      -0.46721069        1      -0.01436954      -0.00607747      -0.02468717 
H       1.77096311       0.91129881      -0.55746672        1       0.02328808       0.01935696      -0.01028626 
H       0.41364649      -1.02569203       3.31560897        1       0.00423322      -0.00466892      -0.02451578 
