19
Properties=species:S:1:pos:R:3:Z:I:1:forces:R:3 magmom=0 energy=-10948.3568976 dipole="0.3693781 -0.3241052 0.2905549" pbc="F F F"
C      -0.76065733       0.11587581      -0.25190975        6       0.02549223      -0.01190621       0.02386123 
C       0.49721935      -0.66631562       0.13946827        6       0.01504759      -0.01483953      -0.02850027 
C      -2.02402193      -0.71188485      -0.02584970        6      -0.00504312       0.00737968      -0.01537618 
C      -0.81996970       1.42187452       0.53358998        6      -0.00508317       0.00129131      -0.00786588 
C       0.85252481      -1.71208740      -0.91710282        6       0.00095023       0.00041091       0.02175693 
N       0.39182244      -1.20148477       1.49031070        7       0.02693709       0.01342085      -0.02467174 
O       1.80096694      -2.56439433      -0.47648678        8      -0.01916480      -0.00339350       0.01250878 
H      -0.68134722       0.33695556      -1.31814256        1       0.01740688      -0.01255485       0.03733401 
H       1.34429930       0.02813887       0.13189385        1       0.01292710      -0.00637135       0.01320524 
H      -2.88552887      -0.19962614      -0.45011992        1      -0.04098056       0.01339889       0.00427770 
H      -1.96020416      -1.69302189      -0.49877620        1       0.02520442       0.00076490      -0.01797829 
H      -2.21135593      -0.84249951       1.04148564        1       0.00203487      -0.01077817      -0.01208470 
H      -0.80725016       1.21978947       1.60500459        1      -0.02880263      -0.00684459      -0.01204084 
H      -1.72997344       1.97070089       0.29419269        1      -0.01623744       0.02631041       0.00844551 
H       0.03206521       2.06253230       0.30222006        1      -0.00416447       0.00284436      -0.02049169 
O       0.39667074      -1.78780144      -2.02280062        8      -0.02746885       0.01482411       0.00405211 
H       1.28002148      -1.56487531       1.80852968        1       0.00262623      -0.02310054      -0.02894265 
H      -0.27350655      -1.96452354       1.51823132        1       0.01739207       0.00302290       0.03476492 
H       1.99827192      -3.17182390      -1.20101442        1       0.00092637       0.00612031       0.00774591 
