19
Properties=species:S:1:pos:R:3:Z:I:1:forces:R:3 magmom=0 energy=-10948.4395386 dipole="0.1342711 0.3094685 -0.4136663" pbc="F F F"
C      -0.74401532       0.13512983      -0.28323585        6       0.00666615      -0.00412492      -0.01011837 
C       0.56686172      -0.61735616       0.03461333        6       0.00285279       0.02143138       0.01669495 
C      -1.95451454      -0.79336959      -0.20047739        6       0.00115802       0.01115329      -0.00634595 
C      -0.89706263       1.33557711       0.64569771        6      -0.00130355      -0.00891525      -0.01327713 
C       0.83479292      -1.65363521      -1.04621691        6      -0.01914778       0.03976787       0.02117550 
N       0.53781710      -1.19378787       1.36233487        7       0.01567782      -0.01918131       0.03038710 
O       1.13544155      -1.08628874      -2.22766944        8       0.01092359       0.01538029      -0.04118779 
H      -0.65520429       0.49583235      -1.31019881        1       0.01338943       0.01321449      -0.00249037 
H       1.37860158       0.11218683      -0.01177384        1       0.00668739      -0.01290247      -0.02639587 
H      -2.85929141      -0.25902894      -0.48840552        1      -0.00549429       0.00841059      -0.00186626 
H      -1.85385386      -1.65882103      -0.85849919        1       0.00701376       0.00685060       0.01488828 
H      -2.10006740      -1.15425851       0.81927922        1       0.01830199       0.01827628      -0.00489332 
H      -1.03831622       1.00890846       1.67436233        1       0.01441479      -0.02984825       0.01519270 
H      -1.75543121       1.94065516       0.35417472        1      -0.02342136      -0.02102509      -0.00974186 
H      -0.01012838       1.96946499       0.61363551        1      -0.01014172       0.01945143      -0.00942561 
O       0.77418425      -2.84114682      -0.89547482        8       0.00413382      -0.03855143      -0.00529447 
H       1.46401979      -1.50196567       1.63091814        1      -0.02185052       0.00899758       0.01014177 
H      -0.04021214      -2.02612689       1.35660338        1      -0.00727406      -0.02548246       0.00851616 
H       1.27704104      -1.79524693      -2.86813880        1      -0.01258627      -0.00290267       0.01404054 
