19
Properties=species:S:1:pos:R:3:Z:I:1:forces:R:3 magmom=0 energy=-10948.3673631 dipole="0.2353011 -0.3343563 0.4081404" pbc="F F F"
C      -0.79742538       0.05721897      -0.18957442        6       0.02589950      -0.00806658       0.00013159 
C       0.48340607      -0.66230144       0.25602934        6      -0.00159989       0.01860610       0.00969316 
C      -2.04381329      -0.70219363       0.25903411        6      -0.00544945       0.00950897      -0.00808129 
C      -0.80572203       1.49342906       0.32292713        6       0.00356319      -0.02863715      -0.00767192 
C       0.64675643      -1.97431552      -0.51028829        6      -0.02188945       0.03009276       0.01561416 
N       0.56146640      -0.76784988       1.70143843        7       0.03829880       0.01438671      -0.00471381 
O       1.28015300      -2.92371912       0.20541940        8      -0.01794574       0.02229851      -0.00086235 
H      -0.77948448       0.06788939      -1.28002025        1      -0.00216369      -0.01016871      -0.00712725 
H       1.33067353      -0.05201796      -0.07544695        1       0.01682098      -0.00661272       0.01426237 
H      -2.93944478      -0.21081476      -0.11707380        1      -0.03106083       0.01396114      -0.01174809 
H      -2.04854755      -1.72648716      -0.11662860        1       0.01230566      -0.00653842       0.00548838 
H      -2.12251649      -0.72510758       1.34757936        1      -0.00034443       0.02071209       0.00353059 
H      -0.83569202       1.51451658       1.41159526        1      -0.01894595      -0.00793936       0.00126668 
H      -1.67459761       2.02702465      -0.06199798        1       0.00107431       0.01170875       0.01351552 
H       0.09143953       2.02799564       0.00718290        1      -0.02215206       0.01309818      -0.02529765 
O       0.29347854      -2.15914173      -1.64085769        8       0.00484910      -0.01048321      -0.01485671 
H       1.45768898      -1.13647975       1.98874782        1       0.00050080      -0.01264114       0.01064416 
H      -0.14439783      -1.40096775       2.05431481        1       0.00898693      -0.03361034       0.00651209 
H       1.37508471      -3.69170075      -0.37215514        1       0.00925217      -0.02967557      -0.00029969 
