19
Properties=species:S:1:pos:R:3:Z:I:1:forces:R:3 magmom=0 energy=-10948.3630501 dipole="0.2141196 -0.3202451 0.4290714" pbc="F F F"
C      -0.79904124       0.05030775      -0.17979269        6      -0.03285880      -0.00397925      -0.01494917 
C       0.49303396      -0.64647338       0.26918482        6       0.00326252       0.00617918       0.01202495 
C      -2.03418028      -0.69239181       0.32460869        6      -0.03255197      -0.01429497       0.00085988 
C      -0.80684246       1.50540834       0.27223160        6       0.00621472      -0.00022687       0.00378832 
C       0.61488895      -2.00485880      -0.41757428        6      -0.00915241      -0.02128416      -0.03124600 
N       0.61513243      -0.66273107       1.71391672        7       0.00156858       0.01866986       0.03983097 
O       1.22682736      -2.92920204       0.34717377        8      -0.01836801      -0.00962230       0.01054728 
H      -0.80400140       0.01253633      -1.26929602        1       0.00639742       0.00087001      -0.02299225 
H       1.33319336      -0.06558944      -0.12639758        1       0.00793957      -0.00348703       0.00102222 
H      -2.94217605      -0.19857091      -0.01948263        1       0.00149258       0.01832369      -0.01442080 
H      -2.06298596      -1.72019499      -0.03917597        1       0.01806992      -0.01361060       0.00532733 
H      -2.07134120      -0.70456211       1.41564876        1      -0.01062323       0.02716294       0.00293507 
H      -0.86494974       1.56883718       1.35809215        1       0.00155968       0.01300865       0.00176470 
H      -1.66047972       2.03337132      -0.15435867        1       0.01590623      -0.01578112       0.01795983 
H       0.10441072       2.01675212      -0.04056778        1      -0.01941728       0.03017066      -0.01926641 
O       0.24261153      -2.24686640      -1.53141499        8       0.00801850      -0.00160961      -0.01025762 
H       1.50658821      -1.04152832       2.00184227        1       0.02006165      -0.00953715      -0.00684978 
H      -0.09937052      -1.24876149       2.12578927        1       0.01767346      -0.03222359       0.01813425 
H       1.28176480      -3.73773876      -0.17899470        1       0.01480683       0.01127182       0.00578735 
