19
Properties=species:S:1:pos:R:3:Z:I:1:forces:R:3 magmom=0 energy=-10948.362016 dipole="0.3710166 -0.1687234 0.2955179" pbc="F F F"
C      -0.80006562       0.03342666      -0.26308370        6       0.03972175      -0.02707248       0.00200299 
C       0.47369483      -0.74137462       0.07638344        6       0.03358267       0.00178969      -0.01443063 
C      -2.03599820      -0.68336732       0.26885494        6       0.00661684       0.00105950       0.00266839 
C      -0.72018377       1.44898551       0.30586304        6       0.01188847      -0.02420246      -0.01407695 
C       1.68807760      -0.10104907      -0.58248059        6       0.00541994       0.01510215       0.03515141 
N       0.39449572      -2.13830752      -0.35346256        7      -0.00983236       0.02320493       0.01563354 
O       2.80593174      -0.26384383       0.15196154        8      -0.02060441      -0.00962133       0.03364633 
H      -0.85399894       0.09930797      -1.35363612        1      -0.01649106      -0.00675408      -0.00190709 
H       0.62727645      -0.73371596       1.15797408        1      -0.01935681      -0.02032601      -0.00745697 
H      -2.92647807      -0.08778023       0.06941832        1      -0.02254642      -0.00327199      -0.00576858 
H      -2.16359635      -1.66652275      -0.17650452        1       0.01747085       0.00485008      -0.01143339 
H      -1.95843997      -0.81618817       1.35015352        1      -0.00526238      -0.00037399       0.02075749 
H      -0.72764400       1.41434563       1.39777090        1       0.02214203       0.02073610      -0.00208265 
H      -1.57950940       2.03741262      -0.01374556        1      -0.00253161      -0.00055094       0.00735125 
H       0.17956824       1.97065138      -0.02028730        1      -0.00259944       0.00245103      -0.00772452 
O       1.69737786       0.42045387      -1.66236556        8       0.01869717       0.00671331      -0.00962806 
H       1.20084448      -2.66318553      -0.03769759        1      -0.00639691       0.01675141      -0.01604847 
H       0.36513318      -2.19248759      -1.36574363        1      -0.01478642      -0.00349140      -0.00044429 
H       3.54887924       0.09503312      -0.35094497        1      -0.03513202       0.00300649      -0.02620983 
