19
Properties=species:S:1:pos:R:3:Z:I:1:forces:R:3 magmom=0 energy=-10948.3127444 dipole="0.5302575 -0.0309953 0.0666664" pbc="F F F"
C      -0.81095199       0.09369868      -0.25133123        6       0.02363955      -0.01742169       0.00025624 
C       0.45811026      -0.68654880       0.12006483        6       0.01977688      -0.01159640       0.00557076 
C      -2.09111429      -0.65830192       0.11082170        6       0.00975924       0.00195877       0.00790805 
C      -0.77377803       1.45187946       0.44533230        6      -0.00891967      -0.00890867      -0.01942746 
C       0.74747872      -1.83374012      -0.83609389        6       0.01181273      -0.00559395       0.02477119 
N       0.38844949      -1.18250091       1.49400063        7       0.00677738       0.01039980       0.01342044 
O       2.07475999      -2.01237600      -0.99674289        8      -0.00468830      -0.00335349      -0.00799901 
H      -0.79182035       0.24237218      -1.33435803        1       0.00898919      -0.00092488       0.00248595 
H       1.31129640      -0.00892612       0.06745762        1      -0.00195394       0.00460953       0.00578200 
H      -2.95614496      -0.14233701      -0.30482809        1       0.00439150       0.01196052       0.01178126 
H      -2.08579229      -1.67656542      -0.27376134        1      -0.00994210       0.00961505      -0.00833768 
H      -2.21378688      -0.68312361       1.19439927        1      -0.02282548      -0.02217983       0.01501689 
H      -0.64792325       1.30546180       1.51907948        1      -0.03059438       0.02700620      -0.01222842 
H      -1.70114390       1.99863946       0.27711138        1      -0.00988913       0.00643269       0.00046815 
H       0.05217384       2.06592733       0.08374607        1      -0.00333225      -0.00813585       0.00373304 
O      -0.06050963      -2.55329412      -1.35423426        8       0.00558408       0.02848191      -0.02020923 
H       1.28623477      -1.52540839       1.80866062        1       0.01284024      -0.01531761      -0.02257362 
H      -0.28237658      -1.93733617       1.57374011        1       0.00450262       0.00160689      -0.01048172 
H       2.20052436      -2.78250166      -1.56650767        1      -0.01592819      -0.00863891       0.01006325 
