19
Properties=species:S:1:pos:R:3:Z:I:1:forces:R:3 magmom=0 energy=-10948.4407685 dipole="0.214393 0.2767757 -0.3896168" pbc="F F F"
C      -0.66656279       0.10929268      -0.25238347        6      -0.01554541       0.00501705       0.01456926 
C       0.54621193      -0.70887565       0.24815982        6       0.00053859      -0.00310137       0.00643825 
C      -1.95578607      -0.70354679      -0.14547773        6       0.00106670       0.00922178       0.00051417 
C      -0.77467228       1.41813652       0.52147221        6      -0.00228041       0.01429605       0.01194735 
C       0.83807321      -1.80947482      -0.75775295        6       0.01000699      -0.00682258      -0.01127125 
N       0.32821421      -1.21309114       1.58875851        7      -0.01064247       0.04410106      -0.01027084 
O       1.34397445      -1.31820799      -1.90381279        8       0.01323604      -0.00469088      -0.01574081 
H      -0.48094713       0.33683814      -1.30516407        1      -0.00601664       0.00776052       0.03546611 
H       1.41350596      -0.04456286       0.25585481        1      -0.01031948      -0.00792975      -0.00104073 
H      -2.78739749      -0.15497534      -0.58716616        1       0.01440651      -0.00546642      -0.00634677 
H      -1.87642223      -1.66628180      -0.65453752        1      -0.01084347       0.01654639       0.00415866 
H      -2.20369806      -0.88847976       0.90121398        1       0.00276301       0.01021330      -0.01662532 
H      -0.88628507       1.22102758       1.58761293        1      -0.01040556      -0.02333107      -0.01151155 
H      -1.63853216       1.99168766       0.18345515        1       0.01204490      -0.00766251       0.00999378 
H       0.11580565       2.03257075       0.38233653        1      -0.00794137       0.00102865      -0.01109662 
O       0.62913467      -2.97828605      -0.59028490        8       0.00954615      -0.01055818       0.00501890 
H       1.18889008      -1.57360102       1.97816606        1       0.03168715       0.00793792       0.00183011 
H      -0.31521761      -1.99506311       1.56002088        1      -0.01406810      -0.02617183      -0.01212892 
H       1.47934673      -2.05762375      -2.50980116        1      -0.00723318      -0.02038803       0.00609629 
