19
Properties=species:S:1:pos:R:3:Z:I:1:forces:R:3 magmom=0 energy=-10948.3002326 dipole="0.513555 0.1342393 0.0090726" pbc="F F F"
C      -0.73898548       0.08676843      -0.21807731        6      -0.00338224       0.02071990       0.00245787 
C       0.60553002      -0.61128446       0.05357148        6       0.02189624      -0.01790378       0.00888455 
C      -1.94053093      -0.72895599       0.25309493        6       0.01423296       0.00672374      -0.00069759 
C      -0.77094930       1.50168935       0.35675843        6      -0.01323151       0.03289521      -0.00366192 
C       0.98141706      -0.57851542       1.53648460        6       0.01583188      -0.03494510       0.01960004 
N       1.62914599      -0.10590674      -0.84846482        7       0.00360772      -0.00251927       0.02505895 
O       2.31140959      -0.47338287       1.72987075        8       0.02167893       0.00909050      -0.00508929 
H      -0.78040789       0.15311444      -1.30708358        1      -0.00512935       0.02243077      -0.00192920 
H       0.47229597      -1.67521417      -0.16873057        1       0.01875620      -0.01659277       0.00909137 
H      -2.86521042      -0.22685581      -0.03644882        1       0.02080887      -0.02157655       0.02188235 
H      -1.94033152      -1.72051647      -0.20330010        1      -0.00863721       0.01588592       0.01393481 
H      -1.93307894      -0.84875538       1.33519274        1      -0.01742113       0.01614843      -0.01737690 
H      -0.80710638       1.47290280       1.44661625        1       0.01226457       0.00911523      -0.02189073 
H      -1.65455219       2.03518057       0.00765729        1      -0.01332022      -0.01612992      -0.00274856 
H       0.09805486       2.08902723       0.05302608        1      -0.00634595      -0.00570302       0.01157038 
O       0.21877807      -0.67273800       2.45752859        8      -0.00770236      -0.01913158      -0.03372784 
H       2.51392059      -0.56834893      -0.68301806        1      -0.01237760      -0.00381613      -0.00300382 
H       1.79000336       0.88102593      -0.68561490        1      -0.01319470      -0.00233528      -0.00543233 
H       2.46366151      -0.51006865       2.68346254        1      -0.02833510       0.00764368      -0.01692213 
