19
Properties=species:S:1:pos:R:3:Z:I:1:forces:R:3 magmom=0 energy=-10948.3529655 dipole="0.4449097 -0.2578516 0.2090261" pbc="F F F"
C      -0.75035015       0.14126876      -0.25924611        6       0.00106742      -0.00920326      -0.00560305 
C       0.52070585      -0.63330153       0.10080680        6      -0.00108192       0.01385691      -0.02041749 
C      -2.00642882      -0.71011458      -0.08766937        6      -0.00102638       0.00220395       0.00616833 
C      -0.84720339       1.41406213       0.57653775        6      -0.00319532      -0.03169137      -0.00957772 
C       0.88235402      -1.64291298      -0.98333608        6      -0.00370758      -0.00133620       0.02204942 
N       0.43457870      -1.24517636       1.42353493        7       0.00141436       0.01678936      -0.02034236 
O       2.02634200      -2.29218896      -0.68118393        8      -0.01553898      -0.01030200      -0.00273097 
H      -0.66160468       0.40865443      -1.31401570        1      -0.00611717       0.01439309       0.00092812 
H       1.35465714       0.07346575       0.13220635        1       0.02469514       0.00089875       0.00117155 
H      -2.87891997      -0.16797394      -0.45021065        1      -0.00583476       0.00662594      -0.00447382 
H      -1.94218635      -1.64565150      -0.64286081        1       0.01262566      -0.00009302       0.00354540 
H      -2.17469550      -0.92718274       0.96829469        1      -0.02237462      -0.01904786       0.01100119 
H      -0.88580835       1.16126676       1.63576770        1       0.00286066       0.01343186       0.02411011 
H      -1.75059821       1.96863170       0.32238135        1       0.00301904       0.00444605       0.00792357 
H       0.00997555       2.06879305       0.41282632        1      -0.00678478      -0.00381629      -0.00450668 
O       0.26550667      -1.86861900      -1.98564865        8       0.03763864      -0.00436419      -0.01854665 
H       1.33159863      -1.62260498       1.69943000        1       0.00102016      -0.00078573       0.00019062 
H      -0.22600272      -2.01298910       1.42037953        1      -0.01365914       0.00946387       0.01357085 
H       2.20370748      -2.91813503      -1.39456483        1      -0.00502044      -0.00146980      -0.00446045 
