19
Properties=species:S:1:pos:R:3:Z:I:1:forces:R:3 magmom=0 energy=-10948.3252861 dipole="0.4986741 -0.1215582 0.1631147" pbc="F F F"
C      -0.79316805       0.11739131      -0.25962220        6      -0.00314410      -0.00501576       0.00015745 
C       0.48110517      -0.65925367       0.09189076        6       0.01275365       0.01036088       0.03963700 
C      -2.06092610      -0.68549967       0.02723600        6       0.01186646      -0.00893181       0.00280646 
C      -0.80206930       1.43354813       0.51406105        6      -0.01559724      -0.00017237      -0.02021175 
C       0.85606249      -1.68094473      -0.96974265        6      -0.00878700      -0.01024508      -0.00980495 
N       0.37804378      -1.28716325       1.40879394        7       0.01502064       0.00263291       0.03185021 
O       2.15587919      -2.02852786      -0.85778045        8      -0.00673125      -0.02575032      -0.01851277 
H      -0.75766325       0.32804885      -1.33087066        1       0.02909790       0.00086163       0.00630974 
H       1.31599212       0.04270255       0.14361508        1       0.00181155       0.01151021       0.00138125 
H      -2.93085023      -0.17967494      -0.39260057        1       0.03208300       0.00411834       0.02716078 
H      -2.01255264      -1.68337571      -0.40849631        1      -0.00961490       0.00913204      -0.00707002 
H      -2.21187414      -0.76784221       1.10478185        1      -0.03384899      -0.03358740      -0.01209519 
H      -0.69457369       1.23341652       1.58186065        1      -0.02569401       0.02291295      -0.02744329 
H      -1.73726299       1.97067886       0.35497613        1       0.00241730      -0.00028658       0.01328510 
H       0.01766258       2.08285763       0.20188706        1      -0.01413109      -0.01341782       0.01914217 
O       0.13011836      -2.16490837      -1.79207221        8       0.02788125       0.02060513       0.00207164 
H       1.26979887      -1.65744176       1.70969820        1       0.02167697       0.00379870      -0.02897325 
H      -0.28803354      -2.05062955       1.40309698        1       0.00036181       0.03296664      -0.03203584 
H       2.34613366      -2.69255140      -1.53274868        1      -0.03742210      -0.02149232       0.01234515 
