19
Properties=species:S:1:pos:R:3:Z:I:1:forces:R:3 magmom=0 energy=-10948.4409399 dipole="0.22794 0.2488018 -0.4035142" pbc="F F F"
C      -0.66964276       0.08907526      -0.24529438        6       0.02346517       0.00744520       0.00872766 
C       0.53248618      -0.72625422       0.28495319        6       0.01395970      -0.01472718       0.00552438 
C      -1.97074579      -0.69582530      -0.09281637        6       0.01153690       0.00250729      -0.00152286 
C      -0.74956452       1.43050560       0.47392126        6       0.00065820       0.01971959       0.01529195 
C       0.80775539      -1.88085453      -0.66505009        6       0.00571675      -0.01800688      -0.00641228 
N       0.31048511      -1.16531611       1.64803446        7       0.00348816      -0.01143452      -0.00051700 
O       1.33967786      -1.46063730      -1.82777092        8      -0.00892574      -0.00967141       0.01277571 
H      -0.48819960       0.27106635      -1.30701029        1       0.00835002      -0.01401493       0.00541577 
H       1.41330227      -0.08042736       0.26198026        1      -0.02359718       0.01280620      -0.01208239 
H      -2.78878527      -0.17668195      -0.59048237        1      -0.00439654       0.01287321       0.01138989 
H      -1.89878361      -1.69741751      -0.51988873        1      -0.00035497      -0.00793571      -0.01836159 
H      -2.23003168      -0.79304853       0.96230562        1      -0.01815441       0.00468064      -0.00050142 
H      -0.85115996       1.27670735       1.54772963        1      -0.00057336      -0.01705989       0.00512082 
H      -1.60897605       2.00409825       0.12624382        1      -0.00298053      -0.00877790      -0.01103199 
H       0.14770681       2.02526075       0.29851927        1      -0.00274008       0.00254781      -0.00429220 
O       0.57223653      -3.03552184      -0.44046403        8       0.01264422       0.02953545      -0.01378081 
H       1.16947857      -1.52245098       2.04672486        1      -0.00857756       0.01673058       0.00515311 
H      -0.34225455      -1.94147158       1.65181339        1       0.00363950       0.00434085       0.00221254 
H       1.47009243      -2.23531878      -2.38944215        1      -0.01315829      -0.01155840      -0.00310934 
