19
Properties=species:S:1:pos:R:3:Z:I:1:forces:R:3 magmom=0 energy=-10948.362016 dipole="0.3710166 -0.1687234 0.2955179" pbc="F F F"
C      -0.80006565       0.03342664      -0.26308370        6       0.03972221      -0.02707223       0.00200279 
C       0.47369481      -0.74137464       0.07638344        6       0.03358283       0.00179000      -0.01443088 
C      -2.03599825      -0.68336735       0.26885485        6       0.00661715       0.00105986       0.00266855 
C      -0.72018373       1.44898547       0.30586307        6       0.01188847      -0.02420205      -0.01407700 
C       1.68807758      -0.10104905      -0.58248063        6       0.00541958       0.01510220       0.03515115 
N       0.39449569      -2.13830755      -0.35346252        7      -0.00983210       0.02320503       0.01563293 
O       2.80593174      -0.26384379       0.15196150        8      -0.02060436      -0.00962102       0.03364566 
H      -0.85399894       0.09930800      -1.35363611        1      -0.01649101      -0.00675419      -0.00190730 
H       0.62727646      -0.73371593       1.15797408        1      -0.01935681      -0.02032617      -0.00745718 
H      -2.92647808      -0.08778021       0.06941822        1      -0.02254662      -0.00327214      -0.00576873 
H      -2.16359635      -1.66652278      -0.17650464        1       0.01747070       0.00485028      -0.01143329 
H      -1.95844008      -0.81618820       1.35015343        1      -0.00526233      -0.00037420       0.02075770 
H      -0.72764391       1.41434555       1.39777093        1       0.02214198       0.02073621      -0.00208259 
H      -1.57950935       2.03741266      -0.01374547        1      -0.00253146      -0.00055124       0.00735135 
H       0.17956829       1.97065135      -0.02028729        1      -0.00259980       0.00245062      -0.00772442 
O       1.69737780       0.42045392      -1.66236560        8       0.01869727       0.00671274      -0.00962703 
H       1.20084444      -2.66318555      -0.03769750        1      -0.00639696       0.01675136      -0.01604852 
H       0.36513320      -2.19248765      -1.36574360        1      -0.01478642      -0.00349140      -0.00044357 
H       3.54887921       0.09503321      -0.35094501        1      -0.03513222       0.00300629      -0.02620957 
