19
Properties=species:S:1:pos:R:3:Z:I:1:forces:R:3 magmom=0 energy=-10948.4404229 dipole="0.2092397 0.2729077 -0.3993566" pbc="F F F"
C      -0.66829778       0.10569646      -0.25090113        6      -0.00853246       0.01209113       0.01667443 
C       0.54463907      -0.71052091       0.25171906        6      -0.00727221       0.00191912      -0.00301174 
C      -1.95862804      -0.70417390      -0.13578985        6       0.00209267       0.01246152      -0.00469900 
C      -0.77260606       1.42080187       0.51275730        6       0.00033003       0.00935846       0.01536867 
C       0.83021012      -1.81755798      -0.74855817        6       0.02103996       0.01006731       0.00586983 
N       0.33158605      -1.20595739       1.59605015        7      -0.00971486       0.03664516      -0.00741871 
O       1.32688227      -1.33263321      -1.90116333        8       0.01675269      -0.00437262      -0.02353387 
H      -0.48407003       0.32412212      -1.30563684        1      -0.01120903       0.01555579       0.03056193 
H       1.41335533      -0.04798016       0.25163153        1      -0.01169801      -0.00509654      -0.00093825 
H      -2.78907666      -0.15842351      -0.58246683        1       0.00600358       0.00370733      -0.00543536 
H      -1.88221815      -1.67085340      -0.63740508        1      -0.00404095       0.00863880       0.00600980 
H      -2.20704934      -0.87961383       0.91223563        1       0.00317727       0.00747847      -0.01105713 
H      -0.88024662       1.23225473       1.58053485        1      -0.01188395      -0.02702641       0.00104721 
H      -1.63748259       1.99188261       0.17435813        1       0.00263214      -0.00128771       0.00304959 
H       0.11719825       2.03435035       0.36632350        1      -0.00414225      -0.00208079      -0.01662491 
O       0.62482219      -2.98502546      -0.56988493        8       0.00870468      -0.03582761      -0.01043369 
H       1.19321542      -1.57117044       1.97962599        1       0.01650021       0.00588623       0.00702533 
H      -0.31812035      -1.98341542       1.57533896        1       0.00009518      -0.01778458      -0.00870797 
H       1.46117289      -2.07439673      -2.50421600        1      -0.00883472      -0.03033311       0.00625385 
