15
Energy: -573086.0971088  eV PBE+vdW (tier 2 basis)
N    0.182993  0.229915  -0.052612
C    0.049158  -0.024461  1.434129
C    1.440150  -0.489008  1.949133
O    1.533807  -0.501254  3.218072
H    -0.700622  0.131850  -0.574713
H    0.533797  1.185935  -0.227165
H    -0.319665  0.891581  1.911623
C    -0.893854  -1.192878  1.812863
S    -0.193807  -2.926284  1.767518
H    -1.753093  -1.248424  1.123197
H    -1.271703  -1.012955  2.824210
H    -1.003848  -3.405951  2.752479
O    2.132100  -1.084036  1.105089
H    0.901246  -0.425753  -0.425285
Hg    2.123545  -2.707832  3.249148
