15
Energy: -573086.0253358  eV PBE+vdW (tier 2 basis)
N    2.482138  -6.181984  0.501689
C    2.826079  -7.392053  1.252125
C    4.364507  -7.587819  0.980588
O    5.114376  -8.528345  1.385537
H    1.931691  -6.327578  -0.347456
H    2.066046  -5.435896  1.061441
H    2.732900  -7.179457  2.329269
C    1.889553  -8.561817  0.859984
S    1.735043  -10.074099  1.940059
H    2.123569  -8.980620  -0.129962
H    0.850476  -8.195816  0.831704
H    1.454718  -9.454025  3.125453
O    4.882360  -6.638806  0.311064
H    4.039490  -6.021705  0.128033
Hg    4.194052  -10.255978  2.364472
