15
Energy: -573086.4716719  eV PBE+vdW (tier 2 basis)
N    -0.139304  -0.551244  -0.076713
C    -0.088721  -0.055738  1.358989
C    1.422140  0.132351  1.705509
O    2.218793  0.136509  0.768350
H    -0.892774  -0.116004  -0.628078
H    0.790325  -0.303798  -0.490456
H    -0.519338  0.958069  1.354426
C    -0.831811  -0.962050  2.339060
S    -0.588189  -0.431671  4.048109
H    -0.466833  -1.999133  2.303644
H    -1.913419  -0.968144  2.125202
H    -1.134902  0.810100  3.925745
O    1.671103  0.315680  2.968082
H    -0.246276  -1.574773  -0.143297
Hg    3.947207  0.685846  2.878431
