15
Energy: -573086.7711601  eV PBE+vdW (tier 2 basis)
N    -0.099885  0.304495  0.522823
C    -0.257436  -0.757901  1.525790
C    1.108524  -1.001634  2.199923
O    2.171347  -0.937756  1.573580
H    -0.971505  0.517913  0.025156
H    0.267811  1.177463  0.917432
H    -0.978597  -0.466067  2.308127
C    -0.830024  -2.066280  0.898846
S    0.119886  -2.888320  -0.465440
H    -1.811703  -1.862823  0.448131
H    -0.971804  -2.827610  1.677595
H    1.060523  -3.518052  0.296214
O    0.992650  -1.312641  3.463886
H    1.864774  -1.487040  3.889041
Hg    1.569440  -0.772744  -0.802109
