15
Energy: -573086.2893801  eV PBE+vdW (tier 2 basis)
N    1.159279  0.276624  1.127512
C    0.826391  0.153690  2.607654
C    2.163463  0.205184  3.427964
O    2.072221  -0.108829  4.644344
H    0.301534  0.442004  0.576558
H    1.815859  1.059594  0.972991
H    0.290001  1.079073  2.874561
C    -0.008329  -1.084930  2.952580
S    -1.656013  -0.949396  2.195635
H    -0.121343  -1.088866  4.049192
H    0.484551  -2.022806  2.668087
H    -1.589373  -2.059160  1.413929
O    3.178284  0.591353  2.808257
H    1.617304  -0.572111  0.760370
Hg    4.343617  0.355910  5.020723
