15
Energy: -573086.3287985  eV PBE+vdW (tier 2 basis)
N    0.169394  -0.404968  -0.108207
C    0.028465  -0.006805  1.354165
C    1.460431  0.064505  1.999320
O    2.424542  0.005214  1.201163
H    -0.757100  -0.391991  -0.567656
H    0.800227  0.240436  -0.609165
H    -0.348133  1.028340  1.355483
C    -0.903150  -0.940512  2.141287
S    -2.581008  -0.931497  1.457683
H    -0.896681  -0.615121  3.191812
H    -0.556287  -1.983190  2.112632
H    -2.936478  0.302279  1.908161
O    1.500917  0.206006  3.246596
H    0.566099  -1.352005  -0.214508
Hg    3.864488  0.282299  3.204427
