15
Energy: -573086.0439344  eV PBE+vdW (tier 2 basis)
N    -0.124257  -0.125525  -0.169988
C    -0.055640  0.158411  1.316695
C    1.433639  0.095329  1.759715
O    2.110085  -0.819402  1.274381
H    -1.058909  -0.424366  -0.490285
H    0.127793  0.716391  -0.714031
H    -0.512700  1.133801  1.511163
C    -0.729044  -0.998370  2.110164
S    -0.229517  -1.200979  3.884213
H    -0.561325  -1.961449  1.614111
H    -1.811384  -0.798638  2.186990
H    -0.327010  -2.559407  3.886520
O    1.637390  0.813487  2.791730
H    0.573528  -0.860590  -0.399966
Hg    2.563347  -0.913691  3.972586
