15
Energy: -573086.1658624  eV PBE+vdW (tier 2 basis)
 N   -0.40196    0.42120    0.37979
 C    0.23028    0.02228    1.70042
 C    1.77511    0.21852    1.58509
 O    2.51748   -0.47878    2.31964
 H   -0.28370   -0.33834   -0.31696
 H   -1.41326    0.59994    0.48243
 H   -0.10118    0.76542    2.44580
 C   -0.20779   -1.38155    2.14782
 S    0.01114   -2.73306    0.95638
 H   -1.29071   -1.35495    2.35286
 H    0.30997   -1.61637    3.08684
 H    1.27479   -3.07440    1.32073
 O    2.14227    1.12336    0.78747
 H    0.04951    1.27382    0.00692
Hg    4.41006    0.73591    1.53077
