15
Energy: -573086.1971594  eV PBE+vdW (tier 2 basis)
N    0.942673  -0.288901  0.119029
C    0.828002  -0.042580  1.612709
C    2.333561  0.153162  2.054287
O    2.693341  0.323427  3.297180
H    0.762342  -1.263575  -0.161324
H    0.341819  0.326314  -0.446836
H    0.314823  0.924127  1.728926
C    0.023863  -1.182611  2.284492
S    -0.883918  -0.646465  3.817908
H    0.651343  -2.051244  2.519599
H    -0.796472  -1.507526  1.625503
H    -0.945145  -1.876259  4.406061
O    3.166397  0.177384  1.161764
H    1.967659  -0.080913  -0.077238
Hg    1.281073  0.208582  4.906743
