15
Energy: -573086.3958649  eV PBE+vdW (tier 2 basis)
N    0.711289  -1.003493  -0.111528
C    0.268988  -0.541990  1.209292
C    1.518284  -0.390051  2.122064
O    2.456750  -1.190372  2.038826
H    -0.063683  -1.144803  -0.768364
H    1.393964  -0.374227  -0.548377
H    -0.246219  0.431113  1.128161
C    -0.784033  -1.503356  1.849607
S    -0.274318  -3.271634  2.154296
H    -1.695886  -1.526140  1.240514
H    -1.052964  -1.133800  2.848476
H    -1.055815  -3.861014  1.205303
O    1.566419  0.551638  3.024832
H    0.835685  1.203362  2.995902
Hg    1.806305  -3.014847  0.644796
