15
Energy: -573086.4432107  eV PBE+vdW (tier 2 basis)
N    -0.127061  0.325152  0.525981
C    -0.195382  -0.746114  1.530199
C    1.202886  -0.898584  2.184897
O    2.226564  -0.769621  1.505611
H    -1.018922  0.477712  0.042021
H    0.185885  1.221256  0.915948
H    -0.946450  -0.502537  2.301656
C    -0.674270  -2.093924  0.899192
S    0.316001  -2.845480  -0.476584
H    -1.672198  -1.958644  0.458403
H    -0.756700  -2.871578  1.670266
H    1.312027  -3.399005  0.275190
O    1.310746  -1.230714  3.444143
H    0.473212  -1.237302  3.952132
Hg    1.608656  -0.635615  -0.821057
