15
Energy: -573086.2137923  eV PBE+vdW (tier 2 basis)
N    2.623382  -6.155901  0.601710
C    2.929402  -7.476328  1.291842
C    4.470670  -7.674107  0.992177
O    5.151051  -8.704023  1.415442
H    2.000333  -6.238645  -0.214264
H    2.232034  -5.444745  1.234638
H    2.810574  -7.304397  2.371180
C    1.933191  -8.554762  0.794312
S    1.677141  -10.100772  1.774825
H    2.190006  -8.921653  -0.210432
H    0.915516  -8.135058  0.747833
H    1.325699  -9.531670  2.964981
O    5.027609  -6.778027  0.377486
H    3.582388  -5.843366  0.257834
Hg    4.168005  -10.380551  2.307437
