15
Energy: -573086.1190745  eV PBE+vdW (tier 2 basis)
N    -0.418925  -0.032502  -0.130116
C    -0.215234  0.353296  1.322075
C    1.299662  0.352154  1.635800
O    1.600373  1.143310  2.577951
H    -1.383855  -0.333240  -0.340988
H    -0.207793  0.764731  -0.753318
H    -0.677980  1.331007  1.490924
C    -0.796872  -0.755240  2.261625
S    -0.035876  -1.121154  3.891540
H    -0.771171  -1.734739  1.763494
H    -1.841233  -0.508920  2.514624
H    -0.280811  0.079616  4.488760
O    1.944917  -0.607510  1.171153
H    0.241337  -0.795826  -0.373989
Hg    2.738458  -0.583982  3.641465
