31
Energy: -106813.957012 eV PBE+vdW (tier 2 basis)
C    2.85326  -0.65830  2.05852
C    1.65978  -0.94237  2.90752
O    1.78939  -1.28297  4.11967
H    3.45635  0.13087  2.52901
H    2.60990  -0.35939  1.03373
H    3.48489  -1.55862  2.02836
N    0.44081  -0.82553  2.34020
C    -0.88918  -1.14502  2.89999
C    -1.17663  -0.32075  4.17968
O    -0.74869  -0.70597  5.31265
H    0.44210  -0.53881  1.36407
H    -1.59136  -0.80996  2.12822
C    -1.10231  -2.67619  3.10527
C    -2.52461  -3.14293  2.99277
N    -3.02487  -3.77789  1.85747
C    -3.57024  -3.12047  3.88322
C    -4.30218  -4.13282  2.04267
N    -4.64400  -3.73132  3.26928
H    -0.70362  -2.98142  4.08015
H    -0.49642  -3.19702  2.35167
H    -2.50329  -3.99837  1.01055
H    -3.63319  -2.74597  4.89722
H    -4.93634  -4.65519  1.33283
H    -5.56330  -3.88038  3.68609
N    -1.88352  0.79428  4.06777
C    -2.43458  1.43218  2.86079
H    -2.04629  1.28275  4.94992
H    -3.21709  0.81349  2.40436
H    -1.64534  1.65297  2.13272
H    -2.88880  2.38021  3.16279
Sr    1.29938  -1.16710  6.33982
