31
Energy: -106814.342643 eV PBE+vdW (tier 2 basis)
C    0.57770  1.15442  0.52670
C    0.26857  0.16924  1.60663
O    1.19811  -0.39152  2.25636
H    1.27749  0.69634  -0.18618
H    1.10064  2.01721  0.96457
H    -0.30418  1.51745  -0.01149
N    -1.03201  -0.09309  1.85930
C    -1.63362  -1.03607  2.82334
C    -1.24360  -0.73383  4.29323
O    -0.08307  -0.98723  4.73466
H    -1.69527  0.44171  1.30424
H    -2.71302  -0.85618  2.73580
C    -1.37174  -2.53409  2.47050
C    -2.13347  -3.05200  1.28655
N    -3.34520  -3.73327  1.39360
C    -1.84358  -3.04089  -0.05581
C    -3.77131  -4.12370  0.18583
N    -2.86744  -3.70210  -0.70151
H    -1.62014  -3.14421  3.35126
H    -0.30036  -2.68324  2.28905
H    -3.83396  -3.96592  2.25635
H    -0.99171  -2.64751  -0.59607
H    -4.67548  -4.68514  -0.02903
H    -2.92799  -3.86981  -1.70623
N    -2.19552  -0.23857  5.06878
C    -2.04836  0.07703  6.49479
H    -3.09910  -0.02857  4.65039
H    -1.77607  1.13299  6.62338
H    -1.27935  -0.56285  6.93492
H    -3.00609  -0.10433  6.99294
Sr    2.17711  -0.86928  4.27813
