31
Energy: -106813.165435 eV PBE+vdW (tier 2 basis)
C    0.04523  0.37197  0.04161
C    0.09846  0.45189  1.52660
O    1.24382  0.65292  2.10380
H    -0.95495  0.19116  -0.36235
H    0.69941  -0.44692  -0.29259
H    0.44950  1.30280  -0.38161
N    -0.97168  0.31963  2.30395
C    -2.41244  0.12197  1.96620
C    -2.65087  -1.09950  1.02140
O    -2.90654  -0.90257  -0.17412
H    -0.77519  0.40023  3.30187
H    -2.88245  -0.09304  2.93582
C    -3.03107  1.42464  1.39501
C    -4.51200  1.39845  1.16651
N    -5.11511  0.69377  0.13261
C    -5.52312  2.09245  1.78372
C    -6.42757  0.93396  0.11250
N    -6.68759  1.78525  1.11246
H    -2.53618  1.67216  0.44528
H    -2.81724  2.24329  2.09425
H    -4.58975  0.04810  -0.47025
H    -5.50745  2.78469  2.61653
H    -7.15028  0.51860  -0.58134
H    -7.61225  2.15425  1.32972
N    -2.56279  -2.30807  1.59415
C    -2.77675  -3.56497  0.87057
H    -2.43179  -2.36802  2.59989
H    -2.72098  -3.36809  -0.20315
H    -3.76243  -3.98267  1.11217
H    -2.00504  -4.28793  1.15640
Sr    3.37558  0.99017  2.59124
