31
Energy: -106813.380294 eV PBE+vdW (tier 2 basis)
C    -2.02508  4.35367  0.98083
C    -1.20798  3.15446  1.30439
O    -0.08505  3.25625  1.87467
H    -2.98809  4.13050  0.51240
H    -1.43413  4.95223  0.26588
H    -2.16340  4.99517  1.86100
N    -1.63469  1.90089  0.94077
C    -2.93786  1.39325  1.35742
C    -2.78374  0.88817  2.83576
O    -1.71499  1.14710  3.47271
H    -0.88901  1.21206  1.05177
H    -3.61854  2.25581  1.43365
C    -3.59483  0.45338  0.30229
C    -2.78906  -0.65793  -0.30603
N    -2.99707  -2.01129  -0.04563
C    -1.86177  -0.62525  -1.32065
C    -2.24717  -2.76646  -0.85889
N    -1.54669  -1.93129  -1.62992
H    -3.90911  1.10881  -0.52196
H    -4.53435  0.04432  0.70061
H    -3.67008  -2.40365  0.60937
H    -1.44490  0.21002  -1.87046
H    -2.22261  -3.85128  -0.89185
H    -0.90488  -2.22995  -2.36495
N    -3.80289  0.26838  3.40507
C    -3.84930  -0.15848  4.81234
H    -4.66491  0.17122  2.87388
H    -2.90897  -0.64700  5.08536
H    -4.67383  -0.86672  4.93250
H    -4.02439  0.70436  5.46790
Sr    0.25338  2.35125  3.99577
