31
Energy: -106813.750629 eV PBE+vdW (tier 2 basis)
C    -2.04218  3.63490  0.73385
C    -1.09945  2.70347  1.41389
O    -0.14702  3.13852  2.11848
H    -1.43642  4.32284  0.12251
H    -2.56406  4.26964  1.46403
H    -2.77360  3.14186  0.08724
N    -1.22797  1.34762  1.26005
C    -2.49586  0.66165  1.50738
C    -2.82836  0.82239  3.03946
O    -1.97414  1.36147  3.80926
H    -0.42387  0.84835  1.64590
H    -3.29177  1.17088  0.94315
C    -2.42480  -0.82092  1.07833
C    -2.32922  -1.07410  -0.40103
N    -2.53258  -2.34891  -0.92404
C    -2.04825  -0.27843  -1.48253
C    -2.38775  -2.33730  -2.25465
N    -2.09537  -1.08373  -2.60378
H    -3.31969  -1.33671  1.45729
H    -1.57462  -1.30555  1.58883
H    -2.75927  -3.18978  -0.39510
H    -1.80882  0.77380  -1.55250
H    -2.49230  -3.18786  -2.92121
H    -1.93201  -0.77858  -3.56319
N    -4.00646  0.40899  3.46742
C    -4.48378  0.48049  4.85659
H    -4.66943  0.05048  2.78290
H    -5.22093  -0.31318  5.01123
H    -4.96012  1.45117  5.04621
H    -3.64530  0.33428  5.54281
Sr    -0.20162  2.78726  4.42923
