31
Energy: -106813.914805 eV PBE+vdW (tier 2 basis)
C    -3.22402  -1.60819  -1.27943
C    -2.60161  -1.10583  -0.02328
O    -1.60154  -0.32833  -0.04178
H    -2.46136  -2.10561  -1.89467
H    -3.58360  -0.74656  -1.86210
H    -4.05885  -2.29680  -1.11253
N    -3.12804  -1.48759  1.15977
C    -2.69677  -0.95016  2.46000
C    -1.24698  -1.40846  2.77895
O    -0.31910  -0.55995  2.59443
H    -3.94286  -2.09707  1.13059
H    -2.59844  0.13880  2.34485
C    -3.80703  -1.21220  3.51898
C    -3.75911  -0.39193  4.77496
N    -3.24666  -0.83601  5.99237
C    -4.29700  0.84422  5.03907
C    -3.46295  0.07438  6.95111
N    -4.09401  1.10148  6.37731
H    -3.87128  -2.27588  3.78093
H    -4.76073  -0.96995  3.02651
H    -2.82059  -1.74117  6.17602
H    -4.83212  1.53594  4.39909
H    -3.18698  -0.01208  7.99743
H    -4.40505  1.93611  6.87552
N    -0.95111  -2.63591  3.19112
C    -1.78933  -3.83507  3.32107
H    0.04507  -2.77525  3.37179
H    -2.16003  -3.96074  4.34662
H    -1.17024  -4.70661  3.08216
H    -2.62396  -3.81709  2.61548
Sr    0.38128  0.57451  0.66267
