31
Energy: -106813.719015 eV PBE+vdW (tier 2 basis)
C    -1.94323  3.45620  0.45358
C    -1.00256  2.57635  1.20110
O    -0.03178  3.05736  1.84981
H    -2.51136  4.09841  1.14258
H    -2.63401  2.91392  -0.19803
H    -1.33713  4.13957  -0.16066
N    -1.15388  1.21493  1.17662
C    -2.42276  0.57516  1.50905
C    -2.63447  0.74768  3.06191
O    -1.76776  1.38155  3.74075
H    -0.35338  0.74597  1.60565
H    -3.23290  1.12805  1.01057
C    -2.43599  -0.91133  1.04622
C    -2.39239  -1.13639  -0.43694
N    -3.52362  -1.33720  -1.22619
C    -1.32649  -1.27392  -1.29119
C    -3.17067  -1.59010  -2.49298
N    -1.83705  -1.54759  -2.54185
H    -3.32198  -1.41741  1.45476
H    -1.57890  -1.43260  1.49790
H    -4.49083  -1.35300  -0.90878
H    -0.25998  -1.22683  -1.10983
H    -3.84196  -1.80028  -3.31986
H    -1.28722  -1.71895  -3.38419
N    -3.72417  0.25018  3.61580
C    -4.06335  0.35087  5.04407
H    -4.40878  -0.20754  3.01956
H    -3.19805  0.07154  5.65381
H    -4.88677  -0.33777  5.25173
H    -4.38050  1.37208  5.29045
Sr    -0.00610  2.88409  4.18057
