31
Energy: -106813.955914 eV PBE+vdW (tier 2 basis)
C    0.75521  0.16186  -0.21483
C    0.37754  0.37342  1.21044
O    1.17477  0.90970  2.03445
H    0.94034  1.14426  -0.67589
H    -0.00595  -0.36508  -0.79968
H    1.70225  -0.39229  -0.26755
N    -0.85158  -0.01163  1.61578
C    -1.41842  0.25865  2.94717
C    -0.69377  -0.60586  4.01918
O    0.25250  -0.04167  4.65677
H    -1.45142  -0.44300  0.91578
H    -1.13205  1.28526  3.21864
C    -2.95812  0.21038  2.82771
C    -3.76131  0.55823  4.04711
N    -5.14115  0.72608  3.95268
C    -3.45948  0.77957  5.36687
C    -5.65904  1.03413  5.14717
N    -4.64632  1.06916  6.01417
H    -3.28745  -0.77159  2.45621
H    -3.21631  0.93488  2.03753
H    -5.70165  0.64156  3.10536
H    -2.51861  0.76227  5.90092
H    -6.70600  1.22130  5.36630
H    -4.74880  1.28229  7.00618
N    -0.98920  -1.87509  4.25718
C    -1.96305  -2.76914  3.61746
H    -0.41549  -2.29748  4.98959
H    -2.97044  -2.61770  4.02506
H    -1.66221  -3.79890  3.83329
H    -1.96202  -2.64477  2.52976
Sr    2.21425  1.10520  4.06019
