31
Energy: -106814.491580 eV PBE+vdW (tier 2 basis)
C    -1.43324  -2.68241  1.48123
C    -1.24096  -1.37804  2.18052
O    -0.30500  -0.59105  1.85703
H    -0.53071  -3.29843  1.60127
H    -1.53921  -2.49408  0.40308
H    -2.29934  -3.25139  1.83517
N    -2.10299  -1.05245  3.16886
C    -2.11121  0.21080  3.92570
C    -0.91093  0.25420  4.92035
O    0.22374  0.58501  4.46404
H    -2.79620  -1.75498  3.41722
H    -1.89681  1.02257  3.21423
C    -3.48543  0.46070  4.57805
C    -4.62831  0.75157  3.64363
N    -5.90136  1.02314  4.13949
C    -4.74069  0.85275  2.28045
C    -6.74927  1.28073  3.13658
N    -6.05432  1.17962  2.00268
H    -3.37704  1.32162  5.25703
H    -3.76836  -0.39942  5.21107
H    -6.17672  1.04068  5.12068
H    -4.01311  0.72561  1.49006
H    -7.80297  1.52555  3.23095
H    -6.44870  1.32617  1.07351
N    -1.08585  -0.05939  6.19186
C    -0.02466  -0.05938  7.20965
H    -2.01039  -0.34229  6.50529
H    0.48342  -1.03233  7.22954
H    -0.48064  0.12572  8.18671
H    0.69716  0.73107  6.98663
Sr    1.56409  0.55315  2.57541
