31
Energy: -106813.822653 eV PBE+vdW (tier 2 basis)
C    -2.14585  0.73423  -0.68081
C    -1.50373  0.00417  0.44675
O    -0.35150  -0.50701  0.33593
H    -3.16402  1.07288  -0.46267
H    -2.15895  0.09519  -1.57428
H    -1.52594  1.60886  -0.93041
N    -2.16867  -0.10306  1.62134
C    -1.55327  -0.70504  2.80507
C    -1.38568  -2.24169  2.62701
O    -0.20710  -2.64739  2.37849
H    -3.10121  0.29721  1.67484
H    -0.50479  -0.37810  2.78307
C    -2.03955  -0.12192  4.16767
C    -3.46758  -0.12842  4.63036
N    -3.94877  -0.97690  5.62591
C    -4.50027  0.74258  4.37244
C    -5.20338  -0.64705  5.95924
N    -5.55036  0.39006  5.19373
H    -1.71804  0.93002  4.15671
H    -1.41830  -0.59663  4.94136
H    -3.41793  -1.70243  6.10465
H    -4.55746  1.60710  3.72129
H    -5.81678  -1.12318  6.71838
H    -6.45096  0.86800  5.24641
N    -2.38613  -3.11059  2.67058
C    -3.82956  -2.90175  2.76420
H    -2.09184  -4.07995  2.52975
H    -4.31530  -3.36559  1.89652
H    -4.07132  -1.83718  2.77102
H    -4.22299  -3.37735  3.67096
Sr    1.33121  -2.04607  0.71547
