31
Energy: -106813.853408 eV PBE+vdW (tier 2 basis)
C    -2.09185  0.81639  -0.51274
C    -1.45160  0.12236  0.63839
O    -0.26746  -0.31878  0.57173
H    -2.04933  0.17108  -1.40105
H    -1.50473  1.71615  -0.75127
H    -3.13065  1.10916  -0.32820
N    -2.15440  -0.02995  1.78581
C    -1.55126  -0.59914  2.99191
C    -1.28934  -2.12376  2.82049
O    -0.08163  -2.45980  2.61100
H    -3.11025  0.31464  1.80392
H    -0.52287  -0.21337  3.00957
C    -2.12166  -0.04772  4.33486
C    -3.56545  -0.13065  4.73803
N    -4.03832  -0.99736  5.72172
C    -4.63483  0.67724  4.42877
C    -5.32272  -0.73808  5.99972
N    -5.69641  0.27107  5.20958
H    -1.85507  1.01955  4.33935
H    -1.50892  -0.49291  5.13247
H    -3.48710  -1.68825  6.22796
H    -4.71411  1.53200  3.76709
H    -5.93855  -1.24255  6.73832
H    -6.62431  0.69681  5.22027
N    -2.23802  -3.05004  2.83314
C    -3.69350  -2.92667  2.88057
H    -1.88253  -4.00051  2.70471
H    -3.99787  -1.87835  2.86647
H    -4.08650  -3.41555  3.78051
H    -4.12350  -3.42754  2.00416
Sr    1.48274  -1.76348  1.01074
