31
Energy: -106813.230658 eV PBE+vdW (tier 2 basis)
C    0.07270  -0.84008  -0.10236
C    0.03055  -0.52693  1.35490
O    1.07640  -0.77490  2.08253
H    0.77683  -0.15737  -0.60151
H    -0.89687  -0.75834  -0.59993
H    0.45205  -1.86053  -0.24423
N    -1.03098  0.00333  1.93597
C    -2.31833  0.44925  1.36410
C    -2.69508  1.69149  2.20960
O    -2.78131  1.52120  3.43451
H    -0.98788  0.17730  2.94801
H    -2.18418  0.68878  0.30327
C    -3.39112  -0.67064  1.56027
C    -4.82112  -0.22847  1.56646
N    -5.40040  0.44474  2.63830
C    -5.84212  -0.45937  0.67949
C    -6.70710  0.62148  2.42214
N    -6.98643  0.07488  1.23385
H    -3.18506  -1.16727  2.51957
H    -3.26442  -1.43035  0.77868
H    -4.87793  0.78821  3.44924
H    -5.85244  -0.97287  -0.27419
H    -7.41130  1.11162  3.08580
H    -7.91585  0.04734  0.81635
N    -2.92631  2.83440  1.55306
C    -3.30237  4.08796  2.21273
H    -2.80995  2.85242  0.54391
H    -3.32427  3.92221  3.29304
H    -4.28895  4.41761  1.86540
H    -2.56707  4.86658  1.97829
Sr    3.02351  -1.27162  2.99055
