31
Energy: -106813.143736 eV PBE+vdW (tier 2 basis)
C    0.18461  -0.74398  -0.20273
C    0.05545  -0.42805  1.24865
O    1.11336  -0.47375  1.99976
H    0.77009  0.04627  -0.69629
H    -0.77338  -0.83697  -0.72037
H    0.73944  -1.68363  -0.32337
N    -1.09566  -0.09386  1.80219
C    -2.42763  0.10923  1.20213
C    -3.04262  1.23932  2.06481
O    -3.00073  1.06969  3.29339
H    -1.11446  0.10438  2.81248
H    -2.31919  0.38574  0.14942
C    -3.28454  -1.19182  1.36188
C    -4.77023  -1.01561  1.41657
N    -5.43453  -0.50640  2.52943
C    -5.75565  -1.39173  0.53900
C    -6.75702  -0.56300  2.34544
N    -6.96323  -1.10043  1.13850
H    -2.96839  -1.68607  2.29202
H    -3.04681  -1.88203  0.54289
H    -4.96982  -0.10993  3.35021
H    -5.69785  -1.86036  -0.43595
H    -7.52090  -0.23774  3.04361
H    -7.88307  -1.28224  0.73854
N    -3.61685  2.28751  1.46174
C    -3.69368  2.59602  0.02990
H    -3.98547  2.98324  2.11006
H    -4.14287  1.77133  -0.53706
H    -2.70933  2.84588  -0.38720
H    -4.33882  3.47065  -0.09323
Sr    3.08841  -0.57754  2.97158
