31
Energy: -106813.677140 eV PBE+vdW (tier 2 basis)
C    -1.44503  3.32733  0.35278
C    -0.67280  2.38551  1.20913
O    0.30324  2.78300  1.90408
H    -0.71989  3.85050  -0.29055
H    -1.92465  4.10960  0.95824
H    -2.18889  2.84030  -0.28372
N    -0.98441  1.05043  1.23184
C    -2.33842  0.58187  1.51389
C    -2.60413  0.82058  3.04951
O    -1.71247  1.39256  3.75123
H    -0.27182  0.51608  1.73318
H    -3.04620  1.22492  0.97010
C    -2.53564  -0.89242  1.06778
C    -2.54502  -1.12239  -0.41850
N    -1.61115  -1.91693  -1.07623
C    -3.44364  -0.74324  -1.38626
C    -1.91911  -2.02559  -2.37482
N    -3.02812  -1.30923  -2.57225
H    -3.48428  -1.27249  1.47261
H    -1.75897  -1.51833  1.53217
H    -0.82237  -2.39907  -0.64976
H    -4.34781  -0.14921  -1.32907
H    -1.37370  -2.59298  -3.12235
H    -3.50265  -1.22031  -3.47117
N    -3.76243  0.44821  3.55993
C    -4.16348  0.62734  4.96424
H    -4.45807  0.03883  2.94106
H    -5.01890  -0.02403  5.16355
H    -4.45626  1.66888  5.14832
H    -3.33697  0.34935  5.62551
Sr    0.16703  2.72490  4.23754
