31
Energy: -106813.956699 eV PBE+vdW (tier 2 basis)
C    2.73872  -0.39209  2.06821
C    1.55300  -0.72967  2.90851
O    1.68590  -1.03326  4.13007
H    3.29489  0.43314  2.53419
H    2.49089  -0.12016  1.03696
H    3.41684  -1.25864  2.05590
N    0.33772  -0.70397  2.32205
C    -0.97697  -1.09999  2.86905
C    -1.34513  -0.26171  4.11858
O    -0.90292  -0.57704  5.26749
H    0.33536  -0.43775  1.34017
H    -1.68586  -0.83755  2.07572
C    -1.08659  -2.63600  3.11669
C    -2.46880  -3.20644  2.98487
N    -2.89845  -3.89489  1.85174
C    -3.53137  -3.24521  3.85444
C    -4.15026  -4.33848  2.01874
N    -4.54534  -3.94257  3.23107
H    -0.69311  -2.88358  4.10983
H    -0.42601  -3.13426  2.39435
H    -2.34496  -4.09162  1.01933
H    -3.64220  -2.85976  4.86024
H    -4.73030  -4.91725  1.30637
H    -5.45966  -4.15154  3.63285
N    -2.13574  0.79019  3.96412
C    -2.71894  1.34582  2.73175
H    -2.34642  1.29214  4.82839
H    -3.25970  2.25766  3.00079
H    -3.43603  0.64926  2.28021
H    -1.93905  1.61627  2.01028
Sr    1.15247  -0.87503  6.33802
