31
Energy: -106812.799115 eV PBE+vdW (tier 2 basis)
C    0.29925  -0.61487  1.54519
C    -0.22458  -0.15374  2.86422
O    0.61941  0.11049  3.81401
H    0.84359  0.20974  1.06039
H    -0.47384  -0.96577  0.85722
H    1.01808  -1.42948  1.70453
N    -1.51543  0.00112  3.09643
C    -2.64004  -0.02139  2.14181
C    -3.62300  1.04198  2.70195
O    -3.71834  1.12048  3.94599
H    -1.82309  0.35451  4.01548
H    -2.27105  0.27140  1.15256
C    -3.34082  -1.39670  1.97564
C    -4.01263  -2.06997  3.14511
N    -4.63118  -1.43971  4.21754
C    -4.29440  -3.40769  3.28688
C    -5.26093  -2.33911  4.98018
N    -5.06576  -3.53826  4.42108
H    -2.61799  -2.11079  1.55742
H    -4.09572  -1.25195  1.18541
H    -4.54529  -0.42492  4.40586
H    -4.03712  -4.25794  2.66676
H    -5.82184  -2.13570  5.88563
H    -5.44781  -4.41228  4.77962
N    -4.33920  1.77622  1.85384
C    -4.29200  1.79854  0.38654
H    -4.98861  2.41810  2.30990
H    -4.61490  0.84354  -0.04650
H    -3.29135  2.06075  0.02069
H    -4.98443  2.57074  0.04005
Sr    2.36143  0.64186  5.06060
