31
Energy: -106813.547128 eV PBE+vdW (tier 2 basis)
C    -1.41648  3.32371  0.36807
C    -0.78656  2.38934  1.34109
O    0.09958  2.78217  2.14864
H    -2.05344  2.83016  -0.37126
H    -0.60414  3.85043  -0.15620
H    -1.98968  4.10455  0.88910
N    -1.13669  1.06150  1.35734
C    -2.53232  0.64148  1.47636
C    -2.98046  0.93664  2.95768
O    -2.16473  1.49942  3.75368
H    -0.52055  0.53291  1.97892
H    -3.14459  1.28334  0.82573
C    -2.71851  -0.84143  1.04787
C    -2.61708  -1.11525  -0.42444
N    -1.43968  -1.45061  -1.08799
C    -3.60360  -1.18723  -1.37757
C    -1.68957  -1.71916  -2.37619
N    -3.00170  -1.55470  -2.56122
H    -3.70789  -1.19241  1.36924
H    -2.00243  -1.47329  1.59613
H    -0.51491  -1.53380  -0.67247
H    -4.67417  -1.03510  -1.30630
H    -0.96441  -2.02175  -3.12500
H    -3.48165  -1.70694  -3.44893
N    -4.20716  0.62076  3.32632
C    -4.77276  0.85844  4.66360
H    -4.83460  0.21632  2.63559
H    -4.06532  0.52960  5.43152
H    -5.69630  0.28029  4.75430
H    -5.00265  1.92304  4.79757
Sr    -0.32854  2.79356  4.45086
