31
Energy: -106813.616217 eV PBE+vdW (tier 2 basis)
C    -1.39813  3.33277  0.41323
C    -0.70565  2.37373  1.31650
O    0.21794  2.75016  2.08895
H    -2.13127  2.86890  -0.25221
H    -0.62229  3.81577  -0.20254
H    -1.86957  4.14383  0.98544
N    -1.03117  1.03898  1.29689
C    -2.40828  0.58276  1.48464
C    -2.76925  0.80746  3.00145
O    -1.91392  1.34676  3.77152
H    -0.36871  0.49859  1.85772
H    -3.07357  1.23462  0.89962
C    -2.58882  -0.88658  1.00943
C    -2.58160  -1.10247  -0.47578
N    -1.44162  -1.35136  -1.23619
C    -3.63202  -1.19592  -1.35581
C    -1.77382  -1.59036  -2.51153
N    -3.10289  -1.49125  -2.59326
H    -3.54609  -1.27465  1.38135
H    -1.82322  -1.52056  1.48351
H    -0.48487  -1.39624  -0.89388
H    -4.70054  -1.10403  -1.20001
H    -1.09265  -1.82824  -3.32262
H    -3.63975  -1.63969  -3.44836
N    -3.96782  0.45940  3.42902
C    -4.45111  0.63221  4.80815
H    -4.63124  0.07493  2.76099
H    -5.39371  0.08844  4.91290
H    -4.62564  1.69420  5.02143
H    -3.72030  0.22451  5.51442
Sr    -0.06342  2.64835  4.41205
