31
Energy: -106813.481758 eV PBE+vdW (tier 2 basis)
C    0.25257  -0.69340  0.18758
C    0.17679  0.00416  1.49896
O    1.22308  0.32882  2.12857
H    0.75962  -1.65592  0.37176
H    0.89353  -0.14820  -0.51754
H    -0.71888  -0.90608  -0.26680
N    -1.03226  0.26839  2.08448
C    -2.11207  0.96914  1.39611
C    -1.63527  2.44783  1.17636
O    -0.53596  2.83549  1.67730
H    -0.92242  0.55835  3.05832
H    -2.25473  0.51076  0.40701
C    -3.41950  0.82793  2.24689
C    -4.74526  0.95254  1.55995
N    -5.35448  -0.09218  0.86345
C    -5.67754  1.96188  1.58299
C    -6.59089  0.25615  0.48654
N    -6.79381  1.50479  0.91353
H    -3.40201  1.55236  3.07291
H    -3.37123  -0.16707  2.71469
H    -4.96822  -1.02165  0.70724
H    -5.65426  2.93679  2.05560
H    -7.29762  -0.36325  -0.05774
H    -7.66390  2.02228  0.78333
N    -2.39774  3.25167  0.45508
C    -2.08051  4.65455  0.14645
H    -3.24022  2.86389  0.03807
H    -2.96792  5.12367  -0.28661
H    -1.26027  4.71028  -0.58024
H    -1.80090  5.18686  1.06148
Sr    1.68028  2.58119  2.49528
