31
Energy: -106813.854266 eV PBE+vdW (tier 2 basis)
C    -1.53630  0.51105  -0.48384
C    -1.07261  0.60007  0.93240
O    0.10702  0.95327  1.21078
H    -0.84374  -0.10861  -1.06813
H    -1.49542  1.52071  -0.92118
H    -2.55302  0.11955  -0.59422
N    -1.96106  0.30179  1.90869
C    -1.80982  0.56412  3.34630
C    -0.95951  -0.54025  4.05004
O    0.19583  -0.72700  3.55305
H    -2.88769  0.02793  1.59220
H    -1.12891  1.42822  3.42704
C    -3.14704  1.08126  3.93252
C    -4.42620  0.33948  3.65379
N    -5.65316  0.98420  3.79939
C    -4.74005  -0.94793  3.28630
C    -6.66177  0.14287  3.54441
N    -6.11879  -1.03361  3.22735
H    -3.26845  2.10030  3.53313
H    -3.03055  1.21460  5.01857
H    -5.79041  1.95732  4.07276
H    -4.11425  -1.80743  3.07814
H    -7.72187  0.37639  3.58542
H    -6.65517  -1.86683  2.98364
N    -1.29248  -1.22155  5.13828
C    -2.44606  -1.20512  6.04639
H    -0.52755  -1.82647  5.44677
H    -3.39047  -1.12336  5.50598
H    -2.35127  -0.39375  6.78000
H    -2.44987  -2.15548  6.58927
Sr    1.95363  0.07625  2.26078
