31
Energy: -106814.276757 eV PBE+vdW (tier 2 basis)
C    -0.09565  1.71931  0.97253
C    -0.22858  1.18508  2.35830
O    0.63659  1.43183  3.24765
H    -0.93581  1.46424  0.31811
H    0.83303  1.33852  0.52350
H    0.00834  2.81282  1.02027
N    -1.30854  0.42693  2.65551
C    -1.59125  -0.12086  3.99074
C    -0.55164  -1.22195  4.36607
O    0.44291  -0.84727  5.06406
H    -1.95366  0.21702  1.89703
H    -1.37222  0.67480  4.71745
C    -3.06915  -0.53077  4.15780
C    -4.05228  0.59741  4.30939
N    -5.34523  0.35914  4.76849
C    -4.00256  1.94361  4.04947
C    -6.05153  1.49581  4.79207
N    -5.24444  2.46518  4.35830
H    -3.13248  -1.16630  5.05501
H    -3.39302  -1.16741  3.32041
H    -5.72696  -0.54144  5.05516
H    -3.20689  2.57020  3.66921
H    -7.08449  1.60592  5.10811
H    -5.51947  3.44334  4.26926
N    -0.64595  -2.48438  3.97725
C    -1.61542  -3.16327  3.10848
H    0.10246  -3.07657  4.34382
H    -2.47905  -3.52358  3.68147
H    -1.11613  -4.03101  2.66560
H    -1.93785  -2.51368  2.28895
Sr    2.06491  0.80534  4.95552
