31
Energy: -106813.887855 eV PBE+vdW (tier 2 basis)
C    0.17632  -0.24428  0.11196
C    -0.13879  0.48048  1.37793
O    0.40114  1.59136  1.64657
H    -0.17470  0.37181  -0.73073
H    -0.28703  -1.23397  0.04146
H    1.26304  -0.34276  -0.00660
N    -1.03031  -0.07859  2.22544
C    -1.67577  0.56589  3.37379
C    -0.75778  0.61830  4.62757
O    0.41370  1.07329  4.50337
H    -1.41564  -0.97556  1.93860
H    -1.79552  1.63255  3.11585
C    -3.12087  0.01315  3.53657
C    -3.37998  -1.46417  3.43298
N    -2.93660  -2.46243  4.30432
C    -4.22567  -2.10342  2.55773
C    -3.48685  -3.64176  3.98059
N    -4.26988  -3.43153  2.92105
H    -3.72074  0.47238  2.73898
H    -3.56918  0.41253  4.46019
H    -2.29250  -2.35337  5.08351
H    -4.81742  -1.71252  1.73727
H    -3.32343  -4.58950  4.48479
H    -4.82988  -4.15369  2.46509
N    -1.23258  0.26370  5.81677
C    -0.48282  0.40598  7.07644
H    -2.22401  0.05965  5.90011
H    -0.45319  1.45831  7.38757
H    0.53688  0.03214  6.94444
H    -0.98902  -0.17821  7.85021
Sr    1.78360  2.49399  3.23331
