31
Energy: -106813.512432 eV PBE+vdW (tier 2 basis)
C    -1.05777  2.08932  -0.70638
C    -0.38668  1.45595  0.46105
O    0.87014  1.33252  0.50613
H    -0.67454  3.10242  -0.88762
H    -2.14962  2.09864  -0.64597
H    -0.77249  1.49729  -1.59214
N    -1.12079  0.94137  1.49507
C    -2.13619  1.71550  2.20020
C    -1.36854  2.70042  3.15699
O    -0.11053  2.81972  3.04934
H    -0.55303  0.35530  2.11021
H    -2.65443  2.33519  1.45331
C    -3.14437  0.75223  2.88571
C    -4.53967  1.25746  3.12600
N    -5.41562  0.56392  3.95849
C    -5.28733  2.27606  2.58482
C    -6.63357  1.11841  3.92573
N    -6.56528  2.16248  3.09885
H    -2.72219  0.38585  3.83464
H    -3.22082  -0.12602  2.22481
H    -5.19404  -0.26896  4.50317
H    -5.04132  3.04670  1.86475
H    -7.50929  0.78253  4.47335
H    -7.35262  2.77229  2.87621
N    -2.06153  3.39765  4.03976
C    -1.47898  4.37636  4.97153
H    -3.06955  3.26552  4.07157
H    -1.02550  5.20620  4.41664
H    -0.72207  3.89563  5.60157
H    -2.27816  4.76633  5.60704
Sr    2.05935  2.47372  2.14720
