31
Energy: -106813.979013 eV PBE+vdW (tier 2 basis)
C    2.10234  -1.16689  1.72466
C    1.10777  -1.18667  2.83998
O    1.47347  -1.40478  4.03031
H    2.68661  -2.09746  1.74779
H    2.81716  -0.34824  1.89431
H    1.65766  -1.04094  0.73183
N    -0.18913  -0.96587  2.52517
C    -1.37682  -0.93819  3.40340
C    -1.26647  0.12965  4.51786
O    -0.53211  -0.06459  5.53622
H    -0.36485  -0.74976  1.54704
H    -2.19530  -0.63201  2.74288
C    -1.75985  -2.32903  4.00311
C    -2.54796  -3.22535  3.09449
N    -2.00134  -4.13068  2.18675
C    -3.90801  -3.39339  2.99725
C    -2.97264  -4.81930  1.57079
N    -4.13352  -4.37227  2.05405
H    -2.37841  -2.15630  4.89454
H    -0.85730  -2.84603  4.35518
H    -1.01245  -4.30754  2.02924
H    -4.72158  -2.91902  3.53342
H    -2.83967  -5.59805  0.82635
H    -5.04860  -4.72643  1.77281
N    -1.98120  1.23907  4.41045
C    -2.87910  1.68337  3.33190
H    -1.89462  1.87003  5.20974
H    -2.38695  1.62586  2.35464
H    -3.12901  2.73195  3.51835
H    -3.81304  1.10749  3.33089
Sr    1.55393  -0.74562  6.23759
