31
Energy: -106814.329839 eV PBE+vdW (tier 2 basis)
C    0.60214  1.32670  0.32306
C    0.30761  0.40463  1.46178
O    1.23787  -0.03103  2.20023
H    1.37260  0.87372  -0.31649
H    1.03476  2.25835  0.71642
H    -0.27321  1.57886  -0.28477
N    -0.98229  0.05758  1.66732
C    -1.56629  -0.83341  2.69141
C    -1.29225  -0.35360  4.13982
O    -0.14130  -0.45036  4.66232
H    -1.65319  0.50772  1.04941
H    -2.64874  -0.75523  2.52894
C    -1.18223  -2.33833  2.51724
C    -1.97582  -3.08964  1.48905
N    -1.61286  -3.24536  0.15271
C    -3.13945  -3.80603  1.63292
C    -2.50175  -4.01890  -0.48635
N    -3.43512  -4.35759  0.40545
H    -1.34634  -2.84231  3.47980
H    -0.10857  -2.42728  2.30546
H    -0.77338  -2.88286  -0.29217
H    -3.75952  -3.98517  2.50344
H    -2.46460  -4.31944  -1.52875
H    -4.23617  -4.95631  0.20119
N    -2.33031  0.11952  4.81114
C    -2.30427  0.58354  6.20330
H    -3.22304  0.19345  4.32805
H    -1.47022  0.11436  6.73068
H    -3.24742  0.30259  6.68345
H    -2.20153  1.67626  6.23499
Sr    2.12490  -0.21543  4.31595
