31
Energy: -106813.754168 eV PBE+vdW (tier 2 basis)
C    -1.36180  -0.67891  -0.49098
C    -1.05031  -0.19463  0.88257
O    0.11955  0.15396  1.21298
H    -0.68544  -1.50293  -0.75549
H    -1.15707  0.13517  -1.20317
H    -2.39892  -1.00661  -0.61749
N    -2.05339  -0.11520  1.78942
C    -1.85817  0.45440  3.12294
C    -1.01391  -0.49920  4.01925
O    0.21197  -0.19099  4.15226
H    -2.97099  -0.44735  1.50595
H    -1.14886  1.28075  2.98149
C    -3.10220  1.19287  3.71050
C    -4.47408  0.58825  3.80310
N    -5.08736  0.25938  5.01065
C    -5.45153  0.42206  2.84936
C    -6.36497  -0.08920  4.81071
N    -6.59131  -0.00449  3.49800
H    -3.20592  2.10160  3.09965
H    -2.80627  1.55522  4.70571
H    -4.66989  0.33721  5.93642
H    -5.45081  0.62543  1.78483
H    -7.08397  -0.37416  5.57303
H    -7.49205  -0.19359  3.05633
N    -1.48086  -1.60000  4.59006
C    -2.78225  -2.25395  4.47712
H    -0.78366  -2.10071  5.14617
H    -3.30696  -2.22993  5.44041
H    -2.62896  -3.30369  4.19827
H    -3.39331  -1.77757  3.70746
Sr    1.92469  0.33584  2.64650
