31
Energy: -106814.057974 eV PBE+vdW (tier 2 basis)
C    1.62439  -0.44342  1.10548
C    0.90745  -0.62609  2.40345
O    1.54847  -0.82920  3.47433
H    2.28319  -1.30683  0.93568
H    2.27949  0.43702  1.17666
H    0.96112  -0.31807  0.24321
N    -0.44269  -0.56560  2.38625
C    -1.40241  -0.74124  3.49411
C    -1.16736  0.26632  4.64560
O    -0.23885  0.07871  5.49216
H    -0.85531  -0.36928  1.47802
H    -2.37626  -0.50533  3.05043
C    -1.46780  -2.20162  4.03870
C    -2.13592  -3.19007  3.12900
N    -3.47373  -3.56223  3.25254
C    -1.64625  -3.94559  2.09186
C    -3.78552  -4.49754  2.34665
N    -2.68203  -4.73239  1.63314
H    -1.99710  -2.18719  5.00265
H    -0.45327  -2.55735  4.25559
H    -4.13160  -3.22921  3.95501
H    -0.65300  -4.00937  1.66571
H    -4.75044  -4.97962  2.22278
H    -2.62275  -5.41327  0.87547
N    -1.97083  1.31335  4.75540
C    -3.08497  1.74805  3.89854
H    -1.78464  1.89627  5.57407
H    -3.28590  2.80049  4.12128
H    -3.99586  1.17470  4.11329
H    -2.82368  1.67674  2.83755
Sr    2.02507  -0.33514  5.66940
