31
Energy: -106814.288771 eV PBE+vdW (tier 2 basis)
C    0.47521  0.43925  5.92451
C    -0.69771  0.58546  5.01468
O    -1.34023  1.67082  4.94421
H    0.19485  0.72828  6.94594
H    1.25141  1.14975  5.60059
H    0.90302  -0.56868  5.93770
N    -1.05057  -0.47481  4.25239
C    -2.01576  -0.45091  3.14342
C    -3.48798  -0.49986  3.64126
O    -3.92430  0.48766  4.30132
H    -0.48012  -1.30978  4.35747
H    -1.94690  0.55481  2.69793
C    -1.58563  -1.40928  2.00900
C    -1.33877  -2.86803  2.29632
N    -0.71368  -3.66658  1.34010
C    -1.59457  -3.70892  3.35363
C    -0.59449  -4.92411  1.78091
N    -1.12426  -4.96202  3.00415
H    -0.65500  -0.99220  1.59213
H    -2.32264  -1.32010  1.19390
H    -0.38736  -3.36035  0.42326
H    -2.06526  -3.53292  4.31313
H    -0.14900  -5.75587  1.24246
H    -1.16872  -5.79980  3.58515
N    -4.27388  -1.51964  3.33698
C    -5.69639  -1.59755  3.70594
H    -3.90050  -2.27619  2.77185
H    -6.09288  -2.55348  3.35449
H    -6.25505  -0.78059  3.23349
H    -5.80908  -1.53381  4.79402
Sr    -3.42675  2.59947  5.16266
