31
Energy: -106814.479575 eV PBE+vdW (tier 2 basis)
C    -1.69614  -2.87511  1.47215
C    -1.37625  -1.57942  2.14012
O    -0.39028  -0.87705  1.77332
H    -2.59597  -3.36347  1.86069
H    -0.84486  -3.56229  1.58010
H    -1.81678  -2.69757  0.39375
N    -2.17698  -1.16814  3.14795
C    -2.05783  0.10383  3.88051
C    -0.82780  0.06427  4.83838
O    0.31535  0.29207  4.34186
H    -2.91625  -1.80767  3.43130
H    -1.79965  0.88304  3.14753
C    -3.38598  0.47747  4.56808
C    -4.52864  0.84853  3.66232
N    -5.75566  1.24338  4.19025
C    -4.67685  0.92772  2.30113
C    -6.61050  1.55183  3.20778
N    -5.96516  1.36331  2.05587
H    -3.18587  1.33669  5.22808
H    -3.71994  -0.34618  5.22435
H    -5.99563  1.30770  5.17875
H    -3.98998  0.71804  1.49213
H    -7.63485  1.89134  3.32848
H    -6.37579  1.52272  1.13590
N    -0.98974  -0.21215  6.12026
C    0.09544  -0.28310  7.10963
H    -1.92508  -0.41174  6.46450
H    -0.30427  0.00698  8.08606
H    0.89693  0.40284  6.82326
H    0.48600  -1.30722  7.17199
Sr    1.58799  0.12034  2.41454
