31
Energy: -106814.247108 eV PBE+vdW (tier 2 basis)
C    -1.52841  2.33534  2.32557
C    -0.88143  1.02182  2.62152
O    0.37577  0.92659  2.71992
H    -2.61778  2.28379  2.22690
H    -1.09811  2.74571  1.40102
H    -1.28045  3.04767  3.12577
N    -1.68754  -0.05188  2.77795
C    -1.32920  -1.46036  3.03503
C    -0.50998  -1.63491  4.33660
O    0.73253  -1.37081  4.36173
H    -2.68351  0.14058  2.70799
H    -2.29097  -1.96276  3.18767
C    -0.61684  -2.15207  1.83171
C    -1.50766  -2.47308  0.66816
N    -2.07449  -3.73008  0.46338
C    -1.90780  -1.71787  -0.40706
C    -2.77757  -3.74738  -0.67605
N    -2.68631  -2.52658  -1.20862
H    -0.15056  -3.08040  2.19249
H    0.20500  -1.51725  1.47879
H    -1.94734  -4.55292  1.04998
H    -1.68369  -0.69432  -0.67985
H    -3.31200  -4.59620  -1.09164
H    -3.11798  -2.25194  -2.09160
N    -1.11785  -2.09631  5.41914
C    -2.52904  -2.44904  5.63659
H    -0.49552  -2.23806  6.21763
H    -3.19961  -1.71008  5.18603
H    -2.71163  -2.44814  6.71566
H    -2.74784  -3.45453  5.25452
Sr    2.26885  0.27445  3.85107
