31
Energy: -106813.954811 eV PBE+vdW (tier 2 basis)
C    0.21359  -0.67539  0.42400
C    -0.06140  0.19628  1.60145
O    0.85911  0.85462  2.16334
H    0.57730  -0.04193  -0.39961
H    -0.65913  -1.23904  0.07780
H    1.02585  -1.37533  0.66130
N    -1.33448  0.28745  2.05612
C    -1.75251  1.19123  3.13434
C    -1.32652  0.61730  4.51220
O    -0.16598  0.90410  4.93098
H    -2.01680  -0.33622  1.63468
H    -1.11809  2.08290  3.03273
C    -3.19565  1.75224  2.96636
C    -4.41446  0.87528  2.89049
N    -4.95901  0.40780  1.69204
C    -5.33071  0.52751  3.85654
C    -6.13879  -0.18859  1.91278
N    -6.36686  -0.12931  3.22609
H    -3.17561  2.38027  2.06284
H    -3.35271  2.45410  3.79747
H    -4.59306  0.57779  0.75672
H    -5.36080  0.74967  4.91748
H    -6.79057  -0.62744  1.16284
H    -7.20776  -0.48917  3.68032
N    -2.14679  -0.16401  5.19532
C    -1.83014  -0.78480  6.48955
H    -3.04399  -0.39224  4.77491
H    -1.17397  -0.12287  7.06123
H    -1.33710  -1.75408  6.33924
H    -2.76107  -0.93946  7.04310
Sr    1.95834  1.42592  4.10930
