31
Energy: -106814.288760 eV PBE+vdW (tier 2 basis)
C    1.54046  -0.53445  1.01298
C    0.87232  -0.84081  2.31371
O    1.55038  -1.17869  3.32621
H    0.84566  -0.31880  0.19448
H    2.18382  -1.38009  0.73231
H    2.20588  0.33126  1.14563
N    -0.47469  -0.74051  2.36386
C    -1.39348  -1.01135  3.48687
C    -1.08507  -0.14081  4.72903
O    -0.12190  -0.43388  5.50378
H    -0.91753  -0.43431  1.50138
H    -2.37717  -0.70572  3.11307
C    -1.47839  -2.52044  3.87410
C    -2.21748  -3.38639  2.89736
N    -3.56469  -3.71827  3.03376
C    -1.79460  -4.05185  1.77289
C    -3.94515  -4.54558  2.05211
N    -2.87685  -4.74910  1.27794
H    -1.96162  -2.59805  4.85906
H    -0.46619  -2.92325  4.00050
H    -4.18376  -3.43334  3.79052
H    -0.81957  -4.10971  1.30566
H    -4.93275  -4.97614  1.91764
H    -2.87103  -5.35225  0.45488
N    -1.86291  0.89824  4.99283
C    -3.00865  1.43926  4.24527
H    -1.62747  1.38408  5.86075
H    -2.80035  1.48159  3.17108
H    -3.17919  2.46344  4.59110
H    -3.91869  0.85788  4.44153
Sr    2.13265  -0.92696  5.53672
