31
Energy: -106813.276878 eV PBE+vdW (tier 2 basis)
C    -0.96163  0.46258  -0.63925
C    -0.55200  0.09677  0.74195
O    0.60893  -0.33342  0.99469
H    -0.26382  1.18358  -1.08570
H    -1.99132  0.82240  -0.72129
H    -0.87341  -0.45290  -1.24916
N    -1.44844  0.17144  1.77959
C    -2.15153  1.41037  2.09508
C    -1.12038  2.36219  2.78783
O    0.05092  1.92377  3.04311
H    -1.07544  -0.28087  2.61591
H    -2.41361  1.90136  1.14582
C    -3.51454  1.15375  2.81446
C    -3.59739  0.14020  3.91844
N    -3.77385  0.46217  5.26359
C    -3.71910  -1.22833  3.85790
C    -4.00007  -0.64312  5.98526
N    -3.95802  -1.67594  5.13975
H    -4.20604  0.82147  2.02809
H    -3.92252  2.10680  3.17326
H    -3.80705  1.39918  5.65994
H    -3.70355  -1.90202  3.00940
H    -4.19278  -0.68899  7.05265
H    -4.12295  -2.64627  5.40943
N    -1.43375  3.62247  3.04376
C    -2.63752  4.39025  2.69349
H    -0.68931  4.15699  3.49585
H    -3.31464  4.47567  3.55308
H    -3.16261  3.94415  1.84356
H    -2.32386  5.39981  2.40583
Sr    2.04568  0.80935  2.43619
