31
Energy: -106813.729298 eV PBE+vdW (tier 2 basis)
C    -1.71680  3.55481  0.82994
C    -0.93649  2.51446  1.55619
O    0.02146  2.82894  2.31525
H    -2.47616  3.15609  0.15133
H    -0.99789  4.15020  0.24422
H    -2.18233  4.26063  1.53216
N    -1.22208  1.18465  1.38644
C    -2.57610  0.65921  1.55971
C    -2.97132  0.86111  3.07184
O    -2.10201  1.29230  3.89107
H    -0.50772  0.59040  1.81222
H    -3.27149  1.26157  0.95577
C    -2.66305  -0.82115  1.12600
C    -2.52544  -1.08394  -0.34837
N    -2.84919  -2.32659  -0.88787
C    -2.10322  -0.32573  -1.41064
C    -2.64045  -2.33139  -2.20998
N    -2.18922  -1.11983  -2.53756
H    -3.63119  -1.22536  1.45741
H    -1.90384  -1.40470  1.67492
H    -3.19647  -3.13574  -0.37515
H    -1.74096  0.69183  -1.46312
H    -2.81021  -3.16409  -2.88563
H    -1.94583  -0.83538  -3.48630
N    -4.21347  0.59638  3.43096
C    -4.75625  0.73046  4.79123
H    -4.87588  0.32093  2.70851
H    -5.11373  1.75470  4.95930
H    -3.98434  0.47832  5.52330
H    -5.59712  0.03868  4.89872
Sr    -0.20422  2.48825  4.61713
