31
Energy: -106813.307239 eV PBE+vdW (tier 2 basis)
C    0.18090  -0.70975  0.05837
C    0.05926  -0.13777  1.43310
O    1.06881  0.32910  2.03138
H    -0.59016  -0.31326  -0.61318
H    0.08249  -1.80729  0.07615
H    1.16753  -0.46671  -0.34778
N    -1.14571  -0.09827  2.07746
C    -2.05541  -1.24284  2.18995
C    -1.23527  -2.44587  2.77773
O    -0.07325  -2.24185  3.24334
H    -1.10813  0.47554  2.91960
H    -2.75509  -0.94812  2.98631
C    -2.88371  -1.51593  0.90172
C    -4.31121  -1.94918  1.10347
N    -5.09717  -2.33574  0.01942
C    -5.15502  -1.97529  2.18762
C    -6.35352  -2.57826  0.41283
N    -6.39837  -2.36656  1.72852
H    -2.37179  -2.24218  0.25307
H    -2.90650  -0.56699  0.34412
H    -4.79226  -2.40720  -0.95062
H    -4.99881  -1.73084  3.23097
H    -7.17805  -2.89099  -0.22115
H    -7.23762  -2.47024  2.29980
N    -1.79849  -3.64077  2.81134
C    -1.17608  -4.84014  3.39357
H    -2.73869  -3.74137  2.43712
H    -0.96851  -4.68149  4.45831
H    -0.24449  -5.07781  2.86719
H    -1.87056  -5.67700  3.28436
Sr    1.92586  -1.03868  3.70771
