20
Energy: -236087.089494 eV PBE+vdW (tier 2 basis)
N    1.462417  -1.116237  0.695623
C    0.307969  -0.607218  1.498496
C    0.834266  -0.265034  2.876349
O    1.710506  -0.965152  3.433067
H    2.003784  -0.317972  0.344010
H    1.070277  -1.544669  -0.150691
H    -0.137952  0.293590  1.051445
C    -0.793012  -1.712925  1.603652
C    -1.874908  -1.369151  2.633277
C    -1.412847  -1.982048  0.225979
H    -0.275056  -2.637441  1.946903
H    -2.652121  -2.141940  2.622528
H    -2.359659  -0.412817  2.394779
H    -1.492154  -1.311422  3.660660
H    -2.143069  -2.796793  0.304683
H    -0.693841  -2.289674  -0.548408
H    -1.946233  -1.095191  -0.141676
O    0.291260  0.782174  3.433572
H    0.625812  0.924678  4.347022
Ba    2.969564  -2.792758  2.324728
