20
Energy: -236086.972584 eV PBE+vdW (tier 2 basis)
N    0.771029  -2.205506  1.067542
C    0.380610  -0.897666  1.683084
C    1.519846  -0.429453  2.585855
O    2.622028  -1.017801  2.599576
H    0.328646  -2.258569  0.144664
H    0.298602  -2.941587  1.608509
H    0.342389  -0.152502  0.869135
C    -1.028617  -0.932345  2.357551
C    -1.077297  -1.867575  3.572012
C    -1.576476  0.466179  2.692234
H    -1.683426  -1.340638  1.570178
H    -2.103659  -1.930068  3.953338
H    -0.447235  -1.506774  4.398302
H    -0.781425  -2.903487  3.343793
H    -1.413138  1.199765  1.890140
H    -1.202140  0.869310  3.651526
H    -2.661326  0.405382  2.846117
O    1.382183  0.630638  3.329334
H    0.466173  0.994688  3.289218
Ba    3.533235  -2.781988  1.213890
