20
Energy: -236087.102957 eV PBE+vdW (tier 2 basis)
N    0.730883  -1.581357  0.563819
C    0.229744  -0.776263  1.724541
C    1.102557  -1.061310  2.932894
O    2.141240  -1.758652  2.874607
H    0.575944  -1.027242  -0.283978
H    0.078749  -2.370929  0.457722
H    0.398431  0.289839  1.494770
C    -1.291293  -0.958662  2.015422
C    -2.133394  -0.426965  0.850396
C    -1.635256  -2.410118  2.371885
H    -1.492369  -0.329437  2.894947
H    -3.196534  -0.468369  1.116093
H    -2.018805  -1.026848  -0.064999
H    -1.896842  0.619145  0.613405
H    -1.507918  -3.103542  1.523479
H    -2.693917  -2.481047  2.648695
H    -1.056992  -2.792432  3.225717
O    0.699022  -0.492501  4.036437
H    1.309209  -0.676663  4.783731
Ba    3.260545  -2.681647  0.888414
