20
Energy: -236086.972235 eV PBE+vdW (tier 2 basis)
N    1.002586  -1.900699  0.954808
C    0.259937  -0.639670  1.264802
C    1.160455  0.254680  2.114058
O    2.370644  -0.004904  2.274217
H    0.675044  -2.610565  1.623517
H    0.664936  -2.244821  0.050723
H    0.135957  -0.091762  0.313662
C    -1.157053  -0.862347  1.872937
C    -2.076023  -1.577164  0.874149
C    -1.102393  -1.571502  3.232180
H    -1.591324  0.144360  2.023862
H    -2.122688  -1.057632  -0.092469
H    -3.096217  -1.619328  1.273580
H    -1.767384  -2.617958  0.698065
H    -0.754673  -2.613652  3.147942
H    -2.109684  -1.631832  3.661132
H    -0.470005  -1.052800  3.967063
O    0.695541  1.345438  2.659304
H    -0.267446  1.460643  2.516395
Ba    3.795788  -1.713484  1.302074
