20
Energy: -236086.9149 eV PBE+vdW (tier 2 basis)
N    -0.020356  0.618855  0.123637
C    0.002572  0.169555  1.553646
C    1.438600  0.302063  2.064717
O    2.339483  0.785260  1.344937
H    -0.916948  1.085812  -0.041558
H    -0.082254  -0.227744  -0.456004
H    -0.572003  0.909514  2.140294
C    -0.683642  -1.222610  1.763297
C    -0.627682  -1.732340  3.214643
C    -2.146813  -1.150682  1.297758
H    -0.139763  -1.944497  1.127598
H    -1.312199  -2.582157  3.327984
H    -0.976722  -0.977625  3.939682
H    0.354531  -2.133479  3.508622
H    -2.725605  -0.445858  1.912335
H    -2.613425  -2.137221  1.403047
H    -2.264046  -0.866983  0.243448
O    1.749846  -0.021487  3.286644
H    1.003536  -0.462719  3.755422
Ba    2.292863  1.989837  -0.746992
