20
Energy: -236087.581256 eV PBE+vdW (tier 2 basis)
N    -0.357190  0.453489  0.207103
C    0.073844  -0.138907  1.539081
C    1.605656  -0.177138  1.513200
O    2.192904  -0.143311  0.373607
H    -0.442039  1.477236  0.235206
H    -1.270138  0.061049  -0.072398
H    -0.268008  0.536617  2.334626
C    -0.572360  -1.545327  1.735089
C    -0.304220  -2.066889  3.153006
C    -2.085104  -1.496624  1.463316
H    -0.104161  -2.229061  1.005487
H    -0.782776  -1.426702  3.906958
H    0.762322  -2.130738  3.392745
H    -0.730137  -3.071943  3.253490
H    -2.360425  -1.319196  0.409385
H    -2.592476  -0.752773  2.094085
H    -2.522477  -2.474594  1.698243
O    2.249283  -0.268998  2.602103
H    0.369019  0.211005  -0.492538
Ba    4.498484  -0.370190  1.517208
