20
Energy: -99613.9898196 eV PBE+vdW (tier 2 basis)
C    -0.261968  1.925475  0.573133
C    -0.248179  1.318462  1.948382
O    0.901334  1.362712  2.612552
H    -0.537728  1.173216  -0.179986
H    0.714764  2.337707  0.307434
H    -1.007412  2.731404  0.511768
N    -1.267425  0.765321  2.515026
C    -2.557444  0.674871  1.861090
C    -3.435902  -0.041152  2.880082
O    -2.835084  -0.355316  3.981522
H    -1.871798  0.020828  3.779700
H    -3.000875  1.657598  1.625191
H    -2.536369  0.090911  0.924841
N    -4.697899  -0.339845  2.710903
C    -5.528232  -0.061503  1.537591
H    -5.145552  -0.822265  3.492290
H    -4.949675  0.457764  0.769639
H    -6.376635  0.566956  1.832653
H    -5.904876  -1.004984  1.125458
Sr    2.724956  1.431838  3.671730
