20
Energy: -99615.5203275 eV PBE+vdW (tier 2 basis)
C    -0.151853  3.803173  1.804190
C    -0.440342  2.339616  1.782596
O    0.487772  1.488607  1.939898
H    0.384872  4.060943  2.726298
H    -1.047746  4.426621  1.719005
H    0.523249  4.034904  0.967152
N    -1.704556  1.937453  1.577423
C    -2.125008  0.553397  1.353381
C    -2.198615  -0.286500  2.633330
O    -1.114238  -0.737849  3.129801
H    -2.404347  2.662795  1.444939
H    -3.081371  0.577350  0.823405
H    -1.402501  0.058360  0.689527
N    -3.356198  -0.564999  3.206142
C    -4.719233  -0.176000  2.833213
H    -3.277498  -1.170215  4.026307
H    -5.252112  0.138511  3.737490
H    -5.245370  -1.030249  2.388812
H    -4.715696  0.658422  2.128279
Sr    1.152792  -0.423341  2.978811
