20
Energy: -99614.0570155 eV PBE+vdW (tier 2 basis)
C    0.164190  -0.021899  -0.091321
C    -0.020076  0.419303  1.323786
O    1.036657  0.608404  2.074344
H    0.768115  0.717572  -0.635673
H    -0.789701  -0.144577  -0.613734
H    0.701335  -0.980424  -0.114937
N    -1.222380  0.607508  1.785353
C    -1.685850  1.026556  3.095511
C    -3.237139  1.030179  2.916529
O    -3.673571  0.706343  1.804921
H    -2.098162  0.462961  1.204062
H    -1.379600  0.315832  3.876506
H    -1.315043  2.029530  3.351286
N    -3.969952  1.381739  3.974396
C    -5.433659  1.432492  3.963898
H    -3.494786  1.627104  4.837399
H    -5.839239  0.732794  4.704027
H    -5.782996  1.150775  2.967460
H    -5.775360  2.447677  4.197000
Sr    3.041216  0.766132  2.841188
