20
Energy: -99613.9740078 eV PBE+vdW (tier 2 basis)
C    0.282455  0.040716  0.101378
C    -0.054701  0.393483  1.513318
O    0.892486  0.372700  2.417637
H    1.050822  0.727741  -0.280071
H    -0.589648  0.093717  -0.557787
H    0.689936  -0.979158  0.060186
N    -1.278819  0.713792  1.817687
C    -1.879961  1.093294  3.083632
C    -3.368023  1.328809  2.685787
O    -3.666241  1.155840  1.497190
H    -2.066655  0.739306  1.106815
H    -1.790232  0.292310  3.831614
H    -1.427039  2.009500  3.489247
N    -4.226686  1.699941  3.639799
C    -3.935001  1.916433  5.054258
H    -5.182172  1.837006  3.317043
H    -3.203209  2.722766  5.199800
H    -3.580983  0.997853  5.541994
H    -4.861147  2.218062  5.550817
Sr    2.771818  0.179889  3.449655
