20
Energy: -99613.8524773 eV PBE+vdW (tier 2 basis)
C    0.377108  -0.068247  -0.030663
C    -0.036847  0.120642  1.397807
O    0.861998  -0.227318  2.324993
H    -0.414102  0.240002  -0.719142
H    0.611739  -1.125435  -0.222089
H    1.277016  0.525454  -0.247596
N    -1.202337  0.594499  1.662448
C    -1.719937  0.823315  2.991373
C    -3.120114  1.383961  2.732286
O    -3.435092  1.492788  1.486349
H    -2.555631  1.131224  1.032020
H    -1.797871  -0.096374  3.595028
H    -1.132053  1.555242  3.570157
N    -3.976355  1.742469  3.655483
C    -3.798291  1.692010  5.105801
H    -4.869682  2.097765  3.309209
H    -3.892645  2.701939  5.522022
H    -2.812789  1.292738  5.358100
H    -4.568505  1.048435  5.546947
Sr    2.709389  -0.959107  3.080467
