20
Energy: -99614.9557411 eV PBE+vdW (tier 2 basis)
C    -1.926224  0.082095  0.086213
C    -0.710568  0.356066  0.906783
O    -0.221351  1.525046  0.984107
H    -2.030498  -0.971141  -0.192329
H    -1.863337  0.695008  -0.822324
H    -2.835730  0.402325  0.618172
N    -0.104147  -0.646316  1.592977
C    -0.851193  -1.595018  2.392564
C    -1.344818  -0.901277  3.690560
O    -1.223708  0.360538  3.817814
H    0.818061  -0.402320  1.955205
H    -1.719191  -1.969981  1.832968
H    -0.220472  -2.461223  2.631715
N    -1.885700  -1.671473  4.613520
C    -2.438361  -1.236490  5.899021
H    -1.924241  -2.672052  4.421453
H    -1.857275  -1.679957  6.716649
H    -3.479595  -1.570462  5.977196
H    -2.395349  -0.147720  5.963677
Sr    -0.490303  2.446352  3.095058
