20
Energy: -99615.6107944 eV PBE+vdW (tier 2 basis)
C    -0.814757  0.493825  -0.032741
C    -0.509254  -0.351928  1.157597
O    -0.069762  -1.535482  1.022649
H    0.121657  0.662543  -0.585126
H    -1.254069  1.463809  0.221718
H    -1.489771  -0.046199  -0.708923
N    -0.693722  0.169084  2.380006
C    -0.272341  -0.447007  3.639574
C    -1.200296  -1.563476  4.135387
O    -1.196703  -2.690921  3.548023
H    -1.042006  1.123076  2.427341
H    0.730568  -0.880406  3.513364
H    -0.184470  0.353961  4.382422
N    -1.958231  -1.313769  5.188742
C    -2.876957  -2.257816  5.827465
H    -1.892786  -0.388170  5.607275
H    -2.617381  -2.352697  6.888398
H    -2.794520  -3.230133  5.337942
H    -3.904892  -1.884618  5.742343
Sr    -0.308954  -3.696042  1.680786
