20
Energy: -99614.9324945 eV PBE+vdW (tier 2 basis)
C    0.231210  1.758206  1.028979
C    -0.932993  1.550536  1.939064
O    -0.824852  1.721474  3.191965
H    0.903015  0.885813  1.052563
H    -0.061864  1.951271  -0.007723
H    0.809771  2.609706  1.409341
N    -2.134986  1.166832  1.437811
C    -2.258460  0.096629  0.468032
C    -1.975770  -1.256505  1.157260
O    -1.576752  -1.278384  2.369822
H    -2.901763  1.233404  2.107646
H    -3.265263  0.104159  0.029523
H    -1.554359  0.238646  -0.364146
N    -2.152807  -2.367272  0.469019
C    -2.614525  -2.481042  -0.922699
H    -1.958386  -3.234156  0.970185
H    -2.543104  -3.531139  -1.217119
H    -1.982570  -1.891215  -1.597130
H    -3.660992  -2.163965  -1.016045
Sr    -0.964553  -0.272997  4.371652
