20
Energy: -99614.1308501 eV PBE+vdW (tier 2 basis)
C    0.028269  0.389385  0.079332
C    -0.062877  0.621718  1.550524
O    1.012497  0.923719  2.232537
H    1.055839  0.502741  -0.274334
H    -0.615990  1.098284  -0.460917
H    -0.327501  -0.620229  -0.172420
N    -1.196379  0.532948  2.189152
C    -2.527161  0.219441  1.695370
C    -3.388295  0.290056  2.986065
O    -2.803524  0.569722  4.045662
H    -1.308258  0.689684  3.230807
H    -2.867519  0.951154  0.948065
H    -2.568390  -0.782174  1.242786
N    -4.695909  0.047833  2.880876
C    -5.434756  -0.283996  1.662550
H    -5.211385  0.107803  3.756155
H    -5.384680  0.527496  0.924443
H    -6.484999  -0.426405  1.930301
H    -5.074981  -1.218738  1.212475
Sr    2.746995  1.422556  3.396570
