20
Energy: -99615.5210963 eV PBE+vdW (tier 2 basis)
C    0.167048  2.820002  0.929102
C    -0.598062  2.187240  2.042681
O    -0.077725  2.038077  3.190481
H    -0.374723  2.831719  -0.022182
H    1.124754  2.300396  0.796197
H    0.403326  3.855279  1.216315
N    -1.859079  1.790192  1.810408
C    -2.799432  1.319294  2.829052
C    -2.553350  -0.124748  3.280504
O    -1.602468  -0.366406  4.092639
H    -2.228793  1.950269  0.877155
H    -2.716792  1.954983  3.721965
H    -3.810208  1.450210  2.431067
N    -3.334960  -1.099981  2.851981
C    -4.482118  -1.024200  1.935799
H    -3.118530  -2.018890  3.241086
H    -5.350183  -0.569778  2.429677
H    -4.745499  -2.044580  1.644103
H    -4.227063  -0.469036  1.026969
Sr    0.273856  0.639958  4.950000
