37
Energy: -613505.058789 eV PBE+vdW (tier 2 basis)
C    -1.904804  1.511582  5.562065
C    -1.368222  0.963157  4.284414
O    -0.150435  0.555776  4.246153
H    -1.788046  0.751950  6.347907
H    -1.304743  2.379203  5.868424
H    -2.958153  1.801348  5.486880
N    -2.172663  0.889690  3.228311
C    -1.859509  0.269748  1.935659
C    -0.986984  1.237464  1.116369
O    0.295301  1.159131  1.205203
H    -3.132417  1.246877  3.335973
H    -1.223736  -0.609124  2.129851
C    -3.154775  -0.242662  1.244499
C    -4.249542  0.767148  1.079233
C    -4.633748  1.394366  -0.102306
C    -5.136364  1.255031  2.107055
N    -5.667500  2.255720  0.152486
C    -6.001822  2.202853  1.490938
C    -5.334907  0.945599  3.471508
C    -6.999826  2.879540  2.196445
C    -6.329643  1.616133  4.174328
C    -7.141418  2.581950  3.547364
H    -3.510107  -1.091217  1.849135
H    -2.861321  -0.665859  0.273851
H    -4.289516  1.226563  -1.119270
H    -6.165913  2.788088  -0.552086
H    -4.786960  0.134810  3.957888
H    -7.654950  3.599534  1.707417
H    -6.511644  1.368601  5.219147
H    -7.914992  3.084239  4.125741
N    -1.566543  2.135709  0.357120
C    -0.887411  3.140923  -0.459569
H    -2.600859  2.098472  0.332978
H    -1.314556  3.125521  -1.468536
H    0.180903  2.920218  -0.510353
H    -1.041531  4.136652  -0.024369
Pb    1.580359  0.348267  2.854148
