37
Energy: -613504.720678 eV PBE+vdW (tier 2 basis)
C    -0.544599  0.407724  -0.059019
C    -0.273887  0.233773  1.398907
O    0.884266  -0.159104  1.761600
H    -0.384760  -0.558850  -0.558522
H    -1.557890  0.759629  -0.278082
H    0.186656  1.107896  -0.484349
N    -1.264303  0.483194  2.263601
C    -1.368034  0.208133  3.714209
C    -0.568788  1.205668  4.553762
O    0.710316  1.266110  4.490700
H    -2.129915  0.796617  1.831680
H    -2.428188  0.372803  3.935172
C    -1.067821  -1.257705  4.133317
C    -1.499898  -1.503086  5.542350
C    -0.682573  -1.721928  6.642943
C    -2.856276  -1.547220  6.019835
N    -1.453826  -1.884871  7.758581
C    -2.792400  -1.783579  7.420841
C    -4.120180  -1.432890  5.405883
C    -3.933403  -1.889581  8.216084
C    -5.261489  -1.535206  6.195145
C    -5.168912  -1.756797  7.581391
H    -0.002235  -1.504579  4.010727
H    -1.614212  -1.905973  3.430479
H    0.397704  -1.809047  6.702985
H    -1.100842  -2.111064  8.681741
H    -4.218197  -1.303092  4.326442
H    -3.869410  -2.077272  9.287284
H    -6.244915  -1.461393  5.733740
H    -6.080664  -1.839844  8.170572
N    -1.191605  2.008821  5.395091
C    -2.630565  2.119661  5.674493
H    -0.570052  2.616633  5.930714
H    -2.755898  2.859122  6.469771
H    -3.038329  1.160812  6.016281
H    -3.175936  2.474532  4.791319
Pb    2.367056  0.222952  3.390333
