37
Energy: -613504.700036 eV PBE+vdW (tier 2 basis)
C    -1.262125  -0.858969  -0.201363
C    -1.304354  -0.214059  1.141417
O    -0.501018  0.747495  1.396663
H    -1.439285  -0.093280  -0.969247
H    -0.255512  -1.261314  -0.379530
H    -1.997431  -1.662388  -0.310549
N    -2.183248  -0.651991  2.047988
C    -2.442583  0.015492  3.319584
C    -1.238321  -0.086635  4.263738
O    -0.559824  0.982321  4.502862
H    -2.947697  -1.263002  1.729682
H    -2.553435  1.093575  3.121005
C    -3.809577  -0.471398  3.908514
C    -4.858339  -0.526482  2.849123
C    -5.385405  -1.683961  2.278241
C    -5.515891  0.583993  2.214523
N    -6.319086  -1.340603  1.342744
C    -6.430784  0.038204  1.273744
C    -5.449968  1.980963  2.369880
C    -7.259829  0.835509  0.483997
C    -6.274651  2.781544  1.586232
C    -7.163663  2.216168  0.653477
H    -4.080841  0.232067  4.707951
H    -3.702130  -1.455579  4.377406
H    -5.204444  -2.725908  2.525892
H    -6.895500  -1.998936  0.829990
H    -4.796562  2.436767  3.115959
H    -7.963052  0.403452  -0.226919
H    -6.249437  3.863581  1.705199
H    -7.801613  2.869800  0.060880
N    -0.866115  -1.203404  4.864572
C    -1.406067  -2.562541  4.775556
H    -0.066692  -1.082211  5.489225
H    -2.114589  -2.754260  5.591341
H    -1.887821  -2.729977  3.809355
H    -0.569212  -3.262754  4.869251
Pb    0.275095  2.278720  2.858616
