37
Energy: -613505.460605 eV PBE+vdW (tier 2 basis)
C    -0.413054  -0.340095  -0.366751
C    -0.823250  0.300529  0.916312
O    -1.083144  1.541178  0.947726
H    0.491077  0.156601  -0.743704
H    -1.201131  -0.174577  -1.114084
H    -0.225150  -1.414630  -0.271206
N    -0.919192  -0.467487  2.025874
C    -1.422837  0.110748  3.261297
C    -0.319193  0.810516  4.072500
O    -0.216318  2.078267  3.993194
H    -0.713788  -1.460258  1.950079
H    -2.022679  0.946108  2.897995
C    -2.435138  -0.675852  4.111646
C    -3.046161  0.355760  5.024273
C    -3.061869  0.352871  6.409440
C    -3.565710  1.632622  4.622078
N    -3.545120  1.545557  6.875217
C    -3.847742  2.366031  5.815170
C    -3.848373  2.257375  3.374730
C    -4.336171  3.673195  5.801667
C    -4.362715  3.576584  3.371309
C    -4.567481  4.281500  4.566056
H    -1.984806  -1.499214  4.683329
H    -3.181172  -1.125277  3.438196
H    -2.766351  -0.430836  7.100050
H    -3.688258  1.771778  7.854065
H    -3.917633  1.667398  2.455545
H    -4.545939  4.206737  6.728811
H    -4.668987  4.026798  2.425632
H    -4.963331  5.294848  4.532198
N    0.511281  0.092562  4.808118
C    1.624448  0.624535  5.598049
H    0.362815  -0.913176  4.837809
H    1.683821  1.704653  5.449236
H    2.560434  0.154161  5.274771
H    1.461221  0.406419  6.660220
Pb    -1.416406  3.337073  2.462156
