37
Energy: -613504.365338 eV PBE+vdW (tier 2 basis)
C    -2.984453  -1.831626  -0.569425
C    -2.050315  -1.260685  0.436177
O    -0.795321  -1.224045  0.192559
H    -3.064839  -1.159731  -1.437634
H    -3.979640  -2.040200  -0.167253
H    -2.539844  -2.763327  -0.947707
N    -2.496682  -0.777092  1.615267
C    -3.633393  0.138259  1.729772
C    -3.231464  1.463779  1.052433
O    -2.008707  1.715458  0.744332
H    -1.756770  -0.603609  2.298816
H    -4.498459  -0.289190  1.206894
C    -4.001516  0.313455  3.239354
C    -5.144978  1.231104  3.517450
C    -6.492341  0.875925  3.561994
C    -5.078146  2.627439  3.872594
N    -7.236338  1.964640  3.905124
C    -6.411982  3.059404  4.105789
C    -4.029110  3.551200  4.031119
C    -6.726237  4.367441  4.476095
C    -4.335215  4.859026  4.401693
C    -5.665131  5.262100  4.618052
H    -3.104452  0.666107  3.773533
H    -4.214472  -0.698930  3.610985
H    -6.961653  -0.090466  3.405766
H    -8.241986  1.958035  4.041250
H    -2.988459  3.253454  3.891554
H    -7.753689  4.679758  4.659220
H    -3.532525  5.580936  4.544864
H    -5.871072  6.289062  4.914901
N    -4.186492  2.345482  0.837671
C    -4.005965  3.718016  0.370517
H    -5.102882  2.106537  1.222429
H    -4.827691  3.975503  -0.305488
H    -3.052974  3.807796  -0.155004
H    -4.018606  4.397972  1.234923
Pb    0.066370  0.896558  0.257347
