37
Energy: -613505.368123 eV PBE+vdW (tier 2 basis)
C    0.720385  -0.469596  0.764593
C    0.031512  -0.156210  2.050254
O    0.613154  0.556083  2.921798
H    0.116492  -1.086769  0.091118
H    1.667014  -0.983190  0.979730
H    0.977526  0.472180  0.260725
N    -1.216587  -0.640312  2.253724
C    -1.947395  -0.252304  3.449358
C    -1.591480  -1.114971  4.672624
O    -0.824052  -0.603639  5.557292
H    -1.651027  -1.185785  1.514553
H    -1.474724  0.697826  3.701181
C    -3.431280  0.154826  3.347881
C    -3.708344  0.922939  4.613240
C    -4.643535  0.627921  5.591625
C    -2.921737  2.007036  5.128221
N    -4.469927  1.452610  6.670270
C    -3.413537  2.299940  6.437172
C    -1.842265  2.788541  4.630700
C    -2.851315  3.282858  7.252531
C    -1.291022  3.797732  5.457438
C    -1.768394  4.013769  6.758393
H    -4.117763  -0.692974  3.239470
H    -3.550115  0.785325  2.452892
H    -5.434769  -0.115278  5.587142
H    -5.055190  1.455620  7.499281
H    -1.597634  2.792728  3.564117
H    -3.249985  3.488417  8.246031
H    -0.526258  4.461424  5.050825
H    -1.324577  4.796237  7.371181
N    -2.023379  -2.354154  4.834992
C    -2.885449  -3.158678  3.971389
H    -1.697313  -2.801203  5.693628
H    -3.885845  -3.257494  4.411808
H    -2.447484  -4.157484  3.864505
H    -2.973458  -2.713590  2.978100
Pb    0.454760  1.287613  5.182219
