37
Energy: -613504.82245 eV PBE+vdW (tier 2 basis)
C    0.297871  -0.314364  0.158021
C    0.203986  -0.213953  1.642181
O    1.281050  -0.367871  2.337388
H    0.676603  -1.313721  -0.101057
H    -0.665174  -0.156844  -0.337436
H    1.034286  0.408735  -0.216963
N    -0.966949  0.007136  2.206605
C    -1.335481  -0.106326  3.612492
C    -2.826077  -0.593841  3.515577
O    -3.411317  -0.390889  2.449086
H    -1.845446  0.010435  1.642423
H    -0.695290  -0.855368  4.101557
C    -1.309316  1.237054  4.388021
C    0.012541  1.891575  4.702821
C    0.531854  2.049850  6.001519
C    0.795946  2.795820  3.861527
N    1.546734  2.962988  6.000649
C    1.746031  3.454801  4.717849
C    0.739964  3.171391  2.493188
C    2.619729  4.445272  4.255644
C    1.606040  4.154646  2.044930
C    2.531171  4.781672  2.912276
H    -1.834202  1.074356  5.338401
H    -1.924144  1.957217  3.826809
H    0.187295  1.603172  6.930192
H    2.050133  3.269838  6.829658
H    0.001427  2.730423  1.825638
H    3.318685  4.948259  4.922810
H    1.562319  4.472957  1.004312
H    3.182940  5.559439  2.516527
N    -3.399765  -1.171176  4.583028
C    -2.826579  -1.501227  5.881404
H    -4.380231  -1.406078  4.433942
H    -3.271873  -2.435983  6.238627
H    -3.026967  -0.719480  6.628584
H    -1.745801  -1.665616  5.805786
Pb    2.269817  0.597956  4.051006
