37
Energy: -613504.977365 eV PBE+vdW (tier 2 basis)
C    -2.903167  -1.188144  0.326626
C    -2.357229  -1.565392  1.671922
O    -1.860525  -2.651706  1.936534
H    -3.221521  -0.142022  0.255532
H    -3.762828  -1.835278  0.105093
H    -2.145670  -1.395860  -0.438829
N    -2.472401  -0.590382  2.685687
C    -1.803098  -0.893119  3.930106
C    -2.643031  -0.576462  5.150501
O    -2.129851  -0.646115  6.331668
H    -2.542135  0.379938  2.385701
H    -1.710693  -1.998906  3.883348
C    -0.357597  -0.314840  4.038937
C    0.649853  -1.208660  4.711840
C    1.224950  -2.360984  4.157863
C    1.430801  -0.923002  5.903848
N    2.270755  -2.776545  4.922913
C    2.421490  -1.955142  6.019160
C    1.312014  0.035695  6.955209
C    3.296413  -2.031563  7.105742
C    2.191062  -0.065472  8.047144
C    3.164168  -1.077120  8.115241
H    -0.371760  0.668010  4.527843
H    -0.017011  -0.139963  3.009901
H    0.956917  -2.875872  3.238524
H    2.841003  -3.594570  4.722435
H    0.635644  0.888052  6.867976
H    4.059973  -2.807087  7.166659
H    2.133072  0.674986  8.843995
H    3.836061  -1.112225  8.971227
N    -3.904431  -0.243693  4.982389
C    -4.878078  0.043971  6.033341
H    -4.213222  -0.233847  4.007866
H    -5.668567  -0.716510  6.021200
H    -5.327378  1.027153  5.851754
H    -4.378193  0.044187  7.004237
Pb    -0.524325  -1.964360  7.184266
