37
Energy: -613505.781676 eV PBE+vdW (tier 2 basis)
C    -0.493075  -0.661295  2.767785
C    -0.518987  -0.021207  4.120329
O    -0.941058  -0.690555  5.102276
H    -0.131041  -0.001260  1.972738
H    -1.504855  -1.009816  2.521487
H    0.145888  -1.553862  2.813739
N    -0.084302  1.249094  4.213950
C    0.064642  2.137769  5.386926
C    0.941088  1.520787  6.489886
O    0.498935  0.682192  7.329891
H    0.232267  1.655219  3.338128
H    0.633214  2.985602  4.982413
C    -1.241821  2.795275  5.917042
C    -2.318107  2.030306  6.653465
C    -2.642617  2.243430  8.007322
C    -3.468736  1.330867  6.082303
N    -3.862745  1.704097  8.283334
C    -4.405890  1.132244  7.143127
C    -3.819527  0.914952  4.780968
C    -5.641233  0.503610  6.954533
C    -5.051096  0.308732  4.590697
C    -5.944949  0.095528  5.664035
H    -1.712067  3.278017  5.046697
H    -0.909049  3.619287  6.564402
H    -2.090131  2.793469  8.763626
H    -4.319880  1.743634  9.190406
H    -3.157058  1.096421  3.935772
H    -6.343447  0.363452  7.775300
H    -5.348412  -0.001274  3.590015
H    -6.902018  -0.385841  5.469257
N    2.200344  1.931458  6.563355
C    3.152967  1.450489  7.569419
H    2.528957  2.618891  5.891730
H    4.124493  1.909555  7.370893
H    3.244172  0.359729  7.512338
H    2.816818  1.728733  8.575429
Pb    -1.549114  -0.411004  7.295956
