37
Energy: -613505.049378 eV PBE+vdW (tier 2 basis)
C    0.321023  -0.176541  0.380802
C    -0.231912  -0.506683  1.736230
O    0.254132  -1.317441  2.517263
H    0.735422  -1.084173  -0.070225
H    1.151343  0.534518  0.501779
H    -0.419302  0.269848  -0.293233
N    -1.398927  0.162652  2.125446
C    -1.767244  0.029147  3.517151
C    -2.243311  -1.394752  3.822134
O    -2.076532  -1.905869  4.987791
H    -1.708167  0.979853  1.606119
H    -0.854156  0.134720  4.128124
C    -2.802954  1.103424  3.937476
C    -3.180695  1.032160  5.385236
C    -4.447863  0.881175  5.906967
C    -2.293782  1.076507  6.518653
N    -4.399121  0.804072  7.283003
C    -3.103555  0.895508  7.701401
C    -0.891968  1.279526  6.685367
C    -2.541750  0.849925  8.991209
C    -0.348348  1.262744  7.984757
C    -1.161860  1.032985  9.116462
H    -3.705245  1.018241  3.316170
H    -2.355503  2.085664  3.715422
H    -5.401524  0.828280  5.390649
H    -5.210571  0.712733  7.887152
H    -0.253157  1.513954  5.833777
H    -3.165866  0.707602  9.873799
H    0.717183  1.446512  8.118401
H    -0.709128  1.019167  10.106542
N    -2.870999  -2.058794  2.877278
C    -3.358262  -3.433027  2.963205
H    -2.886636  -1.594683  1.967847
H    -3.489786  -3.711447  4.011170
H    -2.636863  -4.113876  2.492313
H    -4.316261  -3.506333  2.438156
Pb    -1.221855  -1.370297  6.989210
