37
Energy: -613505.782234 eV PBE+vdW (tier 2 basis)
C    -0.281915  0.724838  2.237194
C    -1.223969  -0.315239  2.757497
O    -1.687980  -0.187177  3.923005
H    -0.795033  1.696352  2.240219
H    0.090904  0.519191  1.228461
H    0.565682  0.813304  2.929597
N    -1.527301  -1.341337  1.941015
C    -2.445431  -2.486812  2.122789
C    -3.880723  -2.046808  2.462797
O    -4.232448  -1.728344  3.637101
H    -1.080917  -1.303730  1.029139
H    -2.488959  -2.927679  1.118043
C    -1.918621  -3.653217  3.007127
C    -1.768284  -3.558223  4.508482
C    -2.534135  -4.309504  5.420923
C    -0.603523  -3.097514  5.263716
N    -1.937809  -4.301164  6.645740
C    -0.759312  -3.572178  6.602946
C    0.570615  -2.392433  4.926448
C    0.184818  -3.330887  7.606533
C    1.514509  -2.169411  5.916295
C    1.319638  -2.622116  7.240506
H    -0.937584  -3.928624  2.590755
H    -2.579210  -4.503978  2.786614
H    -3.437932  -4.884930  5.242552
H    -2.293585  -4.787079  7.464646
H    0.752502  -2.060586  3.905191
H    0.049504  -3.703079  8.621208
H    2.436556  -1.644579  5.670863
H    2.087172  -2.423669  7.986922
N    -4.756310  -2.051184  1.464924
C    -6.168917  -1.684331  1.581180
H    -4.429570  -2.333408  0.544429
H    -6.796242  -2.552517  1.345467
H    -6.394227  -0.876559  0.875006
H    -6.370232  -1.350445  2.601065
Pb    -2.875730  -1.372947  5.485605
