37
Energy: -613504.957269 eV PBE+vdW (tier 2 basis)
C    0.321220  0.992422  0.751443
C    -0.020005  0.468025  2.114215
O    0.683144  0.612259  3.105143
H    -0.360840  0.653089  -0.036144
H    1.345673  0.690261  0.501891
H    0.314575  2.090623  0.783974
N    -1.230664  -0.248646  2.219769
C    -1.663623  -0.588795  3.555885
C    -1.839912  -2.080379  3.764042
O    -2.184237  -2.539039  4.918060
H    -1.926821  -0.099891  1.492647
H    -0.772808  -0.325046  4.160381
C    -2.874540  0.263337  4.037568
C    -3.001614  0.518451  5.516901
C    -4.222003  0.626018  6.214279
C    -1.974166  1.002735  6.440817
N    -4.004838  1.157155  7.456596
C    -2.655085  1.397739  7.646731
C    -0.568384  1.206033  6.353630
C    -1.989368  1.950332  8.743242
C    0.079396  1.757674  7.446768
C    -0.616444  2.121567  8.622008
H    -3.817381  -0.146059  3.647752
H    -2.744993  1.248569  3.562716
H    -5.228596  0.426755  5.856996
H    -4.736112  1.359237  8.133998
H    -0.012087  0.991316  5.440539
H    -2.523408  2.256564  9.641941
H    1.152143  1.937191  7.391930
H    -0.062487  2.562356  9.449858
N    -1.590407  -2.896578  2.765148
C    -1.639454  -4.356713  2.798600
H    -1.278731  -2.432792  1.909127
H    -2.350562  -4.714878  2.044835
H    -1.955007  -4.689558  3.789595
H    -0.645049  -4.759349  2.571065
Pb    -2.542527  -1.610990  6.916053
