37
Energy: -613505.032896 eV PBE+vdW (tier 2 basis)
C    0.582858  0.802601  0.487611
C    0.153879  0.498538  1.882515
O    0.951590  0.774699  2.848446
H    -0.152612  0.493499  -0.261998
H    1.545250  0.314993  0.284280
H    0.751219  1.885929  0.401299
N    -1.051466  -0.025301  2.092424
C    -1.697710  -0.259390  3.385126
C    -1.129943  -1.552256  3.999061
O    -0.081443  -1.478617  4.744776
H    -1.633571  -0.278732  1.283323
H    -1.390694  0.547353  4.067592
C    -3.241985  -0.159106  3.210370
C    -3.828467  -0.987185  2.108880
C    -3.904013  -0.636002  0.764102
C    -4.438983  -2.289272  2.223777
N    -4.486038  -1.653708  0.056812
C    -4.827042  -2.682427  0.910639
C    -4.757427  -3.138823  3.307714
C    -5.465732  -3.896686  0.647687
C    -5.394523  -4.346438  3.046780
C    -5.734160  -4.724652  1.732724
H    -3.453493  0.906369  3.040341
H    -3.704280  -0.406445  4.176025
H    -3.667965  0.306814  0.277428
H    -4.709728  -1.619505  -0.931624
H    -4.561041  -2.840136  4.339237
H    -5.758872  -4.179823  -0.362546
H    -5.665178  -5.001152  3.873863
H    -6.239972  -5.674211  1.565850
N    -1.686717  -2.710917  3.748901
C    -1.219538  -3.999282  4.263706
H    -2.540183  -2.723128  3.169618
H    -0.412531  -4.393006  3.631983
H    -2.064046  -4.693998  4.240837
H    -0.854662  -3.886421  5.289112
Pb    1.564222  0.035826  4.868329
