37
Energy: -613504.836628 eV PBE+vdW (tier 2 basis)
C    -0.709620  0.713775  -0.566507
C    -0.978957  0.378828  0.862847
O    -0.329577  0.984933  1.782607
H    -1.315607  0.127294  -1.265120
H    -0.899449  1.782512  -0.733940
H    0.354244  0.540855  -0.780512
N    -1.875483  -0.566188  1.156879
C    -2.219070  -0.982531  2.513569
C    -2.544882  -2.496713  2.679742
O    -3.224621  -2.822975  3.646100
H    -2.404222  -0.962748  0.381410
H    -1.306172  -0.834308  3.109210
C    -3.367961  -0.124190  3.135735
C    -2.977622  0.453534  4.455338
C    -2.966050  -0.185096  5.681493
C    -2.454237  1.772010  4.693350
N    -2.451371  0.652047  6.647957
C    -2.103381  1.848155  6.096274
C    -2.301285  2.942264  3.891495
C    -1.524095  2.994733  6.657559
C    -1.722771  4.092153  4.475352
C    -1.321592  4.103447  5.831566
H    -4.245094  -0.770410  3.257315
H    -3.636656  0.676916  2.435418
H    -3.291345  -1.193070  5.922473
H    -2.349994  0.404066  7.628565
H    -2.683180  2.976346  2.869842
H    -1.258071  3.035207  7.714107
H    -1.620909  4.998444  3.878825
H    -0.880142  5.007415  6.247657
N    -2.025506  -3.349759  1.771360
C    -2.208709  -4.798713  1.875693
H    -1.361555  -3.007497  1.085634
H    -3.165932  -4.996455  2.366505
H    -1.406577  -5.258737  2.467763
H    -2.215016  -5.233826  0.871484
Pb    0.078469  1.951283  3.785959
