37
Energy: -613504.711087 eV PBE+vdW (tier 2 basis)
C    -0.819317  0.010937  -0.491003
C    -0.698769  0.054160  0.994072
O    0.463104  0.142736  1.532864
H    -1.853994  0.092801  -0.840491
H    -0.416844  -0.957031  -0.828544
H    -0.205208  0.793648  -0.952063
N    -1.798108  -0.021056  1.738836
C    -1.856701  -0.388047  3.161529
C    -2.558353  -1.795754  3.166090
O    -2.021970  -2.658473  2.482919
H    -2.663760  -0.155531  1.217459
H    -0.828439  -0.623643  3.463818
C    -2.396562  0.753795  4.062249
C    -1.321618  1.628716  4.639689
C    -0.945233  1.653474  5.967811
C    -0.481129  2.598167  3.983298
N    0.076032  2.556634  6.169941
C    0.402511  3.153142  4.991204
C    -0.412275  3.135060  2.668814
C    1.361073  4.136064  4.695457
C    0.561346  4.114362  2.378847
C    1.441446  4.598945  3.382669
H    -2.926850  0.311871  4.915528
H    -3.138101  1.351867  3.512971
H    -1.347138  1.090182  6.804793
H    0.503305  2.754680  7.070521
H    -1.124178  2.825428  1.903602
H    2.011428  4.542687  5.470096
H    0.604221  4.544801  1.378534
H    2.171088  5.364850  3.124903
N    -3.680143  -1.954038  3.897503
C    -4.387775  -3.232377  3.979007
H    -4.084787  -1.163834  4.384503
H    -3.817873  -3.973985  3.412882
H    -5.392616  -3.140822  3.548875
H    -4.469671  -3.553671  5.023995
Pb    1.730466  1.582199  2.662364
