37
Energy: -613505.302101 eV PBE+vdW (tier 2 basis)
C    -3.192018  -3.016340  1.648607
C    -2.581317  -1.774042  2.205045
O    -1.535291  -1.296677  1.669593
H    -2.462192  -3.834839  1.714501
H    -3.400505  -2.862629  0.581388
H    -4.113869  -3.310785  2.161026
N    -3.167380  -1.186186  3.268826
C    -2.694945  0.085240  3.793657
C    -1.634076  -0.107404  4.884696
O    -0.417831  -0.133373  4.503196
H    -4.005596  -1.617656  3.650203
H    -2.086523  0.466408  2.971506
C    -3.768371  1.195166  3.930028
C    -3.797620  1.898731  2.600309
C    -4.851363  2.036276  1.712386
C    -2.636214  2.399872  1.925768
N    -4.402878  2.584274  0.539827
C    -3.047925  2.805072  0.621302
C    -1.270346  2.572188  2.285387
C    -2.157664  3.320720  -0.321221
C    -0.379503  3.114216  1.327759
C    -0.813341  3.447336  0.037507
H    -3.469897  1.885953  4.734074
H    -4.753894  0.796209  4.205470
H    -5.899305  1.783289  1.839151
H    -4.990445  2.815029  -0.254580
H    -0.972334  2.560211  3.339389
H    -2.497299  3.630682  -1.309526
H    0.646095  3.347520  1.619817
H    -0.105150  3.861456  -0.677767
N    -1.979453  -0.244832  6.152363
C    -1.053092  -0.455902  7.268884
H    -2.970454  -0.192238  6.377201
H    -1.270949  -1.417112  7.749461
H    -1.175493  0.349523  8.002420
H    -0.029641  -0.458213  6.888076
Pb    0.212078  0.141855  2.241267
