37
Energy: -613504.811576 eV PBE+vdW (tier 2 basis)
C    -0.244283  1.667027  0.874582
C    -0.439497  1.088492  2.235352
O    0.195777  1.593911  3.221344
H    -0.542781  2.725113  0.901084
H    -0.821554  1.151937  0.099982
H    0.822613  1.645592  0.616212
N    -1.293306  0.073347  2.388845
C    -1.791301  -0.477863  3.660278
C    -0.803876  -1.494431  4.267097
O    0.267539  -1.076524  4.834766
H    -1.784714  -0.255806  1.556416
H    -1.810435  0.353169  4.384412
C    -3.237813  -0.960324  3.485411
C    -3.531779  -1.999574  2.434377
C    -2.707291  -2.616250  1.492396
C    -4.860435  -2.502413  2.197676
N    -3.459393  -3.457405  0.712165
C    -4.779302  -3.414442  1.113836
C    -6.109229  -2.262510  2.800145
C    -5.895668  -4.094189  0.618287
C    -7.224454  -2.935770  2.309453
C    -7.118446  -3.838236  1.235452
H    -3.846261  -0.063881  3.279280
H    -3.588059  -1.309931  4.470515
H    -1.638832  -2.539858  1.311128
H    -3.095926  -4.029186  -0.041812
H    -6.214277  -1.566668  3.632631
H    -5.818973  -4.791785  -0.214770
H    -8.198848  -2.762394  2.763049
H    -8.011377  -4.347600  0.876819
N    -1.097820  -2.775436  4.232495
C    -0.293445  -3.855480  4.802634
H    -1.950769  -3.031203  3.717137
H    0.503515  -3.435483  5.419589
H    0.143420  -4.458092  3.996103
H    -0.940736  -4.495154  5.413220
Pb    1.221012  0.951303  5.114415
