37
Energy: -613504.706515 eV PBE+vdW (tier 2 basis)
C    0.634299  -2.632429  -0.753189
C    0.290779  -2.435580  0.683717
O    0.245528  -3.455551  1.457161
H    0.980873  -1.712504  -1.237056
H    -0.283289  -2.958985  -1.269255
H    1.383172  -3.422938  -0.866268
N    0.066514  -1.186729  1.121452
C    -0.824523  -0.785219  2.222050
C    -0.128742  -0.747073  3.579150
O    0.480066  -1.761601  4.067946
H    0.129933  -0.483735  0.387482
H    -1.093778  0.244752  1.969427
C    -2.156670  -1.608132  2.274490
C    -2.679696  -1.934397  0.915018
C    -3.060726  -3.200129  0.484331
C    -2.868818  -1.046167  -0.201960
N    -3.465761  -3.140383  -0.815863
C    -3.364130  -1.836950  -1.277010
C    -2.686069  0.335749  -0.415710
C    -3.669757  -1.304288  -2.528127
C    -2.980677  0.872591  -1.664794
C    -3.464038  0.062928  -2.708525
H    -2.869796  -1.000513  2.855078
H    -2.023411  -2.535555  2.852284
H    -3.079279  -4.139721  1.027151
H    -3.844143  -3.919016  -1.344004
H    -2.369114  1.002902  0.388148
H    -4.063629  -1.924352  -3.332686
H    -2.856285  1.940696  -1.835866
H    -3.696142  0.514536  -3.671554
N    -0.178822  0.357203  4.303506
C    -0.812424  1.642606  3.980064
H    0.284994  0.286818  5.210576
H    -0.345497  2.102003  3.100074
H    -0.662257  2.311005  4.832106
H    -1.891374  1.524697  3.823740
Pb    0.724039  -3.942495  3.569530
