37
Energy: -613505.808631 eV PBE+vdW (tier 2 basis)
C    0.054520  1.224775  1.911547
C    -0.684695  0.068120  2.507605
O    -0.557777  -0.174631  3.742533
H    -0.097432  1.336070  0.833003
H    1.127239  1.097777  2.111483
H    -0.256597  2.148081  2.418305
N    -1.438467  -0.678346  1.683442
C    -2.187704  -1.924932  1.935186
C    -3.439891  -1.659394  2.783337
O    -3.392042  -1.193784  3.958242
H    -1.445442  -0.368139  0.715993
H    -2.536765  -2.202360  0.933598
C    -1.312393  -3.141081  2.438101
C    -1.595269  -3.677636  3.806888
C    -2.626391  -4.526643  4.158236
C    -0.882612  -3.395575  5.030506
N    -2.620557  -4.751166  5.514550
C    -1.579537  -4.073765  6.092219
C    0.325829  -2.704582  5.352081
C    -1.157278  -4.009844  7.427385
C    0.738961  -2.655606  6.686357
C    -0.004016  -3.284651  7.709938
H    -0.258027  -2.851176  2.348622
H    -1.459299  -3.946296  1.707213
H    -3.371618  -5.003297  3.529054
H    -3.258092  -5.372153  6.002689
H    0.940933  -2.261567  4.569483
H    -1.697318  -4.531711  8.217110
H    1.666523  -2.143351  6.938279
H    0.351484  -3.226687  8.737378
N    -4.609366  -1.949337  2.222463
C    -5.904530  -1.765026  2.879861
H    -4.616299  -2.258808  1.254717
H    -6.630616  -2.441788  2.420445
H    -6.251109  -0.729978  2.763080
H    -5.809463  -1.989767  3.946163
Pb    -1.718747  -0.908251  5.579098
