37
Energy: -613504.911425 eV PBE+vdW (tier 2 basis)
C    -1.806838  1.867578  0.997294
C    -1.150032  1.119325  2.109503
O    -0.060583  1.570402  2.587847
H    -1.132942  1.864420  0.129459
H    -2.771664  1.444731  0.699418
H    -1.942570  2.914314  1.299520
N    -1.740991  0.004030  2.554231
C    -1.290621  -0.961162  3.577071
C    -1.232417  -0.339719  4.980603
O    -0.229074  0.345065  5.371670
H    -2.588550  -0.259282  2.060063
H    -2.085779  -1.717574  3.592008
C    0.007849  -1.740803  3.234259
C    -0.006067  -2.457992  1.935793
C    -0.273053  -3.818690  1.785545
C    0.285053  -1.946877  0.621195
N    -0.206628  -4.148857  0.469726
C    0.142860  -3.037529  -0.280952
C    0.730194  -0.712927  0.111523
C    0.377711  -2.923223  -1.649715
C    0.979624  -0.593607  -1.254126
C    0.790830  -1.678927  -2.125959
H    0.167908  -2.447472  4.062842
H    0.897217  -1.054668  3.258103
H    -0.505012  -4.566722  2.537354
H    -0.367928  -5.078614  0.096527
H    0.909764  0.140605  0.764194
H    0.261074  -3.772235  -2.322250
H    1.335943  0.353580  -1.656946
H    0.987282  -1.553118  -3.189261
N    -2.233818  -0.591543  5.807402
C    -2.330079  -0.126859  7.193772
H    -3.011283  -1.143595  5.452992
H    -2.633421  -0.965690  7.829649
H    -3.080339  0.670603  7.267500
H    -1.358218  0.251490  7.517593
Pb    1.493597  1.203543  4.180549
