37
Energy: -613504.5871 eV PBE+vdW (tier 2 basis)
C    -0.954082  -0.168189  -0.506908
C    -0.845612  0.172960  0.940344
O    0.125722  0.907115  1.334050
H    -1.838360  -0.770596  -0.739297
H    -0.052717  -0.720926  -0.808055
H    -0.975368  0.755442  -1.100078
N    -1.744891  -0.304269  1.799867
C    -1.630411  -0.191554  3.258368
C    -2.259232  -1.395157  4.006305
O    -1.617702  -1.877050  4.932745
H    -2.431503  -0.957881  1.427878
H    -0.564011  -0.304638  3.491030
C    -2.157853  1.164134  3.827348
C    -1.106179  2.094792  4.369938
C    -1.094641  3.496538  4.222911
C    -0.073179  1.787484  5.355643
N    -0.147859  4.042180  5.057896
C    0.495285  3.043879  5.770818
C    0.366033  0.591418  5.985491
C    1.483654  3.135814  6.755348
C    1.337200  0.697317  6.965016
C    1.889581  1.945529  7.341813
H    -2.846430  0.947124  4.659275
H    -2.755188  1.677723  3.062869
H    -1.763769  4.129167  3.646113
H    0.010049  5.040247  5.175691
H    -0.082519  -0.374025  5.742018
H    1.894380  4.094885  7.068252
H    1.675647  -0.202659  7.476534
H    2.645651  1.973260  8.125563
N    -3.476361  -1.824495  3.597209
C    -4.164165  -2.933050  4.267580
H    -4.037762  -1.241044  2.984119
H    -3.419474  -3.670022  4.581723
H    -4.863674  -3.394981  3.564463
H    -4.710726  -2.584697  5.153722
Pb    1.029583  2.276546  2.872665
