37
Energy: -613504.623999 eV PBE+vdW (tier 2 basis)
C    1.742676  0.506873  0.809695
C    0.981951  0.336185  2.079799
O    1.593523  -0.078855  3.123050
H    1.112520  0.832757  -0.024065
H    2.235139  -0.439802  0.550583
H    2.540391  1.245790  0.970965
N    -0.320797  0.630657  2.109497
C    -1.129657  0.580005  3.318654
C    -1.318881  -0.871678  3.788295
O    -0.758632  -1.196612  4.908786
H    -0.792229  0.962864  1.260948
H    -0.528852  1.019255  4.129549
C    -2.382960  1.520278  3.219987
C    -3.157562  1.535490  1.946651
C    -2.821116  2.239711  0.789432
C    -4.437891  0.930877  1.697966
N    -3.801696  2.067738  -0.147087
C    -4.811886  1.277770  0.371873
C    -5.319368  0.152669  2.472368
C    -6.014639  0.862030  -0.203537
C    -6.520733  -0.261635  1.905779
C    -6.860691  0.084058  0.583960
H    -1.986870  2.525708  3.423098
H    -3.035606  1.279504  4.069871
H    -1.999928  2.927504  0.605233
H    -3.827566  2.527058  -1.050924
H    -5.087767  -0.102231  3.507937
H    -6.291092  1.143189  -1.219014
H    -7.221099  -0.849728  2.496854
H    -7.811667  -0.250660  0.172935
N    -1.966668  -1.813398  3.129684
C    -2.642761  -1.797724  1.835441
H    -1.966529  -2.713210  3.614963
H    -2.442500  -0.867408  1.301141
H    -3.728237  -1.880105  1.976625
H    -2.286412  -2.654050  1.250979
Pb    1.424086  -0.790878  5.276029
