37
Energy: -613504.814714 eV PBE+vdW (tier 2 basis)
C    -1.904169  1.646750  0.955777
C    -1.307610  0.944242  2.129735
O    -0.290560  1.454618  2.698079
H    -2.815664  1.169729  0.581579
H    -1.158831  1.674592  0.149064
H    -2.121837  2.686698  1.232888
N    -1.875330  -0.197049  2.539421
C    -1.449880  -1.109463  3.617378
C    -1.491963  -0.429720  4.993206
O    -0.479948  0.197588  5.459969
H    -2.648240  -0.527884  1.969327
H    -2.218066  -1.891418  3.622051
C    -0.110798  -1.854124  3.369572
C    -0.025344  -2.585743  2.082105
C    -0.239843  -3.954667  1.926259
C    0.341674  -2.075241  0.786328
N    -0.070356  -4.292028  0.621183
C    0.298330  -3.176222  -0.113244
C    0.784338  -0.831590  0.298814
C    0.629895  -3.064484  -1.462203
C    1.131474  -0.714695  -1.045501
C    1.040106  -1.811910  -1.918326
H    0.022302  -2.542313  4.217963
H    0.757326  -1.143307  3.431147
H    -0.500551  -4.704384  2.666843
H    -0.176933  -5.228929  0.246242
H    0.884086  0.033886  0.953443
H    0.589150  -3.921550  -2.133408
H    1.487206  0.240113  -1.430456
H    1.310614  -1.687750  -2.965437
N    -2.569563  -0.544091  5.752229
C    -3.836184  -1.221435  5.451129
H    -2.486605  -0.103701  6.670027
H    -4.238862  -0.895938  4.485441
H    -4.555734  -0.944197  6.226560
H    -3.717339  -2.312398  5.467997
Pb    1.241709  1.128013  4.329817
