37
Energy: -613504.810968 eV PBE+vdW (tier 2 basis)
C    0.000714  2.174076  0.821531
C    -0.071066  1.353098  2.063503
O    1.019196  1.135425  2.729359
H    0.681295  1.676418  0.115264
H    -0.976146  2.304613  0.345783
H    0.438448  3.155967  1.044265
N    -1.222414  0.841312  2.440180
C    -1.486069  -0.173287  3.454072
C    -2.816200  -0.821932  2.917265
O    -3.459851  -0.192408  2.076420
H    -2.083368  0.948780  1.858398
H    -0.671831  -0.910958  3.445999
C    -1.729015  0.401621  4.872758
C    -0.560499  0.676318  5.787280
C    -0.504338  1.772281  6.671953
C    0.445324  -0.266716  6.276508
N    0.423109  1.544261  7.649798
C    1.028797  0.313348  7.456586
C    0.890524  -1.552853  5.867052
C    2.003077  -0.338048  8.217995
C    1.854301  -2.193717  6.629118
C    2.398551  -1.598157  7.789153
H    -2.364534  -0.320719  5.411431
H    -2.340594  1.308882  4.772820
H    -1.136264  2.656062  6.695847
H    0.617533  2.177960  8.421445
H    0.472128  -2.043627  4.990271
H    2.419716  0.111777  9.118483
H    2.194741  -3.185906  6.336460
H    3.146016  -2.143982  8.363308
N    -3.167196  -2.004762  3.441496
C    -4.391400  -2.715713  3.063697
H    -2.528200  -2.473631  4.074880
H    -4.943036  -3.010376  3.963404
H    -4.149352  -3.609174  2.475246
H    -5.007731  -2.044268  2.460449
Pb    1.731579  1.552188  4.766525
