37
Energy: -613504.76351 eV PBE+vdW (tier 2 basis)
C    -0.120506  -0.682393  0.198465
C    -0.184348  -0.359087  1.651821
O    0.903697  -0.196826  2.307563
H    -1.112666  -0.795471  -0.251067
H    0.455380  -1.607003  0.056365
H    0.427218  0.116309  -0.320673
N    -1.378353  -0.233994  2.231721
C    -1.579385  0.213625  3.608420
C    -1.038132  -0.806902  4.622818
O    0.029498  -0.504239  5.278206
H    -2.207273  -0.228805  1.620411
H    -0.956299  1.110419  3.758347
C    -3.056534  0.669532  3.844658
C    -3.577113  1.471933  2.698960
C    -3.592647  2.855114  2.581361
C    -4.124921  0.947457  1.472138
N    -4.102007  3.201782  1.363215
C    -4.433974  2.065834  0.647808
C    -4.403087  -0.348252  0.987622
C    -4.981443  1.928924  -0.627605
C    -4.941296  -0.489146  -0.289738
C    -5.221712  0.634746  -1.087200
H    -3.066953  1.247191  4.777873
H    -3.701984  -0.201314  4.011065
H    -3.299988  3.615511  3.298362
H    -4.262264  4.153977  1.052617
H    -4.266712  -1.233570  1.613399
H    -5.221635  2.796129  -1.241734
H    -5.177803  -1.482249  -0.668641
H    -5.653923  0.492621  -2.076215
N    -1.618599  -1.963471  4.888376
C    -2.799183  -2.599243  4.297767
H    -1.148956  -2.494440  5.624569
H    -3.689056  -2.416478  4.913076
H    -2.616221  -3.678506  4.260292
H    -2.965950  -2.242771  3.278865
Pb    1.899099  0.252711  4.272596
