37
Energy: -613504.892951 eV PBE+vdW (tier 2 basis)
C    -0.103277  1.452059  -0.168233
C    -0.119465  1.117856  1.285002
O    0.721545  1.684579  2.063452
H    -0.280632  2.532158  -0.276433
H    -0.854931  0.906378  -0.747845
H    0.894983  1.253416  -0.580186
N    -1.031336  0.254342  1.739852
C    -1.376456  -0.043846  3.143980
C    -0.435866  -1.137508  3.682342
O    0.817540  -0.876768  3.813464
H    -1.660306  -0.141933  1.043340
H    -1.144728  0.856405  3.735915
C    -2.904106  -0.294656  3.205206
C    -3.442052  -0.711870  4.537877
C    -3.596341  0.069804  5.674983
C    -3.900766  -2.031611  4.879585
N    -4.099534  -0.697130  6.687973
C    -4.296340  -1.992318  6.246167
C    -4.026938  -3.244322  4.167477
C    -4.789830  -3.112142  6.914595
C    -4.509447  -4.366507  4.835819
C    -4.882779  -4.300959  6.190585
H    -3.169132  -1.057755  2.454995
H    -3.379104  0.637824  2.864060
H    -3.410275  1.128583  5.824896
H    -4.345418  -0.351333  7.608985
H    -3.807489  -3.305906  3.098600
H    -5.099398  -3.065079  7.958029
H    -4.628297  -5.304685  4.296106
H    -5.269468  -5.192918  6.680620
N    -0.885198  -2.326646  4.002404
C    -0.050483  -3.413254  4.520373
H    -1.900554  -2.483888  4.018077
H    -0.697164  -4.277020  4.694113
H    0.424280  -3.115408  5.463416
H    0.727909  -3.674669  3.794616
Pb    2.099884  0.963076  3.679093
