37
Energy: -613504.880092 eV PBE+vdW (tier 2 basis)
C    -1.631088  3.944100  4.070673
C    -1.346368  2.678460  3.335046
O    -0.652758  1.773581  3.912446
H    -2.252263  4.641242  3.499435
H    -2.135262  3.694521  5.014699
H    -0.683962  4.433744  4.334773
N    -1.838656  2.527123  2.103519
C    -1.887336  1.288768  1.316275
C    -0.524870  0.983077  0.666564
O    0.394134  0.399997  1.341098
H    -2.523278  3.228785  1.805254
H    -2.079677  0.453304  2.009161
C    -3.088246  1.388567  0.333951
C    -4.337668  1.829237  1.024680
C    -4.983783  3.047976  0.838483
C    -5.100819  1.098381  1.999108
N    -6.086013  3.101807  1.642816
C    -6.195341  1.927539  2.368302
C    -4.993670  -0.182472  2.573163
C    -7.161104  1.527615  3.292166
C    -5.954178  -0.587366  3.494567
C    -7.020229  0.258118  3.852147
H    -3.214345  0.405157  -0.142981
H    -2.868043  2.112207  -0.468277
H    -4.760351  3.854920  0.146491
H    -6.759450  3.859928  1.654009
H    -4.199219  -0.870526  2.278409
H    -7.998979  2.170459  3.559369
H    -5.895330  -1.581257  3.935382
H    -7.760312  -0.090862  4.570390
N    -0.322650  1.295761  -0.597512
C    0.911102  1.065672  -1.352825
H    -1.096909  1.725069  -1.099138
H    1.569189  0.405730  -0.784244
H    1.415292  2.022451  -1.539187
H    0.657965  0.601396  -2.312324
Pb    0.740471  0.067791  3.544110
