37
Energy: -613505.063191 eV PBE+vdW (tier 2 basis)
C    0.511798  0.662275  0.562526
C    -0.157752  0.119886  1.782839
O    0.369593  0.322422  2.945287
H    1.523541  0.237360  0.498591
H    -0.031426  0.428912  -0.358447
H    0.627417  1.751629  0.648525
N    -1.264166  -0.578660  1.648912
C    -1.994490  -1.373607  2.632215
C    -2.570528  -2.525368  1.736471
O    -2.670988  -2.308554  0.525935
H    -1.618493  -0.846716  0.703020
H    -1.301060  -1.755531  3.393475
C    -3.181226  -0.608342  3.294513
C    -2.867100  0.237887  4.491762
C    -3.137338  -0.102898  5.802387
C    -2.349841  1.580416  4.545105
N    -2.800154  0.925099  6.656766
C    -2.313494  1.975476  5.939309
C    -1.974440  2.541617  3.568899
C    -1.874604  3.245679  6.352424
C    -1.529222  3.811709  3.992696
C    -1.476669  4.152478  5.370397
H    -3.921802  -1.359805  3.599671
H    -3.675658  -0.009327  2.515873
H    -3.578544  -1.013174  6.197358
H    -2.934079  0.908915  7.663814
H    -2.065136  2.318821  2.505171
H    -1.865542  3.525825  7.405890
H    -1.265673  4.561467  3.246968
H    -1.141280  5.147083  5.659633
N    -2.948676  -3.648196  2.361993
C    -3.545828  -4.790771  1.667744
H    -2.748950  -3.747948  3.351777
H    -3.737332  -4.501995  0.631101
H    -4.489603  -5.070225  2.149832
H    -2.861503  -5.647699  1.683747
Pb    0.404247  1.854859  4.544822
