37
Energy: -613505.232194 eV PBE+vdW (tier 2 basis)
C    0.182143  -1.010212  0.624355
C    -0.776969  -0.387134  1.582562
O    -1.061233  0.843286  1.474079
H    -0.174102  -0.835582  -0.399613
H    1.154282  -0.506008  0.712129
H    0.315943  -2.085087  0.785153
N    -1.322068  -1.160979  2.546053
C    -2.343649  -0.642061  3.440372
C    -1.737836  -0.009590  4.702387
O    -1.567450  1.256658  4.673854
H    -1.056820  -2.141937  2.577687
H    -2.676693  0.252115  2.911748
C    -3.662779  -1.456245  3.514600
C    -4.535385  -0.932572  2.407496
C    -5.047531  -1.611642  1.314551
C    -4.835918  0.452493  2.195384
N    -5.635524  -0.726602  0.449988
C    -5.512328  0.551277  0.942813
C    -4.625418  1.643873  2.943649
C    -5.933779  1.770177  0.410636
C    -5.075156  2.873080  2.403221
C    -5.685239  2.933737  1.143005
H    -4.126951  -1.293278  4.499810
H    -3.495494  -2.537362  3.422553
H    -5.037480  -2.674626  1.094825
H    -6.112438  -0.983631  -0.407937
H    -4.386560  1.589138  4.010973
H    -6.456035  1.819779  -0.544856
H    -5.013869  3.779898  3.007845
H    -6.019573  3.893411  0.753230
N    -1.388860  -0.697914  5.774253
C    -1.477415  -2.138168  6.005770
H    -0.996421  -0.135998  6.532274
H    -2.176535  -2.344224  6.825563
H    -1.824526  -2.654041  5.107616
H    -0.487962  -2.524706  6.277355
Pb    -1.965366  2.579675  2.765619
