37
Energy: -613504.730203 eV PBE+vdW (tier 2 basis)
C    0.412606  -1.062952  0.305687
C    0.256218  -0.703147  1.743505
O    1.286436  -0.789999  2.525027
H    0.730071  -2.114302  0.244060
H    -0.513094  -0.935425  -0.264012
H    1.212953  -0.463949  -0.148015
N    -0.922444  -0.339129  2.199847
C    -1.354017  -0.182505  3.584754
C    -2.894650  -0.457853  3.475493
O    -3.416720  -0.329040  2.367546
H    -1.764590  -0.325129  1.586165
H    -0.857243  -0.939118  4.205378
C    -1.150090  1.250905  4.141022
C    0.174086  1.644546  4.748792
C    0.735016  2.930977  4.614634
C    0.866544  1.039133  5.887198
N    1.671081  3.143443  5.585549
C    1.789667  2.021262  6.389571
C    0.792385  -0.216644  6.549563
C    2.599012  1.798122  7.506443
C    1.598859  -0.429951  7.657039
C    2.482930  0.563595  8.132414
H    -1.900981  1.408061  4.932162
H    -1.415873  1.960435  3.345421
H    0.451525  3.724160  3.927968
H    2.188361  4.010475  5.710348
H    0.099839  -0.988320  6.219933
H    3.277888  2.562967  7.881968
H    1.542375  -1.381498  8.183705
H    3.088097  0.356312  9.013926
N    -3.570690  -0.776020  4.593511
C    -3.036448  -1.114688  5.908215
H    -4.568031  -0.911347  4.439800
H    -3.877049  -1.361094  6.563066
H    -2.502190  -0.272727  6.370365
H    -2.379819  -1.995800  5.869059
Pb    2.425548  0.643710  3.745097
