20
Energy: -21829.2157155 eV PBE+vdW (tier 2 basis)
N    0.226108  -0.173993  0.067454
C    -0.151799  -0.442711  1.450429
C    0.960442  -1.137739  2.233786
O    0.848133  -1.478026  3.397400
H    0.523962  -1.025713  -0.407654
H    -0.560577  0.217172  -0.449862
H    -0.232230  0.534421  1.960556
C    -1.512339  -1.148426  1.689947
C    -1.769335  -2.407891  0.861333
S    -0.542073  -3.748813  0.999295
C    -0.776579  -4.284026  2.717227
H    -2.311435  -0.426273  1.452974
H    -1.601669  -1.364088  2.763856
H    -1.773952  -2.174095  -0.213190
H    -2.763915  -2.813201  1.098702
H    -0.158256  -5.180536  2.842501
H    -1.824940  -4.552264  2.900850
H    -0.441497  -3.518151  3.426599
O    2.118713  -1.268636  1.541914
H    2.738030  -1.706602  2.157338
