20
Energy: -21829.1473432 eV PBE+vdW (tier 2 basis)
N    0.486356  0.067862  -0.083721
C    0.028254  0.014533  1.303620
C    1.194643  -0.228010  2.248219
O    1.290916  0.225030  3.370257
H    0.873431  -0.831039  -0.373918
H    -0.301486  0.273423  -0.698489
H    -0.369640  1.002613  1.573753
C    -1.079770  -1.039727  1.597538
C    -1.762391  -0.900963  2.959710
S    -2.867851  0.557176  2.971111
C    -3.026933  0.815716  4.758449
H    -0.649346  -2.049710  1.504927
H    -1.829591  -0.949068  0.795253
H    -1.017184  -0.770021  3.756887
H    -2.351490  -1.801013  3.184084
H    -3.683975  1.682638  4.893395
H    -2.051064  1.033400  5.210565
H    -3.484406  -0.052844  5.248998
O    2.113899  -1.089324  1.726377
H    2.795298  -1.202048  2.416969
