20
Energy: -21829.2272764 eV PBE+vdW (tier 2 basis)
N    -0.881328  1.011741  1.475662
C    -0.436608  0.116628  2.549712
C    0.870052  0.571033  3.203784
O    0.993321  0.933639  4.355371
H    -1.008427  1.961118  1.828046
H    -0.176626  1.058155  0.737831
H    -1.186610  0.161547  3.352127
C    -0.344032  -1.323673  2.021253
C    0.030719  -2.342039  3.097506
S    0.163331  -4.061265  2.509148
C    -1.579079  -4.457692  2.189910
H    0.390176  -1.370368  1.203434
H    -1.325405  -1.558151  1.585916
H    -0.675700  -2.309805  3.941265
H    1.027430  -2.129792  3.511363
H    -2.185144  -4.329888  3.096298
H    -1.603395  -5.513857  1.897289
H    -1.997642  -3.860094  1.371160
O    1.915904  0.558673  2.323092
H    2.688449  0.891214  2.819283
