20
Energy: -21829.2645177 eV PBE+vdW (tier 2 basis)
N    0.149028  -0.239589  0.219103
C    -0.184837  -0.332598  1.638942
C    1.095445  -0.299932  2.470440
O    2.202297  -0.065400  2.031466
H    1.147430  -0.040836  0.127039
H    -0.361458  0.516391  -0.230282
H    -0.739395  0.558938  1.989214
C    -1.100358  -1.544709  1.933021
C    -0.583597  -2.879129  1.398469
S    0.932032  -3.533777  2.168977
C    0.343044  -3.910409  3.843079
H    -2.065117  -1.342813  1.439848
H    -1.309680  -1.594921  3.010563
H    -0.315113  -2.761836  0.339826
H    -1.369816  -3.645334  1.463206
H    -0.512279  -4.598327  3.815884
H    0.078096  -3.000563  4.395486
H    1.174249  -4.405244  4.359143
O    0.847578  -0.449181  3.802184
H    1.719107  -0.387402  4.237650
