20
Energy: -21829.4201038 eV PBE+vdW (tier 2 basis)
N    1.131882  0.536274  0.454136
C    0.489637  0.102799  1.710188
C    1.566741  0.030825  2.824781
O    2.738660  0.567944  2.452548
H    0.546867  1.186686  -0.065900
H    1.326458  -0.277142  -0.142386
H    -0.183777  0.911134  2.037104
C    -0.340948  -1.191344  1.656395
C    0.431677  -2.486992  1.392251
S    1.197738  -2.695880  -0.259205
C    -0.275765  -2.847351  -1.308037
H    -1.148781  -1.064588  0.919902
H    -0.828152  -1.304003  2.636407
H    -0.222553  -3.353552  1.564238
H    1.272172  -2.583251  2.093941
H    0.085614  -3.041547  -2.324351
H    -0.874226  -1.928100  -1.318362
H    -0.897033  -3.692740  -0.985928
O    1.359380  -0.440264  3.922796
H    2.564163  0.835344  1.499072
