20
Energy: -21829.3120453 eV PBE+vdW (tier 2 basis)
N    -0.665320  0.052670  0.122965
C    0.041440  0.740585  1.223627
C    1.413343  0.061540  1.449215
O    1.539494  -1.111508  0.799820
H    -0.543743  0.545109  -0.760679
H    -1.667272  -0.011647  0.299193
H    0.255966  1.792384  0.980567
C    -0.764647  0.722831  2.534831
C    -1.009103  -0.676354  3.104106
S    -2.107318  -0.544289  4.552128
C    -2.148110  -2.280277  5.069007
H    -1.725440  1.232633  2.357167
H    -0.217007  1.323449  3.273064
H    -0.057867  -1.132935  3.414280
H    -1.478500  -1.341445  2.363526
H    -2.796957  -2.328672  5.951085
H    -1.147791  -2.636662  5.345857
H    -2.569866  -2.922554  4.285071
O    2.273431  0.529896  2.160333
H    0.677268  -1.188754  0.298839
