20
Energy: -21829.2632794 eV PBE+vdW (tier 2 basis)
N    -1.592603  -0.570512  -0.707063
C    -2.083526  -0.588998  0.665617
C    -1.156182  0.131916  1.649849
O    -0.003179  0.441882  1.432791
H    -1.718643  0.358704  -1.108258
H    -0.583202  -0.731757  -0.712212
H    -3.049463  -0.063267  0.695765
C    -2.354639  -2.035947  1.152344
C    -1.111419  -2.924573  1.172357
S    -1.415517  -4.628491  1.742550
C    -1.694313  -4.356245  3.515419
H    -3.100623  -2.472655  0.475447
H    -2.803859  -1.985711  2.153727
H    -0.305760  -2.491268  1.785023
H    -0.713097  -3.052471  0.156264
H    -2.597821  -3.764996  3.708339
H    -0.825025  -3.874931  3.982238
H    -1.827649  -5.349129  3.960580
O    -1.772820  0.380205  2.840589
H    -1.105332  0.816291  3.405748
