20
Energy: -21829.2059767 eV PBE+vdW (tier 2 basis)
N    -0.289483  0.552512  0.284470
C    -0.147320  0.148017  1.681788
C    1.341731  0.003459  1.960822
O    2.147056  -0.464440  1.183821
H    0.317248  -0.029912  -0.296461
H    -1.249078  0.409177  -0.030091
H    -0.536133  0.949606  2.328633
C    -0.878243  -1.177753  2.044358
C    -0.866038  -1.542781  3.528764
S    -1.816527  -3.041255  3.950644
C    -3.518921  -2.453385  3.726177
H    -0.446363  -1.997614  1.451644
H    -1.917873  -1.053188  1.703856
H    -1.227810  -0.708059  4.148639
H    0.151633  -1.771949  3.872849
H    -3.740421  -2.207020  2.680437
H    -3.726013  -1.587181  4.368104
H    -4.170508  -3.280375  4.031533
O    1.677339  0.425737  3.209705
H    2.635078  0.252829  3.304457
