20
Energy: -21829.2506315 eV PBE+vdW (tier 2 basis)
N    2.168697  -0.499006  3.809561
C    1.090857  -1.243009  3.140328
C    1.654293  -2.150201  2.045504
O    1.867667  -3.339015  2.159133
H    2.838988  -1.144241  4.229100
H    2.682068  0.072561  3.136121
H    0.642744  -1.921626  3.878582
C    0.018954  -0.272943  2.639697
C    -1.222521  -0.942106  2.044234
S    -2.175221  -2.016402  3.169927
C    -2.844985  -0.791507  4.327378
H    0.452858  0.391309  1.875014
H    -0.255266  0.369301  3.488734
H    -0.951880  -1.603901  1.208347
H    -1.900584  -0.179969  1.633736
H    -2.059224  -0.310077  4.922210
H    -3.506711  -1.341292  5.006736
H    -3.435178  -0.030071  3.800543
O    1.979322  -1.456592  0.908775
H    2.393124  -2.109213  0.311340
