20
Energy: -21829.2567038 eV PBE+vdW (tier 2 basis)
N    -0.396233  -0.024139  0.301572
C    -0.069053  -0.138084  1.724021
C    1.370172  -0.609071  1.949910
O    1.872126  -1.585246  1.430216
H    0.180142  0.693560  -0.139935
H    -0.173781  -0.904273  -0.169214
H    -0.180669  0.855443  2.181074
C    -1.048729  -1.118741  2.396358
C    -0.851829  -1.256436  3.905125
S    -2.070042  -2.327290  4.736428
C    -1.562534  -3.963034  4.134067
H    -0.934657  -2.098787  1.907801
H    -2.065133  -0.765082  2.178566
H    -0.966695  -0.281919  4.401790
H    0.155412  -1.623623  4.154135
H    -0.513979  -4.168189  4.385697
H    -1.716424  -4.073367  3.054039
H    -2.198016  -4.690181  4.652763
O    2.053574  0.202594  2.806309
H    2.949474  -0.181357  2.888722
