20
Energy: -21829.3050641 eV PBE+vdW (tier 2 basis)
N    2.008278  -2.612341  2.552969
C    1.592695  -1.247102  2.249852
C    2.500430  -0.186147  2.874559
O    3.169316  -0.342464  3.875224
H    2.237350  -2.676459  3.547852
H    2.868907  -2.838372  2.053959
H    1.615755  -1.106535  1.158335
C    0.146150  -0.999091  2.742526
C    -0.871298  -1.852666  1.986060
S    -2.581103  -1.704741  2.593082
C    -2.488719  -2.675179  4.122682
H    -0.108258  0.063892  2.632828
H    0.113444  -1.226103  3.819617
H    -0.572365  -2.909272  1.995272
H    -0.925904  -1.537290  0.933764
H    -1.816024  -2.221667  4.861040
H    -2.176142  -3.706889  3.916712
H    -3.502362  -2.689420  4.539938
O    2.455816  0.991485  2.190715
H    3.022034  1.616360  2.685015
