20
Energy: -21829.1931578 eV PBE+vdW (tier 2 basis)
N    -0.475016  -1.213846  0.824029
C    0.434901  -0.264973  1.457952
C    1.816046  -0.796847  1.882564
O    2.593116  -0.207106  2.604925
H    -0.555808  -2.048252  1.409039
H    -0.087726  -1.532472  -0.063241
H    0.684694  0.500104  0.702286
C    -0.244619  0.487429  2.623853
C    -1.076448  -0.386038  3.561608
S    -0.082906  -1.692117  4.369395
C    -1.426687  -2.711276  5.032993
H    -0.926835  1.232849  2.190913
H    0.527757  1.033106  3.181719
H    -1.884509  -0.873385  2.997318
H    -1.536932  0.242962  4.336599
H    -2.029819  -2.148485  5.757064
H    -0.957826  -3.557555  5.548142
H    -2.072238  -3.095947  4.232648
O    2.127333  -1.983462  1.287930
H    3.026522  -2.200690  1.601265
