20
Energy: -21829.2284599 eV PBE+vdW (tier 2 basis)
N    0.116912  -0.999190  -0.506879
C    -0.250343  -0.348071  0.751956
C    0.944412  -0.225635  1.702291
O    1.675166  -1.143366  2.019354
H    0.765595  -0.413574  -1.033893
H    0.609398  -1.873295  -0.308247
H    -0.617954  0.661632  0.526835
C    -1.368015  -1.156903  1.434772
C    -1.936164  -0.538870  2.711592
S    -2.875235  0.984820  2.338556
C    -3.226080  1.543563  4.026546
H    -0.971067  -2.155553  1.677356
H    -2.162604  -1.300882  0.688926
H    -1.134835  -0.292352  3.425271
H    -2.609149  -1.256341  3.201795
H    -2.300011  1.767888  4.571720
H    -3.814405  0.799938  4.579742
H    -3.815275  2.463507  3.937790
O    1.122206  1.045340  2.158684
H    1.904461  1.014411  2.745394
