20
Energy: -21829.4371881 eV PBE+vdW (tier 2 basis)
N    0.145540  -2.013444  2.679722
C    -0.073950  -1.288622  1.414273
C    1.261425  -0.700002  0.911568
O    1.343256  0.051350  -0.036003
H    -0.376735  -2.887274  2.706488
H    -0.141994  -1.456866  3.485426
H    -0.367598  -2.036506  0.657822
C    -1.167816  -0.219149  1.448198
C    -2.584004  -0.775893  1.623097
S    -3.075161  -2.077460  0.444802
C    -2.955372  -1.188517  -1.132725
H    -1.093029  0.367269  0.522937
H    -0.963391  0.489963  2.269433
H    -3.317949  0.041515  1.578755
H    -2.705616  -1.258795  2.604232
H    -3.320288  -1.879748  -1.900972
H    -1.922783  -0.908610  -1.373538
H    -3.594424  -0.296265  -1.128512
O    2.328179  -1.132019  1.608604
H    1.920710  -1.720926  2.306392
