20
Energy: -21829.1710206 eV PBE+vdW (tier 2 basis)
N    0.413194  -0.654782  -0.123985
C    0.020403  -0.464534  1.274121
C    1.224971  -0.666045  2.183710
O    1.512710  0.032704  3.131538
H    -0.387531  -0.486731  -0.734039
H    0.714668  -1.617608  -0.280590
H    -0.262865  0.589580  1.404961
C    -1.157972  -1.358727  1.753646
C    -1.641353  -1.067553  3.174626
S    -3.041137  -2.096158  3.729078
C    -4.391507  -1.429690  2.715665
H    -0.869655  -2.417022  1.667521
H    -1.978824  -1.195026  1.038314
H    -1.910895  -0.007100  3.294392
H    -0.852714  -1.273805  3.911357
H    -4.247863  -1.628437  1.646442
H    -4.516313  -0.351986  2.883938
H    -5.302592  -1.943645  3.043522
O    1.934099  -1.780889  1.847376
H    2.666408  -1.838991  2.490984
