20
Energy: -21829.3310607 eV PBE+vdW (tier 2 basis)
N    0.106438  0.443555  0.362408
C    0.207044  -0.089387  1.736877
C    1.658705  -0.573824  1.990581
O    2.506427  -0.245059  0.999457
H    -0.432945  1.305247  0.320496
H    -0.339165  -0.228744  -0.262828
H    0.067180  0.753164  2.434264
C    -0.800430  -1.194301  2.086163
C    -2.238460  -0.685881  2.178667
S    -3.480195  -1.952339  2.590547
C    -3.536742  -2.899953  1.045610
H    -0.500191  -1.646190  3.040013
H    -0.718904  -1.990126  1.327132
H    -2.555651  -0.179830  1.252933
H    -2.326941  0.051064  2.990994
H    -4.323459  -3.651926  1.176855
H    -2.592621  -3.419830  0.842048
H    -3.805038  -2.258184  0.195788
O    1.995248  -1.166073  2.990971
H    1.916702  0.223616  0.341025
