20
Energy: -21829.2405414 eV PBE+vdW (tier 2 basis)
N    2.329755  -0.108067  3.228943
C    1.495386  -1.305103  3.065712
C    1.552076  -1.860973  1.641690
O    2.082334  -2.900998  1.310402
H    3.301557  -0.312797  2.993409
H    2.017380  0.632054  2.598200
H    1.923260  -2.095552  3.698595
C    0.059827  -1.007936  3.523097
C    -0.857694  -2.228781  3.461152
S    -2.553499  -1.941292  4.057984
C    -3.221936  -0.908710  2.725172
H    -0.347049  -0.195733  2.901976
H    0.113103  -0.629116  4.552647
H    -0.476190  -3.031526  4.108881
H    -0.914576  -2.643773  2.442916
H    -2.722265  0.065665  2.664075
H    -4.278319  -0.743117  2.966764
H    -3.158466  -1.422987  1.757349
O    0.968224  -1.016546  0.736018
H    1.100090  -1.431711  -0.137984
