20
Energy: -21829.062649 eV PBE+vdW (tier 2 basis)
N    -0.476021  0.950596  0.485764
C    -0.078360  0.141925  1.644290
C    1.451183  -0.151573  1.636578
O    2.220964  0.702663  1.248341
H    -0.450146  0.374870  -0.359831
H    0.244300  1.663319  0.343523
H    -0.194770  0.791649  2.529958
C    -1.064540  -1.020632  1.837335
C    -0.930092  -2.194655  0.848313
S    -0.151544  -3.608539  1.713706
C    0.664681  -4.475574  0.345925
H    -2.066357  -0.580516  1.743794
H    -0.997716  -1.398242  2.869126
H    -0.294454  -1.934476  -0.011184
H    -1.904391  -2.510252  0.456914
H    1.174523  -5.341304  0.783569
H    1.406774  -3.829144  -0.138191
H    -0.070902  -4.829481  -0.385843
O    1.927964  -1.315341  2.126475
H    1.230203  -2.022024  2.215118
