20
Energy: -21829.332639 eV PBE+vdW (tier 2 basis)
N    -0.599868  0.052312  0.221749
C    -0.420153  -0.047630  1.686643
C    1.092440  -0.012290  2.022422
O    1.877980  0.036090  0.933422
H    -1.078537  0.910423  -0.042279
H    -1.139479  -0.727047  -0.151584
H    -0.851703  0.836236  2.179392
C    -1.066046  -1.295061  2.315686
C    -0.503613  -2.618998  1.790785
S    -1.241945  -4.099405  2.554506
C    -0.519744  -4.022771  4.218707
H    -2.154043  -1.261880  2.156729
H    -0.895430  -1.228585  3.398032
H    0.588233  -2.663575  1.919049
H    -0.703574  -2.754025  0.717265
H    -0.854754  -4.928931  4.736586
H    -0.867402  -3.149144  4.782475
H    0.576262  -4.024963  4.171565
O    1.515475  -0.033216  3.157713
H    1.214898  0.048355  0.181528
