20
Energy: -21829.2724482 eV PBE+vdW (tier 2 basis)
N    2.620739  -0.704546  3.621164
C    1.625671  -1.706929  3.235896
C    1.689737  -2.040485  1.742921
O    1.678504  -1.221444  0.846255
H    3.564537  -1.067366  3.480346
H    2.531260  0.113169  3.013633
H    1.830081  -2.626795  3.802047
C    0.218191  -1.192933  3.593971
C    -0.900233  -2.193237  3.305843
S    -2.559784  -1.646848  3.819062
C    -2.888355  -0.341107  2.603593
H    0.046526  -0.260469  3.034273
H    0.227276  -0.932941  4.660707
H    -0.738981  -3.126778  3.864555
H    -0.941209  -2.463991  2.239745
H    -2.215691  0.516599  2.723304
H    -3.916022  -0.005645  2.785541
H    -2.820652  -0.729112  1.578935
O    1.773331  -3.382058  1.513929
H    1.803074  -3.491085  0.542282
