20
Energy: -21829.185836 eV PBE+vdW (tier 2 basis)
N    0.076329  -1.774334  1.120642
C    0.899588  -0.858917  1.897515
C    2.166235  -0.565911  1.100731
O    2.327151  -0.835868  -0.070761
H    -0.904660  -1.698537  1.385221
H    0.182857  -1.586090  0.123932
H    0.441964  0.148612  2.030878
C    1.195108  -1.407670  3.309890
C    0.054357  -1.233306  4.313900
S    -1.415046  -2.259699  3.942019
C    -2.506598  -1.677459  5.265545
H    2.064992  -0.879672  3.723108
H    1.465422  -2.469240  3.212101
H    -0.259162  -0.177612  4.346709
H    0.409810  -1.507804  5.317970
H    -2.077681  -1.885170  6.254737
H    -3.446763  -2.232174  5.166499
H    -2.717477  -0.604197  5.170490
O    3.102963  0.100730  1.832103
H    3.839610  0.277319  1.215772
