20
Energy: -21829.1763661 eV PBE+vdW (tier 2 basis)
N    2.657290  -2.014319  2.380271
C    1.287502  -1.496571  2.523070
C    1.047540  -0.393683  1.500569
O    0.501300  0.670720  1.700253
H    2.828685  -2.298174  1.415646
H    2.760642  -2.848314  2.959421
H    0.514762  -2.265053  2.300364
C    1.059271  -1.024885  3.960898
C    -0.390154  -0.726299  4.356750
S    -1.566396  -2.114244  4.154455
C    -2.353762  -1.705331  2.570160
H    1.674326  -0.131428  4.148205
H    1.447198  -1.816765  4.620162
H    -0.785432  0.134737  3.804671
H    -0.422512  -0.470864  5.424168
H    -2.792999  -0.700810  2.600735
H    -3.157468  -2.438074  2.430516
H    -1.661404  -1.777589  1.722414
O    1.487027  -0.763136  0.261428
H    1.284583  -0.011921  -0.329158
