20
Energy: -21829.2084331 eV PBE+vdW (tier 2 basis)
N    2.859751  -2.010659  1.861881
C    1.529160  -1.452409  2.134057
C    1.559808  0.074812  2.216400
O    1.115027  0.837747  1.384633
H    3.523433  -1.725404  2.584106
H    3.217502  -1.665820  0.970737
H    0.885672  -1.683146  1.275021
C    0.942464  -2.095217  3.397653
C    -0.486615  -1.660592  3.725077
S    -1.669337  -2.355944  2.518720
C    -3.159126  -1.439106  2.986718
H    1.586907  -1.852590  4.256573
H    0.992013  -3.185543  3.262400
H    -0.577806  -0.563191  3.711987
H    -0.761549  -2.005119  4.731844
H    -3.024458  -0.359891  2.837773
H    -3.443457  -1.640905  4.027691
H    -3.963050  -1.788370  2.328575
O    2.215710  0.517821  3.335441
H    2.232953  1.491525  3.263714
