20
Energy: -21829.2290001 eV PBE+vdW (tier 2 basis)
N    -0.171784  -0.016467  -0.000792
C    -0.769946  -0.258832  1.318993
C    0.063509  0.374258  2.433492
O    -0.234027  1.373160  3.057759
H    0.771922  -0.404648  -0.044143
H    -0.096058  0.984605  -0.183513
H    -1.739766  0.256491  1.340857
C    -1.000347  -1.758824  1.518360
C    -1.709697  -2.151276  2.817147
S    -3.440079  -1.569470  2.978235
C    -3.262686  -0.110324  4.048330
H    -0.030377  -2.282139  1.479192
H    -1.585948  -2.105321  0.655329
H    -1.155809  -1.818052  3.707047
H    -1.763922  -3.246250  2.876533
H    -2.822470  -0.386126  5.014880
H    -4.282161  0.254869  4.221594
H    -2.671988  0.687642  3.585721
O    1.249051  -0.278957  2.630062
H    1.727422  0.235252  3.308760
