20
Energy: -21829.2630042 eV PBE+vdW (tier 2 basis)
N    0.690438  -2.321147  0.788773
C    1.018547  -1.473731  1.931484
C    2.390012  -1.687390  2.576875
O    3.056172  -0.817486  3.098375
H    0.770326  -3.306668  1.042959
H    1.341064  -2.161915  0.020177
H    1.027167  -0.427468  1.590542
C    -0.057418  -1.614207  3.033365
C    -1.425193  -1.117741  2.564923
S    -2.789629  -1.434355  3.722513
C    -2.368074  -0.318942  5.089941
H    0.273920  -1.051619  3.917492
H    -0.131182  -2.671196  3.333131
H    -1.715427  -1.637303  1.642459
H    -1.392565  -0.041383  2.334747
H    -2.279992  0.718082  4.740351
H    -1.446883  -0.619537  5.603650
H    -3.198747  -0.379330  5.802768
O    2.787364  -2.993552  2.538164
H    3.644101  -3.024111  3.006313
