20
Energy: -21829.2250951 eV PBE+vdW (tier 2 basis)
N    -0.330037  0.798891  0.432904
C    -0.004353  0.061904  1.668900
C    1.498648  -0.214864  1.720361
O    2.311496  0.470341  2.304776
H    -0.089029  0.234591  -0.384627
H    0.231627  1.650161  0.376963
H    -0.203209  0.739142  2.511799
C    -0.908045  -1.169535  1.782909
C    -1.004760  -1.779937  3.182133
S    0.530661  -2.449008  3.906328
C    0.815732  -3.886650  2.837765
H    -0.599814  -1.929785  1.049691
H    -1.916194  -0.841843  1.483831
H    -1.766859  -2.573005  3.193702
H    -1.326678  -1.018707  3.908027
H    -0.046476  -4.566227  2.852164
H    1.683107  -4.411689  3.254702
H    1.046862  -3.586155  1.808921
O    1.869694  -1.242767  0.891429
H    2.844680  -1.269038  0.935160
