20
Energy: -21829.3735642 eV PBE+vdW (tier 2 basis)
N    0.570675  -1.242561  -0.052566
C    0.216356  -0.709978  1.277189
C    1.523657  -0.379999  2.044441
O    1.559677  -0.127316  3.228455
H    -0.140908  -1.000397  -0.742004
H    0.612533  -2.263248  -0.028492
H    -0.257476  0.272881  1.112221
C    -0.725373  -1.568268  2.132044
C    -2.207650  -1.457616  1.781222
S    -2.589447  -2.038862  0.087568
C    -4.387366  -1.817545  0.096237
H    -0.599522  -1.252369  3.177721
H    -0.398762  -2.620327  2.082695
H    -2.541120  -0.412570  1.875991
H    -2.796370  -2.064004  2.484633
H    -4.858323  -2.438593  0.869095
H    -4.750361  -2.139238  -0.886510
H    -4.658228  -0.764788  0.247057
O    2.606379  -0.362780  1.248112
H    2.237630  -0.633422  0.356891
