20
Energy: -21829.1442484 eV PBE+vdW (tier 2 basis)
N    0.105248  -1.203534  0.669958
C    0.885839  -0.513359  1.700171
C    2.345215  -0.356476  1.280882
O    3.287156  -0.267051  2.037134
H    -0.891745  -1.080928  0.842944
H    0.301354  -0.812903  -0.250674
H    0.555085  0.538761  1.863286
C    0.799858  -1.238770  3.049956
C    -0.611929  -1.225102  3.631391
S    -0.592799  -1.971235  5.294343
C    -2.362120  -1.915308  5.679458
H    1.497081  -0.754351  3.746615
H    1.137919  -2.275808  2.912527
H    -1.305840  -1.804174  3.003253
H    -0.989799  -0.192393  3.707101
H    -2.738050  -0.883838  5.691158
H    -2.478757  -2.342713  6.682118
H    -2.946079  -2.516806  4.970441
O    2.482210  -0.258326  -0.073179
H    3.436155  -0.123686  -0.233882
