20
Energy: -21829.1924944 eV PBE+vdW (tier 2 basis)
N    0.108081  -0.370029  -0.381223
C    -0.077932  -0.386341  1.064393
C    1.225760  -0.831116  1.714149
O    2.141917  -1.380859  1.133975
H    -0.757921  -0.571615  -0.876897
H    0.813364  -1.057288  -0.649807
H    -0.242557  0.644925  1.423189
C    -1.299222  -1.199430  1.571669
C    -1.326312  -2.690008  1.227544
S    -0.248484  -3.731598  2.285676
C    0.910445  -4.431676  1.076373
H    -2.192019  -0.726958  1.127242
H    -1.392269  -1.061172  2.658666
H    -1.034711  -2.863297  0.182471
H    -2.350733  -3.068553  1.340120
H    1.532368  -3.649591  0.625371
H    0.381903  -5.008110  0.307224
H    1.555745  -5.115352  1.641086
O    1.275462  -0.489124  3.025869
H    2.112022  -0.856105  3.370111
