20
Energy: -21829.3467197 eV PBE+vdW (tier 2 basis)
N    -0.566507  0.052085  0.072145
C    -0.311672  -0.207012  1.502962
C    1.188421  0.031646  1.790325
O    1.819584  0.689588  0.800038
H    -1.482021  0.473666  -0.073624
H    -0.538068  -0.811941  -0.471077
H    -0.848198  0.568923  2.076662
C    -0.795681  -1.572992  2.018752
C    -1.008635  -1.639263  3.536071
S    -2.268611  -0.496923  4.193267
C    -3.793499  -1.251401  3.558065
H    -0.072213  -2.354735  1.734583
H    -1.738599  -1.814359  1.503897
H    -0.082657  -1.363027  4.055662
H    -1.271807  -2.662299  3.840723
H    -4.622629  -0.658922  3.961829
H    -3.895735  -2.286262  3.909687
H    -3.849591  -1.223752  2.462710
O    1.743282  -0.311942  2.812181
H    1.110174  0.789199  0.102739
