20
Energy: -21829.2083197 eV PBE+vdW (tier 2 basis)
N    -0.631747  0.364901  0.463270
C    0.077986  0.425008  1.739662
C    1.607079  0.398250  1.659823
O    2.354299  1.062151  2.346779
H    -0.350710  -0.465805  -0.059714
H    -0.400635  1.171157  -0.116694
H    -0.162600  1.385277  2.218789
C    -0.382140  -0.716485  2.672064
C    -1.856578  -0.592578  3.046936
S    -2.351198  -2.032604  4.052193
C    -4.110058  -1.655103  4.281315
H    0.239029  -0.709552  3.579646
H    -0.202576  -1.680085  2.168981
H    -2.474736  -0.549778  2.140621
H    -2.026975  0.327201  3.627280
H    -4.530570  -2.469639  4.882336
H    -4.637987  -1.615279  3.319825
H    -4.248478  -0.709929  4.822053
O    2.060443  -0.489855  0.725950
H    3.035223  -0.454749  0.775603
