20
Energy: -21829.1938155 eV PBE+vdW (tier 2 basis)
N    1.815810  -1.885348  0.031148
C    0.481123  -1.510703  0.517921
C    0.663121  -0.170559  1.227885
O    0.061157  0.857738  0.572864
H    1.755741  -2.744425  -0.515697
H    2.433458  -2.070531  0.823896
H    -0.158345  -1.357759  -0.361446
C    -0.177325  -2.531536  1.464411
C    -1.612480  -2.222005  1.902112
S    -2.876428  -2.316054  0.580207
C    -3.111505  -0.571799  0.134278
H    0.454343  -2.620417  2.364083
H    -0.160310  -3.508785  0.958585
H    -1.691873  -1.236088  2.383164
H    -1.925711  -2.958982  2.653609
H    -3.441939  0.012762  1.002274
H    -3.910385  -0.561490  -0.616952
H    -2.212041  -0.119623  -0.296518
O    1.281617  -0.019211  2.260761
H    0.262971  1.662814  1.090416
