20
Energy: -21829.2113824 eV PBE+vdW (tier 2 basis)
N    0.315500  -2.061645  0.347246
C    0.686239  -0.981664  1.252982
C    2.114433  -0.571023  0.929767
O    2.963982  -1.309304  0.477923
H    1.096649  -2.714501  0.259875
H    -0.493488  -2.574464  0.693887
H    0.039068  -0.110011  1.061337
C    0.621980  -1.296353  2.775759
C    -0.800517  -1.579237  3.251347
S    -0.786506  -1.933224  5.039227
C    -2.545717  -2.280646  5.299829
H    1.025139  -0.439294  3.336199
H    1.269725  -2.161474  2.985743
H    -1.228942  -2.450681  2.731620
H    -1.450224  -0.711342  3.058837
H    -2.664944  -2.510871  6.364861
H    -2.873949  -3.148479  4.713037
H    -3.166560  -1.408862  5.056107
O    2.355142  0.727638  1.253770
H    3.301990  0.881437  1.067646
