20
Energy: -21829.1718187 eV PBE+vdW (tier 2 basis)
N    2.193208  -2.309718  1.799909
C    1.449268  -1.051313  1.687888
C    2.358360  0.152959  1.917657
O    2.003779  1.230445  2.342755
H    3.066969  -2.256972  1.277823
H    1.650768  -3.074832  1.400585
H    1.048405  -0.874772  0.662597
C    0.262432  -1.012322  2.662175
C    -0.804764  -2.054642  2.331331
S    -2.318005  -1.950182  3.340231
C    -1.700174  -2.490687  4.957598
H    -0.182696  -0.009791  2.637172
H    0.654026  -1.174303  3.676596
H    -0.414154  -3.080715  2.410510
H    -1.166428  -1.921398  1.299861
H    -2.574792  -2.542989  5.616444
H    -0.983032  -1.779867  5.384934
H    -1.246641  -3.488480  4.894870
O    3.642624  -0.091522  1.525767
H    4.128848  0.742099  1.676298
