20
Energy: -21829.2356403 eV PBE+vdW (tier 2 basis)
N    -0.587297  -0.010234  -0.155931
C    -0.125799  -0.033823  1.240299
C    1.387492  -0.244082  1.310205
O    2.211807  0.631508  1.470093
H    -0.351495  -0.885760  -0.626680
H    -0.126405  0.741240  -0.670227
H    -0.301465  0.962074  1.668847
C    -0.923942  -1.067025  2.037870
C    -0.626410  -1.084591  3.539330
S    -0.987356  0.457291  4.448697
C    -2.800014  0.488630  4.360253
H    -0.727189  -2.073797  1.635397
H    -1.988405  -0.862355  1.854835
H    0.442471  -1.262380  3.728341
H    -1.171642  -1.908309  4.022184
H    -3.162229  0.620721  3.333501
H    -3.120889  1.351379  4.955463
H    -3.233018  -0.421196  4.796383
O    1.743781  -1.549506  1.091487
H    2.720474  -1.558218  1.084142
