20
Energy: -21829.3074169 eV PBE+vdW (tier 2 basis)
N    1.803488  -1.620539  0.991951
C    0.418852  -1.224373  0.755188
C    0.152591  0.270806  1.045413
O    -1.013906  0.768564  0.575618
H    2.407875  -1.154208  0.313127
H    2.097094  -1.243419  1.897660
H    0.208302  -1.391863  -0.314429
C    -0.546835  -2.117505  1.586157
C    -1.627923  -2.819775  0.764612
S    -2.830743  -1.734867  -0.085452
C    -3.823371  -1.144121  1.315705
H    -1.002060  -1.547731  2.409923
H    0.074770  -2.895689  2.052942
H    -2.198632  -3.526341  1.383849
H    -1.169586  -3.399983  -0.049181
H    -3.222360  -0.566461  2.027512
H    -4.310317  -1.986460  1.821469
H    -4.592495  -0.487914  0.893108
O    0.922724  0.969658  1.667287
H    -1.541469  0.043219  0.137541
