20
Energy: -21829.2895896 eV PBE+vdW (tier 2 basis)
N    -0.308116  -0.014875  -0.208875
C    -0.031569  -0.165277  1.215688
C    1.443931  -0.429929  1.520118
O    2.231841  -0.946434  0.754870
H    0.181357  -0.752235  -0.721796
H    0.076379  0.865514  -0.552127
H    -0.317920  0.764993  1.729763
C    -0.864996  -1.326882  1.809779
C    -2.364799  -1.036189  1.768516
S    -3.416241  -2.409780  2.340502
C    -3.310600  -3.536358  0.920831
H    -0.553263  -1.517924  2.845625
H    -0.633757  -2.236416  1.233580
H    -2.673713  -0.739103  0.757593
H    -2.610625  -0.203759  2.444012
H    -2.292647  -3.915525  0.768389
H    -3.669725  -3.050165  0.004850
H    -3.965767  -4.384396  1.151681
O    1.782911  -0.043370  2.781905
H    2.720183  -0.293422  2.901876
