20
Energy: -21829.4341789 eV PBE+vdW (tier 2 basis)
N    1.120931  0.536979  0.440096
C    0.487142  0.123947  1.707327
C    1.572717  0.064211  2.814390
O    2.744400  0.589123  2.424431
H    0.534724  1.183139  -0.083869
H    1.306761  -0.285144  -0.147066
H    -0.181118  0.939111  2.027731
C    -0.347908  -1.168174  1.678965
C    0.418928  -2.470017  1.427948
S    1.167648  -2.706986  -0.226119
C    -0.314011  -2.876681  -1.258008
H    -1.160941  -1.049762  0.946794
H    -0.827955  -1.264691  2.664197
H    -0.235824  -3.331886  1.620615
H    1.265782  -2.557326  2.123190
H    -0.914244  -1.958669  -1.277452
H    -0.931344  -3.717786  -0.917443
H    0.038151  -3.086137  -2.274568
O    1.371748  -0.388438  3.921311
H    2.563415  0.843188  1.468530
