20
Energy: -21829.2424649 eV PBE+vdW (tier 2 basis)
N    2.817814  -2.204266  1.626667
C    1.647844  -1.325395  1.732488
C    2.008468  0.105439  2.137949
O    1.856956  1.092960  1.449001
H    3.302227  -2.259744  2.524109
H    3.485329  -1.834629  0.948850
H    1.208466  -1.233967  0.729001
C    0.614331  -1.948732  2.684190
C    -0.678149  -1.140087  2.791994
S    -1.926658  -1.843587  3.914697
C    -2.462512  -3.300080  2.976263
H    1.056602  -2.064341  3.684767
H    0.412382  -2.959627  2.303485
H    -1.136814  -0.986634  1.802939
H    -0.484460  -0.140766  3.208693
H    -2.847262  -3.014014  1.988600
H    -3.277882  -3.752361  3.552818
H    -1.661893  -4.041523  2.866252
O    2.567089  0.159954  3.384727
H    2.789122  1.098398  3.538511
