20
Energy: -21829.2398479 eV PBE+vdW (tier 2 basis)
N    0.058362  0.449727  -0.067219
C    0.031983  -0.066390  1.296058
C    1.195814  -1.014764  1.606130
O    1.889171  -1.569394  0.778605
H    0.314808  -0.300702  -0.712112
H    0.795694  1.148580  -0.159023
H    0.116463  0.783028  1.989728
C    -1.314396  -0.762145  1.614843
C    -1.591387  -1.994517  0.756570
S    -3.191016  -2.720903  1.248689
C    -3.293060  -4.080261  0.052789
H    -2.104298  -0.016056  1.452347
H    -1.329457  -1.038360  2.678873
H    -0.803759  -2.752975  0.882185
H    -1.643445  -1.721967  -0.307599
H    -2.460296  -4.784675  0.175915
H    -3.314035  -3.704037  -0.978198
H    -4.232997  -4.606493  0.255495
O    1.362817  -1.191947  2.946306
H    2.096670  -1.829300  3.048463
