20
Energy: -21829.225708 eV PBE+vdW (tier 2 basis)
N    -0.157354  0.682459  0.269221
C    -0.002895  -0.002889  1.540378
C    1.323662  -0.762615  1.695248
O    2.116966  -1.003295  0.810837
H    -0.224604  0.001484  -0.492160
H    0.662112  1.258430  0.075043
H    -0.004221  0.755924  2.340655
C    -1.190762  -0.947763  1.837618
C    -1.233938  -2.258188  1.043806
S    -1.800352  -2.019217  -0.681113
C    -1.460582  -3.675947  -1.332886
H    -2.113762  -0.372370  1.675452
H    -1.157912  -1.209038  2.904328
H    -1.924483  -2.959266  1.534066
H    -0.241459  -2.733824  1.017238
H    -0.388766  -3.907817  -1.288148
H    -1.779764  -3.673724  -2.381393
H    -2.032781  -4.440458  -0.791350
O    1.530126  -1.148756  2.990484
H    2.387633  -1.617044  2.997640
