20
Energy: -21829.1579664 eV PBE+vdW (tier 2 basis)
N    1.068810  0.161860  3.348697
C    1.158893  -0.964680  2.416680
C    2.047060  -0.651299  1.221915
O    2.665507  -1.479512  0.587708
H    0.991876  1.035299  2.827522
H    0.211742  0.070042  3.900926
H    1.671506  -1.803962  2.915242
C    -0.197320  -1.502948  1.877298
C    -0.958690  -2.429324  2.829840
S    -1.461866  -1.770688  4.466436
C    -0.071799  -2.276889  5.522847
H    -0.011844  -2.082961  0.958266
H    -0.824527  -0.643381  1.596228
H    -0.388804  -3.351935  3.013511
H    -1.901516  -2.731156  2.353441
H    -0.365767  -2.021685  6.547845
H    0.856431  -1.745024  5.283206
H    0.083506  -3.361356  5.463239
O    2.038210  0.670870  0.888050
H    2.612594  0.750728  0.102102
