20
Energy: -21829.2997051 eV PBE+vdW (tier 2 basis)
N    0.408884  0.711964  0.334211
C    0.144010  0.279213  1.722248
C    1.485426  0.158863  2.482615
O    2.563363  0.217797  1.677232
H    0.294254  1.719083  0.230960
H    -0.223769  0.265544  -0.328604
H    -0.455890  1.017410  2.276288
C    -0.605759  -1.066540  1.780231
C    0.170714  -2.251801  1.198228
S    -0.750104  -3.823725  1.211710
C    -1.927461  -3.545076  -0.141281
H    -1.567256  -0.940069  1.258121
H    -0.841993  -1.277304  2.830924
H    1.065902  -2.454641  1.802737
H    0.517923  -2.063544  0.171304
H    -1.404840  -3.347830  -1.086697
H    -2.629974  -2.731198  0.077714
H    -2.499557  -4.474296  -0.245815
O    1.552846  0.000376  3.680580
H    2.166345  0.368805  0.772575
