20
Energy: -21829.2668047 eV PBE+vdW (tier 2 basis)
N    -0.309821  0.609721  1.427842
C    0.637108  -0.369357  1.941234
C    1.894725  -0.310653  1.092846
O    1.934963  -0.011913  -0.081650
H    -1.197155  0.558518  1.924525
H    -0.477614  0.461461  0.432021
H    0.900618  -0.085020  2.971140
C    0.167647  -1.850526  1.969251
C    -1.061707  -2.106326  2.845029
S    -0.945720  -1.571821  4.584203
C    0.426448  -2.598310  5.178145
H    1.001402  -2.484273  2.307114
H    -0.069781  -2.166741  0.939839
H    -1.319266  -3.175266  2.817955
H    -1.938505  -1.564013  2.461476
H    0.498308  -2.417939  6.256895
H    1.381194  -2.322726  4.713698
H    0.222642  -3.664237  5.012347
O    2.998519  -0.694583  1.796263
H    3.738997  -0.680999  1.158827
