20
Energy: -21829.2026516 eV PBE+vdW (tier 2 basis)
N    1.988357  -1.943695  0.446861
C    0.637437  -1.458393  0.722970
C    0.777467  -0.101225  1.395659
O    -0.215198  0.763224  1.045024
H    1.965509  -2.938344  0.223179
H    2.569177  -1.823205  1.279039
H    0.108172  -1.326385  -0.231687
C    -0.208786  -2.396016  1.627385
C    -1.708409  -2.102485  1.737832
S    -2.680407  -2.417445  0.219027
C    -2.844481  -0.761876  -0.507477
H    0.237095  -2.399299  2.636598
H    -0.084129  -3.412673  1.224392
H    -1.911325  -1.074440  2.067431
H    -2.143701  -2.767909  2.495702
H    -3.497842  -0.885233  -1.379579
H    -1.885964  -0.345831  -0.835027
H    -3.324504  -0.070483  0.195952
O    1.646094  0.189304  2.190780
H    -0.052561  1.578409  1.559939
