20
Energy: -21829.1950841 eV PBE+vdW (tier 2 basis)
N    0.920006  -2.125344  0.621427
C    1.083656  -1.408329  1.884333
C    2.368532  -1.823299  2.587387
O    3.054840  -1.089704  3.266648
H    0.796706  -3.125438  0.783144
H    0.098404  -1.789126  0.120741
H    1.218925  -0.342031  1.650046
C    -0.073354  -1.533478  2.918959
C    -1.374863  -0.909874  2.418729
S    -2.797268  -1.093827  3.539059
C    -2.310228  -0.013837  4.912209
H    0.243304  -1.039489  3.849569
H    -0.237414  -2.596193  3.153521
H    -1.713679  -1.398291  1.493049
H    -1.236867  0.158740  2.189564
H    -2.124540  1.010169  4.562952
H    -1.431079  -0.392697  5.447002
H    -3.159846  0.000058  5.604823
O    2.637268  -3.149711  2.430722
H    3.450498  -3.320299  2.944115
