20
Energy: -21829.2118044 eV PBE+vdW (tier 2 basis)
N    0.473997  -0.063571  1.705395
C    1.236794  -1.082095  2.403458
C    1.759516  -2.208875  1.503419
O    1.348149  -2.481635  0.396101
H    0.962870  0.236749  0.862348
H    -0.432782  -0.427797  1.409537
H    2.126359  -0.602124  2.846832
C    0.425413  -1.715007  3.556039
C    -0.241343  -0.684149  4.479591
S    -1.939067  -0.198347  4.019638
C    -2.860233  -1.628508  4.648436
H    1.108090  -2.348898  4.139372
H    -0.338613  -2.386609  3.133222
H    0.327153  0.254879  4.488851
H    -0.273902  -1.057222  5.512918
H    -2.549879  -2.562723  4.162359
H    -3.915089  -1.449372  4.409451
H    -2.755624  -1.723963  5.737281
O    2.774142  -2.899203  2.103282
H    3.031048  -3.601531  1.474469
