20
Energy: -21829.1878937 eV PBE+vdW (tier 2 basis)
N    -0.199223  0.634549  1.262521
C    0.333621  -0.468366  2.060920
C    1.817106  -0.600319  1.759408
O    2.481396  0.217068  1.156190
H    0.542354  1.309734  1.071533
H    -0.945918  1.110408  1.765769
H    0.276673  -0.273798  3.153131
C    -0.486569  -1.751299  1.799642
C    -0.430648  -2.847330  2.867092
S    -0.970440  -2.316400  4.535562
C    0.615272  -2.148015  5.404649
H    -0.203208  -2.173749  0.822452
H    -1.528767  -1.418178  1.692405
H    0.570967  -3.282261  2.962552
H    -1.110520  -3.659535  2.577496
H    1.254864  -1.376344  4.960356
H    1.153446  -3.103614  5.428026
H    0.369088  -1.857363  6.432900
O    2.364361  -1.739492  2.273667
H    3.312144  -1.701696  2.039726
