20
Energy: -21829.3018175 eV PBE+vdW (tier 2 basis)
N    0.011144  0.240480  0.224149
C    0.150437  -0.169141  1.634868
C    1.504056  -0.854542  1.829780
O    1.771279  -1.990562  1.482275
H    0.760081  0.887335  -0.028857
H    0.116068  -0.577207  -0.381288
H    0.133411  0.745073  2.245008
C    -1.015720  -1.079310  2.026319
C    -1.288221  -1.166644  3.528831
S    0.088821  -1.721225  4.590198
C    0.269926  -3.449102  4.067523
H    -0.845284  -2.081992  1.605414
H    -1.915552  -0.677557  1.535781
H    -2.156773  -1.814493  3.717811
H    -1.538126  -0.172958  3.929290
H    0.653677  -3.520148  3.042872
H    -0.681410  -3.988079  4.164892
H    0.999424  -3.898864  4.751076
O    2.445330  0.009436  2.302015
H    3.283646  -0.491916  2.325727
