20
Energy: -21829.195023 eV PBE+vdW (tier 2 basis)
N    -0.267784  0.612598  0.089271
C    -0.022275  0.094583  1.436102
C    1.339945  -0.581714  1.555118
O    1.647070  -1.375608  2.419223
H    0.535295  1.136093  -0.255217
H    -1.067046  1.245650  0.102397
H    0.036515  0.894644  2.207602
C    -1.151549  -0.855833  1.876580
C    -1.330929  -2.061150  0.953585
S    -2.748043  -3.124872  1.368712
C    -2.176940  -3.886462  2.915448
H    -2.090425  -0.283008  1.912823
H    -0.936395  -1.182585  2.902165
H    -0.422587  -2.681141  0.930395
H    -1.521876  -1.726730  -0.074072
H    -2.077352  -3.155132  3.726507
H    -1.223409  -4.409129  2.767183
H    -2.941825  -4.619196  3.197993
O    2.225136  -0.145859  0.614743
H    3.066718  -0.601280  0.811403
