20
Energy: -21829.2174529 eV PBE+vdW (tier 2 basis)
N    0.008026  0.166225  0.162848
C    0.114665  -0.104024  1.596086
C    1.512970  -0.649782  1.847715
O    2.063755  -1.477886  1.152516
H    -0.967201  0.317247  -0.095524
H    0.343345  -0.646456  -0.358636
H    0.015581  0.844631  2.144961
C    -0.941613  -1.106829  2.141042
C    -0.902237  -1.329767  3.652687
S    -2.287774  -2.315094  4.312868
C    -1.894763  -3.957754  3.647024
H    -0.811264  -2.058891  1.604644
H    -1.932660  -0.715623  1.864999
H    -0.976305  -0.371314  4.187065
H    0.040042  -1.798138  3.972271
H    -1.968764  -3.991114  2.553461
H    -2.638585  -4.644228  4.067801
H    -0.895815  -4.283305  3.965041
O    2.077966  -0.132064  2.970885
H    2.947612  -0.569820  3.062547
