20
Energy: -21829.2920504 eV PBE+vdW (tier 2 basis)
N    -0.271962  -0.086633  -0.019458
C    -0.225391  0.007273  1.452282
C    1.225804  0.319745  1.882101
O    2.131167  0.066390  0.918682
H    -0.507698  0.808798  -0.445587
H    -0.964866  -0.766913  -0.329808
H    -0.853633  0.821356  1.847656
C    -0.692868  -1.326951  2.067617
C    -0.772538  -1.327571  3.591782
S    -1.441845  -2.933453  4.146614
C    -1.334068  -2.701022  5.941767
H    -0.024811  -2.134237  1.727866
H    -1.692789  -1.545229  1.656783
H    -1.431523  -0.520076  3.943997
H    0.218062  -1.172222  4.037013
H    -1.714939  -3.620969  6.399922
H    -1.953649  -1.857854  6.272862
H    -0.295264  -2.548995  6.260776
O    1.522050  0.725172  2.984662
H    1.568019  -0.191103  0.134154
