20
Energy: -21829.2411457 eV PBE+vdW (tier 2 basis)
N    0.084017  -0.061011  -0.105170
C    -0.051958  0.038850  1.351132
C    1.272602  0.268653  2.058443
O    1.471308  0.079911  3.240780
H    -0.792704  0.217673  -0.546538
H    0.798133  0.584703  -0.439207
H    -0.667336  0.915516  1.652071
C    -0.742019  -1.204061  1.930124
C    -2.166804  -1.414612  1.413291
S    -3.299866  0.008406  1.571218
C    -3.362181  0.213679  3.374330
H    -0.734732  -1.129586  3.025307
H    -0.146613  -2.091158  1.663504
H    -2.621558  -2.283368  1.910498
H    -2.164080  -1.631485  0.335549
H    -2.397120  0.528101  3.789394
H    -3.693822  -0.712313  3.861532
H    -4.101520  0.998987  3.569230
O    2.233684  0.774525  1.232009
H    3.017312  0.918319  1.796923
