20
Energy: -21829.2202659 eV PBE+vdW (tier 2 basis)
N    0.528592  -0.908251  -0.720429
C    0.292714  -0.296379  0.581658
C    1.636587  0.018957  1.218496
O    2.692409  -0.500302  0.920750
H    1.400066  -1.439997  -0.702323
H    -0.231043  -1.536483  -0.976748
H    -0.225909  0.667580  0.446254
C    -0.578166  -1.125486  1.572276
C    0.073083  -2.417910  2.062216
S    -1.014838  -3.471885  3.076914
C    -2.111169  -4.158955  1.804076
H    -1.519665  -1.347892  1.046515
H    -0.845171  -0.497647  2.433711
H    0.927426  -2.200662  2.719081
H    0.462063  -3.019687  1.227698
H    -1.540281  -4.716230  1.049937
H    -2.720217  -3.386200  1.318653
H    -2.783214  -4.854268  2.320340
O    1.519921  0.942096  2.210284
H    2.415659  1.051414  2.584451
