20
Energy: -21829.1177307 eV PBE+vdW (tier 2 basis)
N    3.106526  -2.024736  2.047765
C    1.871542  -1.243320  2.029492
C    2.056875  0.138708  2.646362
O    1.333414  1.084998  2.404781
H    2.961260  -2.908934  1.560379
H    3.864026  -1.536499  1.570770
H    1.474661  -1.035954  1.016948
C    0.787938  -2.023958  2.812834
C    -0.615724  -1.433780  2.715374
S    -1.784530  -2.524923  3.593399
C    -3.313473  -1.579771  3.365537
H    1.105309  -2.111018  3.861780
H    0.779273  -3.046991  2.403482
H    -0.926644  -1.346447  1.663268
H    -0.657226  -0.430945  3.161137
H    -3.564719  -1.475275  2.302056
H    -3.242300  -0.587726  3.829831
H    -4.110005  -2.145893  3.862075
O    3.093884  0.213057  3.520010
H    3.079911  1.130407  3.857720
