20
Energy: -21829.3605413 eV PBE+vdW (tier 2 basis)
N    -0.309894  0.393856  0.816696
C    -0.053496  -0.456639  1.996272
C    1.467679  -0.496667  2.250670
O    2.193527  -0.068234  1.202999
H    -0.536701  1.349737  1.088429
H    -1.090770  0.040539  0.264986
H    -0.533725  -0.070254  2.908910
C    -0.591015  -1.878312  1.748859
C    -0.567805  -2.815006  2.959376
S    -1.647137  -2.267149  4.334904
C    -0.425004  -1.784464  5.591242
H    -0.026692  -2.343274  0.922559
H    -1.633712  -1.776291  1.405446
H    0.448492  -2.933131  3.353614
H    -0.921249  -3.806912  2.649144
H    -0.992683  -1.311239  6.401235
H    0.306105  -1.075804  5.187398
H    0.095078  -2.664033  5.989319
O    1.965240  -0.901212  3.281133
H    1.494761  0.239488  0.554808
