20
Energy: -21829.1435826 eV PBE+vdW (tier 2 basis)
N    -0.031480  0.570197  0.051984
C    0.027863  0.186528  1.460029
C    1.461807  -0.015983  1.931798
O    1.821164  0.070074  3.086385
H    -1.001837  0.613312  -0.259869
H    0.454046  -0.104010  -0.538626
H    -0.342427  1.034084  2.055864
C    -0.821521  -1.047560  1.887868
C    -0.385376  -2.366374  1.255750
S    -1.599574  -3.663937  1.665515
C    -0.852371  -5.072471  0.801516
H    -1.865270  -0.831288  1.610403
H    -0.792958  -1.129336  2.984174
H    0.603122  -2.672383  1.629483
H    -0.324549  -2.276239  0.160304
H    -1.509980  -5.931860  0.975927
H    0.143387  -5.303569  1.201298
H    -0.787933  -4.890765  -0.279178
O    2.308096  -0.367936  0.922648
H    3.180587  -0.497932  1.342655
