20
Energy: -21829.192299 eV PBE+vdW (tier 2 basis)
N    -0.272206  2.629818  0.364483
C    -0.743589  1.909796  1.554393
C    0.281355  1.958639  2.688935
O    0.183599  2.616993  3.703196
H    0.613061  2.239926  0.036224
H    -0.106140  3.612568  0.582883
H    -1.626225  2.437503  1.938743
C    -1.131782  0.474888  1.174972
C    -1.727544  -0.345443  2.319499
S    -3.396026  0.261720  2.756326
C    -3.680587  -0.694507  4.269500
H    -0.241091  -0.049863  0.796469
H    -1.841420  0.539408  0.337289
H    -1.090330  -0.292781  3.216030
H    -1.800578  -1.401568  2.024473
H    -2.946425  -0.438735  5.044385
H    -3.655930  -1.773923  4.071147
H    -4.680723  -0.425152  4.627959
O    1.392640  1.205164  2.413019
H    2.003366  1.351414  3.160795
