20
Energy: -21829.2962639 eV PBE+vdW (tier 2 basis)
N    0.813900  -0.781445  -0.289603
C    0.239740  -0.091388  0.858323
C    1.281374  0.352057  1.887717
O    2.375553  -0.150076  2.037862
H    1.475824  -1.487971  0.039842
H    1.357947  -0.131981  -0.857660
H    -0.277597  0.812447  0.500789
C    -0.797526  -0.993218  1.570248
C    -1.988204  -1.313167  0.667639
S    -3.160638  -2.525376  1.348298
C    -3.899910  -1.581840  2.712158
H    -1.133258  -0.491269  2.488324
H    -0.304339  -1.928838  1.876019
H    -1.633207  -1.761940  -0.269095
H    -2.536901  -0.395973  0.401789
H    -3.176829  -1.364964  3.507806
H    -4.694216  -2.213048  3.127355
H    -4.347731  -0.647798  2.348144
O    0.828898  1.382430  2.658509
H    1.536265  1.567631  3.307046
