20
Energy: -21829.2468936 eV PBE+vdW (tier 2 basis)
N    -0.340606  1.034887  0.723444
C    0.003036  0.257794  1.907079
C    1.431158  -0.240761  1.749255
O    1.962276  -0.508098  0.692049
H    -0.004287  0.550484  -0.110505
H    -1.355317  1.141581  0.661615
H    -0.019384  0.917593  2.790553
C    -0.886282  -0.979879  2.222076
C    -2.279746  -0.663354  2.773319
S    -3.461729  0.220271  1.690993
C    -3.704412  -1.003029  0.373219
H    -0.381162  -1.593114  2.986916
H    -0.953005  -1.604650  1.318185
H    -2.200271  -0.013257  3.657212
H    -2.764278  -1.593608  3.105262
H    -4.057200  -1.958121  0.783263
H    -2.790599  -1.161596  -0.212556
H    -4.478136  -0.595054  -0.287172
O    2.050560  -0.408575  2.950587
H    2.931990  -0.778928  2.748601
