20
Energy: -21829.2036799 eV PBE+vdW (tier 2 basis)
N    0.087613  -0.480050  -0.021862
C    0.073027  -0.147368  1.401201
C    1.504464  -0.090226  1.929150
O    2.500583  -0.248610  1.253218
H    1.055949  -0.488535  -0.349024
H    -0.421431  0.210415  -0.567660
H    -0.324108  0.868409  1.580936
C    -0.842101  -1.111888  2.201700
C    -0.522359  -2.592312  2.008081
S    0.908801  -3.118982  3.017805
C    1.374337  -4.627625  2.127278
H    -1.867192  -0.939460  1.840447
H    -0.832771  -0.834976  3.265815
H    -0.288491  -2.768432  0.948524
H    -1.392427  -3.206468  2.278363
H    1.670427  -4.400003  1.095331
H    0.557974  -5.361295  2.129893
H    2.233321  -5.055113  2.657414
O    1.545110  0.238946  3.246189
H    2.487938  0.221852  3.498937
