20
Energy: -21829.2280624 eV PBE+vdW (tier 2 basis)
N    1.750208  -2.449811  4.464860
C    0.953693  -2.020037  3.317302
C    1.913763  -1.799923  2.158268
O    3.033332  -1.343542  2.263364
H    1.201932  -2.383948  5.322023
H    2.562179  -1.837216  4.564387
H    0.254253  -2.821791  3.038290
C    0.126382  -0.725368  3.551732
C    -0.916439  -0.385847  2.482779
S    -2.265737  -1.597157  2.277652
C    -3.213529  -1.313168  3.797497
H    0.821242  0.123752  3.662245
H    -0.371441  -0.841370  4.527155
H    -0.458917  -0.323420  1.486219
H    -1.363788  0.597283  2.690104
H    -3.548593  -0.269847  3.866663
H    -2.648183  -1.583881  4.697885
H    -4.094765  -1.962261  3.735919
O    1.363498  -2.133286  0.959279
H    2.038910  -1.919159  0.285377
