20
Energy: -21829.1240959 eV PBE+vdW (tier 2 basis)
N    -0.040574  -0.820435  -0.160276
C    0.126977  -0.095597  1.101602
C    1.641931  0.168898  1.272547
O    2.306870  0.497825  0.310997
H    0.664633  -0.481288  -0.818132
H    -0.957084  -0.631025  -0.564732
H    -0.277579  0.939146  1.058073
C    -0.654940  -0.806572  2.221764
C    -0.190841  -2.232535  2.546159
S    0.918276  -2.241660  4.010211
C    2.259747  -3.336647  3.463018
H    -1.702423  -0.847321  1.884553
H    -0.669247  -0.183576  3.129690
H    0.345888  -2.655681  1.686576
H    -1.040725  -2.889318  2.765022
H    2.985333  -3.371841  4.283748
H    2.750018  -2.937352  2.567402
H    1.883540  -4.348973  3.276943
O    2.190246  0.125993  2.499212
H    1.664194  -0.443854  3.132393
