20
Energy: -21829.3048676 eV PBE+vdW (tier 2 basis)
N    0.706308  0.054203  2.176601
C    0.835160  -1.385134  2.372224
C    2.019209  -1.996067  1.621582
O    2.577066  -1.495739  0.666234
H    1.509562  0.534202  2.583678
H    0.741912  0.263952  1.176263
H    0.979829  -1.586892  3.445761
C    -0.452057  -2.118933  1.945172
C    -1.703507  -1.672883  2.706428
S    -1.650522  -1.985495  4.508302
C    -1.360040  -0.313806  5.158408
H    -0.301688  -3.199059  2.079445
H    -0.618494  -1.951253  0.866630
H    -2.574291  -2.219628  2.320989
H    -1.889315  -0.602279  2.558325
H    -1.243722  -0.423684  6.243182
H    -2.218844  0.339224  4.959646
H    -0.453231  0.134217  4.738014
O    2.383870  -3.202512  2.139457
H    3.116793  -3.527432  1.580662
