20
Energy: -21829.2544379 eV PBE+vdW (tier 2 basis)
N    -0.326367  0.392688  0.121119
C    0.031170  0.049106  1.496460
C    1.531066  0.194361  1.769047
O    2.413818  -0.170270  1.020307
H    0.258571  -0.144092  -0.523590
H    -0.123164  1.376147  -0.062515
H    -0.504923  0.731005  2.172373
C    -0.414484  -1.399484  1.789032
C    -0.227357  -1.840005  3.240028
S    -0.791499  -3.536573  3.594509
C    -2.591731  -3.343869  3.464449
H    0.134168  -2.083407  1.123826
H    -1.473026  -1.451399  1.499874
H    -0.726305  -1.147853  3.935719
H    0.835850  -1.856435  3.518380
H    -2.959609  -2.584429  4.166702
H    -3.022771  -4.313845  3.738495
H    -2.910540  -3.097715  2.444441
O    1.782635  0.787303  2.971599
H    2.756088  0.814139  3.063016
