20
Energy: -21829.3149434 eV PBE+vdW (tier 2 basis)
N    0.729285  -1.026963  0.060020
C    -0.258441  -0.493331  1.021099
C    0.451174  0.477219  1.994045
O    1.794795  0.421327  1.919298
H    0.716008  -0.504596  -0.814665
H    0.546638  -2.003587  -0.167445
H    -1.043186  0.094858  0.521146
C    -0.955029  -1.610826  1.822710
C    -0.019612  -2.427685  2.719754
S    -0.842733  -3.781168  3.616515
C    -1.094329  -4.980665  2.279910
H    -1.474483  -2.266764  1.106435
H    -1.729971  -1.147032  2.446075
H    0.400191  -1.791432  3.511626
H    0.833329  -2.847634  2.165761
H    -1.543528  -5.866654  2.743620
H    -0.138935  -5.271687  1.823218
H    -1.782042  -4.609821  1.509477
O    -0.147098  1.194417  2.763797
H    1.956966  -0.240976  1.188605
