20
Energy: -21829.1954619 eV PBE+vdW (tier 2 basis)
N    -0.386503  0.549694  0.441405
C    0.067316  0.025623  1.723393
C    1.529410  -0.366124  1.576313
O    2.048538  -0.737391  0.544983
H    -1.403310  0.550119  0.380434
H    -0.019407  -0.033741  -0.312863
H    0.012556  0.824493  2.481142
C    -0.695623  -1.211325  2.280190
C    -2.151801  -0.895827  2.611237
S    -2.966420  -2.392120  3.263436
C    -4.646417  -1.750931  3.499278
H    -0.188192  -1.565252  3.190352
H    -0.644095  -2.022485  1.537621
H    -2.702592  -0.567475  1.715858
H    -2.210627  -0.094505  3.364004
H    -5.243558  -2.578414  3.899454
H    -5.087727  -1.425491  2.548254
H    -4.661452  -0.923879  4.220725
O    2.194448  -0.300355  2.760726
H    3.099291  -0.622307  2.580706
