20
Energy: -21829.2562609 eV PBE+vdW (tier 2 basis)
N    1.474469  -2.637684  1.425211
C    0.982814  -1.412769  2.063254
C    1.535461  -0.147612  1.429457
O    1.530605  0.949247  1.948995
H    0.794599  -3.386233  1.561323
H    1.562991  -2.501950  0.419125
H    -0.118990  -1.301639  1.956333
C    1.282326  -1.413186  3.568878
C    0.605659  -2.554321  4.331604
S    -1.195603  -2.723340  4.097127
C    -1.791610  -1.146569  4.768241
H    0.986195  -0.441192  3.984322
H    2.370571  -1.505567  3.709213
H    0.813918  -2.461288  5.407179
H    1.005834  -3.527980  4.014534
H    -2.886304  -1.198985  4.751362
H    -1.471309  -0.290202  4.162753
H    -1.460771  -1.013369  5.806377
O    2.002081  -0.349503  0.162999
H    2.290064  0.528141  -0.154288
