20
Energy: -21829.2596063 eV PBE+vdW (tier 2 basis)
N    1.553998  -1.831248  0.080267
C    0.196622  -1.567850  0.586919
C    0.160579  -0.199514  1.268146
O    -0.169332  0.792896  0.386881
H    2.233433  -1.760057  0.840442
H    1.816497  -1.142455  -0.625489
H    -0.476854  -1.549322  -0.281153
C    -0.225513  -2.687844  1.534722
C    -1.656610  -2.606258  2.072081
S    -2.991606  -2.720524  0.825298
C    -3.397136  -0.974693  0.533001
H    0.461499  -2.698766  2.397450
H    -0.082235  -3.632829  0.993116
H    -1.818885  -1.694332  2.663869
H    -1.829125  -3.452050  2.750735
H    -3.653183  -0.470774  1.473765
H    -4.283697  -0.976363  -0.112541
H    -2.595211  -0.428234  0.023891
O    0.454202  0.030875  2.424275
H    -0.090443  1.631340  0.883324
