20
Energy: -21829.243962 eV PBE+vdW (tier 2 basis)
N    0.216724  1.158328  1.732831
C    0.370086  -0.173150  2.334448
C    1.782193  -0.720588  2.125102
O    2.640200  -0.807590  2.980819
H    0.881342  1.816499  2.140704
H    0.402920  1.122552  0.729235
H    0.251167  -0.059555  3.420523
C    -0.721592  -1.109562  1.810783
C    -0.742369  -2.510626  2.428060
S    -1.137492  -2.580010  4.214723
C    0.503655  -2.764337  4.971610
H    -0.616644  -1.211711  0.717736
H    -1.682045  -0.607966  1.994530
H    0.205429  -3.045662  2.268959
H    -1.521662  -3.105672  1.933935
H    1.153427  -1.900167  4.796222
H    0.997277  -3.678032  4.617115
H    0.323226  -2.862124  6.048942
O    2.018795  -1.061622  0.821862
H    2.955365  -1.336006  0.783861
