20
Energy: -21828.9998763 eV PBE+vdW (tier 2 basis)
N    -0.085352  -2.376265  2.534570
C    0.209790  -1.406653  1.466314
C    1.708862  -1.060155  1.453233
O    2.541321  -1.754198  0.920037
H    0.238335  -2.027373  3.439392
H    0.417769  -3.246647  2.359309
H    0.021152  -1.914781  0.510735
C    -0.734117  -0.199842  1.574781
C    -2.200694  -0.559727  1.324900
S    -2.481165  -0.875412  -0.452175
C    -4.165509  -1.537219  -0.381644
H    -0.419469  0.586867  0.870373
H    -0.671921  0.233265  2.591345
H    -2.854430  0.262121  1.648528
H    -2.457542  -1.462309  1.896485
H    -4.867375  -0.800445  0.029796
H    -4.204945  -2.461771  0.208282
H    -4.456935  -1.762843  -1.413895
O    2.102217  0.043249  2.166623
H    1.315007  0.522138  2.483012
