20
Energy: -21829.2008482 eV PBE+vdW (tier 2 basis)
N    0.482244  -0.446895  0.061960
C    -0.177443  -0.289056  1.367147
C    0.771024  0.178137  2.494854
O    0.681255  1.284658  2.984679
H    0.811353  0.461646  -0.265097
H    1.310200  -1.041617  0.131264
H    -0.866569  0.558155  1.265186
C    -1.045673  -1.526417  1.723002
C    -0.557013  -2.894944  1.246408
S    1.006835  -3.537395  1.942687
C    0.542461  -3.835439  3.673776
H    -2.025463  -1.378827  1.242748
H    -1.242048  -1.534575  2.805548
H    -0.372636  -2.869020  0.163926
H    -1.332507  -3.653122  1.424104
H    1.426510  -4.261857  4.160753
H    -0.280061  -4.558704  3.727130
H    0.270862  -2.907252  4.189196
O    1.749860  -0.668190  2.894015
H    1.648201  -1.564653  2.462688
