20
Energy: -21829.2877637 eV PBE+vdW (tier 2 basis)
N    -0.378758  -0.054275  0.194911
C    -0.124769  0.005221  1.630792
C    1.369546  0.193603  1.976027
O    2.266241  -0.172703  1.248989
H    -0.182398  0.855219  -0.225231
H    0.297731  -0.695904  -0.227556
H    -0.673968  0.871849  2.031799
C    -0.692914  -1.274480  2.281932
C    -0.540752  -1.430105  3.798020
S    -0.972171  0.025436  4.821303
C    -2.681324  0.353025  4.306194
H    -0.210818  -2.145168  1.807905
H    -1.752286  -1.322113  1.994852
H    0.502222  -1.630894  4.080987
H    -1.137278  -2.284990  4.145092
H    -3.310652  -0.526732  4.488259
H    -2.750581  0.650591  3.253312
H    -3.037096  1.178584  4.932698
O    1.635780  0.804002  3.157358
H    0.787522  0.947548  3.650299
