20
Energy: -21829.3659586 eV PBE+vdW (tier 2 basis)
N    0.646735  -1.944667  1.758688
C    0.168344  -0.660768  1.211099
C    1.381363  0.136701  0.672454
O    2.561478  -0.374250  1.063484
H    0.614807  -2.685529  1.058957
H    0.066269  -2.238640  2.550144
H    -0.516531  -0.784973  0.354961
C    -0.528313  0.187615  2.287320
C    -1.980528  -0.167688  2.614447
S    -2.304383  -1.827991  3.327569
C    -2.828675  -2.760451  1.860942
H    -0.517836  1.231371  1.938807
H    0.082102  0.156804  3.204159
H    -2.623487  -0.061743  1.729017
H    -2.356765  0.540620  3.364850
H    -3.723769  -2.311165  1.413623
H    -3.079932  -3.768413  2.211538
H    -2.034656  -2.837679  1.108288
O    1.269489  1.131930  -0.008773
H    2.291287  -1.184085  1.590424
