20
Energy: -21829.1992734 eV PBE+vdW (tier 2 basis)
N    0.822792  -2.573743  1.697328
C    0.999056  -1.139106  1.943135
C    2.073237  -0.533999  1.050520
O    2.768607  0.418104  1.331812
H    -0.113820  -2.848742  1.997015
H    0.879608  -2.767244  0.698275
H    0.087338  -0.556187  1.683385
C    1.323766  -0.857056  3.418987
C    0.311932  -1.449113  4.397664
S    -1.384457  -0.855568  4.056837
C    -2.286013  -1.792472  5.318700
H    1.404940  0.228694  3.559780
H    2.309123  -1.288707  3.649479
H    0.583866  -1.165045  5.424031
H    0.318348  -2.547315  4.338315
H    -2.173641  -2.874248  5.170220
H    -3.344583  -1.528878  5.213018
H    -1.952731  -1.519694  6.328336
O    2.143264  -1.154007  -0.164534
H    2.828367  -0.672674  -0.667303
