20
Energy: -21829.3552938 eV PBE+vdW (tier 2 basis)
N    1.098629  -2.638453  1.040455
C    0.308179  -1.414868  0.996595
C    1.097337  -0.166545  1.381267
O    0.468857  0.977659  0.983189
H    1.713399  -2.614111  1.857274
H    1.712540  -2.692009  0.228296
H    -0.069370  -1.273880  -0.029145
C    -0.928715  -1.537401  1.912077
C    -1.917561  -2.598491  1.424407
S    -2.642748  -2.306375  -0.220628
C    -3.594985  -0.790739  0.074219
H    -1.423070  -0.559921  1.998976
H    -0.592324  -1.811058  2.925962
H    -2.731498  -2.724520  2.152900
H    -1.403475  -3.563441  1.322191
H    -4.152688  -0.593291  -0.848597
H    -2.947785  0.070662  0.280524
H    -4.310777  -0.926965  0.895518
O    2.150470  -0.157795  1.985121
H    1.026585  1.715545  1.298400
