20
Energy: -21829.2405426 eV PBE+vdW (tier 2 basis)
N    -0.871945  0.114990  0.381662
C    -0.059040  -0.090249  1.579219
C    1.411041  -0.177971  1.189363
O    1.846354  -0.034037  0.065080
H    -0.264493  0.347895  -0.405824
H    -1.530145  0.879169  0.511114
H    -0.116157  0.766594  2.276527
C    -0.522294  -1.340927  2.370777
C    -0.326807  -2.641441  1.594835
S    -1.061078  -4.111320  2.383627
C    -2.819510  -3.852357  2.014699
H    -1.588997  -1.189799  2.589568
H    0.002617  -1.391521  3.333937
H    0.741626  -2.887395  1.507834
H    -0.726863  -2.545709  0.575800
H    -2.992324  -3.807796  0.931973
H    -3.213004  -2.946363  2.491965
H    -3.350888  -4.719600  2.423735
O    2.209349  -0.432659  2.260346
H    3.122070  -0.465010  1.913964
