20
Energy: -21829.2113677 eV PBE+vdW (tier 2 basis)
N    0.158154  -3.084840  2.296929
C    0.782047  -1.763515  2.245137
C    2.295614  -1.866966  2.373905
O    3.094143  -1.147876  1.812285
H    0.388278  -3.551684  3.174795
H    -0.857675  -2.968766  2.260934
H    0.612948  -1.348840  1.239631
C    0.292709  -0.709937  3.280668
C    -1.051122  -0.052323  2.953528
S    -2.533588  -1.116109  2.839781
C    -2.671632  -1.704509  4.548814
H    1.032963  0.105758  3.335334
H    0.271046  -1.175689  4.278032
H    -1.003620  0.429953  1.966004
H    -1.262810  0.741556  3.685214
H    -2.741243  -0.863061  5.250236
H    -1.833525  -2.355068  4.828542
H    -3.599626  -2.285298  4.602095
O    2.673123  -2.832701  3.259788
H    3.648816  -2.799085  3.290348
