20
Energy: -21829.1121377 eV PBE+vdW (tier 2 basis)
N    -0.057762  -1.457121  0.555231
C    0.641046  -0.446835  1.340186
C    1.959931  -0.964362  1.913622
O    2.697835  -0.288620  2.602503
H    -0.224065  -2.300563  1.104017
H    -0.959476  -1.104326  0.235665
H    0.969896  0.340339  0.638738
C    -0.176634  0.292443  2.439024
C    -1.018038  -0.591359  3.356790
S    0.003629  -1.688861  4.399409
C    -1.300913  -2.758146  5.060867
H    -0.866099  0.983542  1.929052
H    0.516030  0.913813  3.024253
H    -1.697802  -1.222865  2.763679
H    -1.637533  0.043080  4.006946
H    -0.811143  -3.479618  5.724943
H    -1.815335  -3.306672  4.260789
H    -2.030487  -2.181699  5.644432
O    2.255841  -2.236351  1.546665
H    3.107078  -2.436821  1.982189
