20
Energy: -21829.2023608 eV PBE+vdW (tier 2 basis)
N    0.788603  -0.926708  0.505639
C    0.144508  0.004428  1.423636
C    1.141960  0.922567  2.149845
O    2.321231  1.018474  1.886020
H    1.215699  -0.408351  -0.262039
H    1.572751  -1.377406  0.982850
H    -0.464206  0.699508  0.819876
C    -0.853271  -0.720160  2.357111
C    -0.313528  -1.960705  3.066292
S    0.995577  -1.553136  4.275726
C    1.636707  -3.218885  4.594516
H    -1.693797  -1.050023  1.729458
H    -1.255898  -0.004114  3.085833
H    0.099172  -2.663769  2.328426
H    -1.136271  -2.469304  3.588878
H    2.041083  -3.672985  3.680624
H    0.861507  -3.868218  5.021400
H    2.447297  -3.110567  5.324231
O    0.531121  1.702836  3.087625
H    1.235603  2.262488  3.467835
