20
Energy: -21829.2799493 eV PBE+vdW (tier 2 basis)
N    0.052948  0.205234  0.046358
C    -0.038184  0.015682  1.503724
C    1.350976  0.134872  2.133146
O    2.161628  -0.764209  2.244533
H    0.390455  1.143164  -0.172600
H    0.722061  -0.455681  -0.354050
H    -0.667769  0.819688  1.908810
C    -0.679197  -1.335023  1.813653
C    -0.970104  -1.587447  3.295073
S    -2.042413  -0.367850  4.130148
C    -3.608788  -0.624531  3.249760
H    -0.013296  -2.138397  1.458687
H    -1.600093  -1.401139  1.217740
H    -0.041729  -1.574522  3.883694
H    -1.411812  -2.585985  3.424451
H    -3.545950  -0.323057  2.197067
H    -4.350626  0.008505  3.750190
H    -3.933586  -1.670948  3.320227
O    1.628441  1.420160  2.496166
H    2.551926  1.417256  2.816864
