20
Energy: -21829.3578089 eV PBE+vdW (tier 2 basis)
N    -0.446114  -0.335372  0.028458
C    -0.176561  -0.145199  1.466787
C    1.355767  -0.017819  1.672247
O    2.021102  0.192004  0.523297
H    -1.345706  0.070662  -0.228797
H    -0.505272  -1.330765  -0.194683
H    -0.570679  0.849426  1.737189
C    -0.778770  -1.184518  2.421460
C    -2.255598  -0.984968  2.754863
S    -3.347977  -1.128676  1.290714
C    -4.955240  -0.898711  2.097852
H    -0.209382  -1.136837  3.360954
H    -0.613361  -2.193038  2.007442
H    -2.409666  0.005914  3.209360
H    -2.572288  -1.743713  3.484862
H    -5.715817  -0.965197  1.311694
H    -5.022994  0.087238  2.574836
H    -5.140878  -1.686421  2.839224
O    1.892101  -0.064382  2.757225
H    1.298345  0.150174  -0.169026
