20
Energy: -21829.1758986 eV PBE+vdW (tier 2 basis)
N    -0.849710  -0.107683  -0.293436
C    -0.685028  -0.035573  1.155850
C    0.721313  0.391174  1.553285
O    1.014411  0.845845  2.639162
H    -0.135713  -0.694596  -0.722938
H    -1.760190  -0.504678  -0.525371
H    -1.333172  0.772315  1.529024
C    -1.068873  -1.308609  1.969955
C    -0.207493  -2.533243  1.671500
S    -0.761979  -4.069664  2.479182
C    -0.389326  -3.706435  4.218618
H    -2.122011  -1.540119  1.749996
H    -1.013761  -1.052919  3.037794
H    0.846516  -2.359542  1.936537
H    -0.232502  -2.777751  0.599520
H    -1.010387  -2.894714  4.615515
H    0.672933  -3.464349  4.351561
H    -0.614027  -4.623036  4.776317
O    1.646422  0.158077  0.580816
H    2.502680  0.441370  0.956544
