20
Energy: -21829.3494881 eV PBE+vdW (tier 2 basis)
N    0.168231  0.645097  0.153073
C    -0.136013  0.032852  1.463055
C    1.169906  -0.094749  2.282602
O    2.278341  0.167483  1.565804
H    -0.046478  1.640833  0.149118
H    -0.368133  0.216541  -0.600142
H    -0.810212  0.664311  2.061712
C    -0.794892  -1.353069  1.329039
C    0.069443  -2.399234  0.618980
S    -0.731136  -4.023321  0.432318
C    -0.718081  -4.616899  2.146647
H    -1.755540  -1.244909  0.802594
H    -1.025467  -1.694113  2.346754
H    1.030592  -2.536447  1.136387
H    0.305250  -2.100826  -0.412624
H    -1.358246  -4.013677  2.801248
H    0.303789  -4.644237  2.545324
H    -1.113917  -5.638711  2.117523
O    1.187236  -0.422023  3.448463
H    1.915326  0.408099  0.665126
