20
Energy: -21829.2938498 eV PBE+vdW (tier 2 basis)
N    0.728637  -3.794095  3.291995
C    0.569784  -2.400453  2.881936
C    1.864662  -1.797963  2.331018
O    2.979056  -2.041333  2.748196
H    1.552542  -3.878458  3.892442
H    0.915991  -4.378963  2.476662
H    -0.198370  -2.346706  2.097210
C    0.079539  -1.564976  4.082186
C    -0.426801  -0.158683  3.753918
S    -1.855065  -0.069242  2.622098
C    -3.160270  -0.784376  3.658801
H    0.895268  -1.483069  4.820199
H    -0.711647  -2.157727  4.562303
H    0.345354  0.441126  3.252607
H    -0.686207  0.369752  4.682761
H    -2.982086  -1.844529  3.876193
H    -4.089796  -0.699330  3.083958
H    -3.273577  -0.223692  4.596014
O    1.638719  -0.927934  1.306231
H    2.516267  -0.584351  1.044273
