20
Energy: -21829.1763322 eV PBE+vdW (tier 2 basis)
N    3.213898  -1.802613  1.642640
C    1.869745  -1.223262  1.683732
C    1.932457  0.178669  2.276821
O    1.376689  1.157636  1.827693
H    3.180471  -2.723555  1.204268
H    3.574906  -1.931431  2.588953
H    1.532041  -1.079787  0.647732
C    0.812387  -2.074436  2.437383
C    -0.599693  -1.492137  2.412507
S    -1.753918  -2.668681  3.192337
C    -3.297845  -1.730190  3.052980
H    1.144030  -2.217834  3.477186
H    0.806911  -3.068861  1.963769
H    -0.921921  -1.303244  1.377234
H    -0.643752  -0.537394  2.956184
H    -3.552696  -1.533661  2.003602
H    -3.241454  -0.783728  3.605934
H    -4.084210  -2.351800  3.496592
O    2.659668  0.207186  3.429993
H    2.634287  1.132125  3.742460
