20
Energy: -21829.1728825 eV PBE+vdW (tier 2 basis)
N    0.391314  -2.130887  1.254627
C    1.026120  -1.006794  1.943623
C    2.263141  -0.528709  1.183034
O    3.249387  -0.026022  1.678201
H    -0.497059  -2.349469  1.711146
H    0.196861  -1.896031  0.282032
H    0.385478  -0.093206  1.977407
C    1.393521  -1.356462  3.393160
C    0.241996  -1.261535  4.395063
S    -0.973281  -2.619801  4.219321
C    -2.241458  -2.037476  5.373891
H    2.175678  -0.656411  3.717150
H    1.838786  -2.362655  3.406966
H    -0.288584  -0.303968  4.273897
H    0.641041  -1.296698  5.418953
H    -1.838812  -1.950410  6.391482
H    -3.038954  -2.789347  5.374152
H    -2.661657  -1.074285  5.056579
O    2.113326  -0.664043  -0.164597
H    2.928159  -0.298790  -0.560087
