20
Energy: -21829.2475577 eV PBE+vdW (tier 2 basis)
N    -0.257539  0.262621  0.156554
C    0.011622  -0.108415  1.542716
C    1.476405  -0.338780  1.922755
O    1.957493  -0.103644  3.011662
H    0.128263  -0.436570  -0.479485
H    0.189159  1.149332  -0.075072
H    -0.320958  0.717719  2.189146
C    -0.788603  -1.375005  1.926248
C    -2.297355  -1.135032  1.876641
S    -3.315696  -2.624770  2.102102
C    -2.990664  -3.020787  3.844148
H    -0.481730  -1.689628  2.933596
H    -0.521939  -2.192248  1.238123
H    -2.581968  -0.749816  0.888875
H    -2.597990  -0.379711  2.619312
H    -1.950993  -3.325482  4.014372
H    -3.645446  -3.863510  4.094727
H    -3.243816  -2.173459  4.494711
O    2.201836  -0.881069  0.900443
H    3.099640  -1.022647  1.258227
