20
Energy: -21829.1227763 eV PBE+vdW (tier 2 basis)
N    0.262302  0.497937  0.180444
C    0.327567  0.052369  1.575578
C    1.756877  -0.373397  1.895413
O    2.389451  -0.014208  2.866886
H    0.492358  -0.273491  -0.447566
H    -0.687094  0.798027  -0.044059
H    0.149103  0.928501  2.215800
C    -0.706149  -1.038765  1.954597
C    -0.689764  -1.490291  3.419789
S    0.518657  -2.838032  3.725606
C    1.384846  -2.221655  5.195988
H    -0.577866  -1.905403  1.287733
H    -1.698014  -0.614383  1.726758
H    -1.684120  -1.848713  3.716231
H    -0.430499  -0.653277  4.082869
H    1.897568  -1.278034  4.973173
H    2.130529  -2.983963  5.451760
H    0.700917  -2.104084  6.045455
O    2.262053  -1.204591  0.945839
H    3.156408  -1.451272  1.249677
