20
Energy: -21829.1816586 eV PBE+vdW (tier 2 basis)
N    -0.270382  0.937921  0.214076
C    -0.168418  0.511877  1.612004
C    1.268336  0.652461  2.091932
O    1.611858  1.086838  3.172257
H    -1.248053  0.918827  -0.077523
H    0.239905  0.297238  -0.395551
H    -0.758601  1.210863  2.220093
C    -0.680858  -0.922842  1.901741
C    -0.808519  -1.313205  3.377669
S    -2.074186  -0.358051  4.300182
C    -1.049237  0.741663  5.323808
H    -0.025826  -1.647917  1.389489
H    -1.671066  -1.002936  1.427086
H    0.144618  -1.215696  3.914688
H    -1.107394  -2.367546  3.447083
H    -0.366822  1.347716  4.718441
H    -0.477668  0.167395  6.063255
H    -1.750689  1.397768  5.852922
O    2.161137  0.171554  1.181763
H    3.043936  0.288628  1.582860
