20
Energy: -21829.3618566 eV PBE+vdW (tier 2 basis)
N    -0.508565  -0.110705  0.006233
C    -0.297069  -0.267970  1.458789
C    1.194493  -0.010813  1.772991
O    1.856562  0.574916  0.757876
H    -1.418169  0.300157  -0.196274
H    -0.466378  -1.011022  -0.473423
H    -0.848081  0.547209  1.959717
C    -0.800188  -1.593514  2.055390
C    -1.059248  -1.551281  3.566536
S    -2.335516  -0.366538  4.101872
C    -3.842060  -1.164876  3.481237
H    -0.070585  -2.393889  1.849678
H    -1.727767  -1.870422  1.530610
H    -0.148587  -1.238688  4.092659
H    -1.332711  -2.550358  3.935140
H    -4.681372  -0.544858  3.816967
H    -3.956468  -2.171436  3.904280
H    -3.867592  -1.217636  2.385621
O    1.717898  -0.281778  2.832582
H    1.168403  0.625499  0.034517
