20
Energy: -21829.2209412 eV PBE+vdW (tier 2 basis)
N    0.210891  -0.590969  0.155038
C    0.017426  -0.653346  1.613054
C    1.370703  -1.105581  2.162374
O    1.811001  -2.232682  2.037281
H    -0.644228  -0.266571  -0.297288
H    0.407849  -1.527235  -0.204141
H    -0.168479  0.371132  1.966771
C    -1.125698  -1.579248  2.069871
C    -1.581327  -1.418186  3.522201
S    -0.344493  -1.749972  4.821808
C    -0.025371  -3.517888  4.569231
H    -0.837756  -2.621770  1.864971
H    -1.994561  -1.366802  1.424513
H    -2.462785  -2.049081  3.710824
H    -1.886206  -0.378663  3.715398
H    0.514706  -3.698908  3.632248
H    -0.959726  -4.093617  4.596816
H    0.606268  -3.834799  5.407256
O    2.072828  -0.089315  2.715661
H    2.927009  -0.471579  2.997186
