20
Energy: -21829.1683084 eV PBE+vdW (tier 2 basis)
N    1.836333  -1.957624  0.353809
C    0.564834  -1.340360  0.760050
C    0.839937  -0.035846  1.498956
O    1.768746  0.719056  0.842597
H    2.408008  -1.284642  -0.156718
H    1.644837  -2.730641  -0.284312
H    -0.068498  -1.039286  -0.103420
C    -0.244764  -2.322016  1.618389
C    -1.736726  -2.005562  1.725695
S    -2.566849  -2.276535  0.118682
C    -4.195261  -1.573697  0.486952
H    0.189010  -2.358696  2.627264
H    -0.116222  -3.327208  1.187582
H    -1.891463  -0.964365  2.038818
H    -2.202108  -2.659182  2.476576
H    -4.683992  -2.111979  1.309302
H    -4.801669  -1.688220  -0.418902
H    -4.122104  -0.506496  0.732750
O    0.299738  0.343783  2.515959
H    1.870214  1.535515  1.368973
