20
Energy: -21829.2306584 eV PBE+vdW (tier 2 basis)
N    -0.087701  0.285546  0.037413
C    0.137132  0.017737  1.456610
C    1.596225  -0.113154  1.895559
O    2.039555  0.235611  2.970529
H    0.350586  1.166268  -0.232909
H    0.344942  -0.439842  -0.536598
H    -0.272124  0.857492  2.037310
C    -0.635094  -1.251007  1.876452
C    -0.802302  -1.440773  3.385980
S    -1.776978  -0.156059  4.240548
C    -3.435955  -0.490017  3.583176
H    -0.134822  -2.141710  1.459923
H    -1.615058  -1.188329  1.382161
H    0.168755  -1.421291  3.899805
H    -1.258660  -2.419364  3.593738
H    -4.115303  0.195111  4.103538
H    -3.745866  -1.521757  3.795370
H    -3.502369  -0.292604  2.506324
O    2.377109  -0.712770  0.945644
H    3.268024  -0.777205  1.340837
