20
Energy: -21829.1004073 eV PBE+vdW (tier 2 basis)
N    0.603828  -1.189859  -0.169221
C    0.435694  -0.367705  1.042946
C    1.788300  0.004290  1.689890
O    2.257994  1.117545  1.574725
H    1.236030  -1.972957  0.008877
H    1.050839  -0.629038  -0.895037
H    0.051977  0.602632  0.705727
C    -0.638668  -0.963378  1.996650
C    -0.804227  -2.483123  1.995954
S    0.557507  -3.368173  2.851757
C    0.766578  -4.822001  1.785630
H    -1.609557  -0.556099  1.676687
H    -0.477327  -0.586470  3.018084
H    -0.840809  -2.846093  0.960829
H    -1.746011  -2.756719  2.488112
H    1.007741  -4.534080  0.755278
H    -0.136148  -5.443624  1.799753
H    1.600914  -5.397679  2.202070
O    2.480739  -0.966835  2.328669
H    1.944349  -1.805599  2.413330
