20
Energy: -21829.3438058 eV PBE+vdW (tier 2 basis)
N    -0.483114  0.538081  0.995286
C    0.150643  -0.290239  2.036530
C    1.626834  -0.550449  1.656465
O    2.062772  0.243629  0.659508
H    -1.168978  1.174073  1.400369
H    -0.967773  -0.037714  0.305032
H    0.197805  0.330743  2.946240
C    -0.564149  -1.604139  2.384558
C    -2.015482  -1.433231  2.831683
S    -2.144314  -0.288122  4.251197
C    -3.942368  -0.302044  4.483767
H    0.022961  -2.112418  3.160625
H    -0.548083  -2.268492  1.504409
H    -2.428985  -2.408678  3.124096
H    -2.638311  -1.039001  2.013224
H    -4.155658  0.369436  5.323190
H    -4.301628  -1.308073  4.735058
H    -4.464316  0.068875  3.592214
O    2.328963  -1.363290  2.214923
H    1.250730  0.769714  0.411596
