20
Energy: -21829.2515073 eV PBE+vdW (tier 2 basis)
N    -0.363673  0.319035  0.072486
C    -0.000768  -0.083565  1.447381
C    1.537120  -0.246217  1.548644
O    2.184305  0.101125  0.423171
H    -0.822945  -0.440094  -0.430044
H    1.440740  0.368035  -0.191589
H    -0.236197  0.754103  2.120362
C    -0.711175  -1.351164  1.942821
C    -2.194143  -1.149708  2.292465
S    -2.584873  -0.932718  4.060341
C    -1.670241  0.574034  4.493112
H    -0.167840  -1.742780  2.812425
H    -0.616884  -2.117101  1.153478
H    -2.775552  -2.044443  2.032148
H    -2.632198  -0.317502  1.718058
H    -1.971801  1.423205  3.864811
H    -0.584444  0.426824  4.445443
H    -1.942348  0.798611  5.531194
O    2.094546  -0.625460  2.554746
H    -0.985427  1.123832  0.052611
