20
Energy: -21829.3009601 eV PBE+vdW (tier 2 basis)
N    0.126007  0.258111  0.157395
C    0.149284  -0.160241  1.573589
C    1.618289  -0.407935  2.007750
O    2.514941  -0.012689  1.086874
H    -0.528597  1.018684  -0.010377
H    -0.139572  -0.516644  -0.451764
H    -0.179484  0.698520  2.181887
C    -0.725785  -1.373581  1.913420
C    -2.220040  -1.074542  1.824643
S    -3.172336  -2.599212  2.131834
C    -4.856320  -1.954576  1.939790
H    -0.462786  -1.709689  2.925148
H    -0.464974  -2.201492  1.232545
H    -2.491570  -0.688647  0.829237
H    -2.501145  -0.316173  2.572162
H    -5.534937  -2.799761  2.102581
H    -5.021942  -1.559427  0.928945
H    -5.074863  -1.178843  2.684948
O    1.922260  -0.882884  3.078578
H    1.941478  0.319267  0.337431
