20
Energy: -21829.2625046 eV PBE+vdW (tier 2 basis)
N    -0.305885  0.475135  0.264618
C    -0.257822  0.235504  1.702947
C    1.159718  0.302632  2.280137
O    2.184777  0.214873  1.636270
H    -0.152273  1.465385  0.073598
H    0.471560  -0.010353  -0.188019
H    -0.846704  1.017615  2.204247
C    -0.915995  -1.118770  2.073811
C    -0.198692  -2.340545  1.500413
S    -0.961771  -3.936145  1.943942
C    -2.466125  -3.898819  0.928327
H    -1.944091  -1.071597  1.690117
H    -0.972676  -1.208986  3.167015
H    0.826593  -2.418889  1.890447
H    -0.123992  -2.287573  0.404594
H    -3.156769  -3.105324  1.237893
H    -2.958538  -4.866983  1.076514
H    -2.220625  -3.786758  -0.135554
O    1.149863  0.450087  3.634393
H    2.085761  0.448633  3.916104
