20
Energy: -21829.3954163 eV PBE+vdW (tier 2 basis)
N    0.155920  -0.439007  -0.188898
C    -0.012534  -0.103937  1.238513
C    1.392389  0.058443  1.880064
O    2.381617  0.057591  0.972797
H    -0.523287  0.044268  -0.772951
H    0.039128  -1.448268  -0.339790
H    -0.458814  0.901436  1.297294
C    -0.888751  -1.047454  2.080572
C    -0.383254  -2.489264  2.197371
S    -0.776784  -3.472954  0.700400
C    0.224286  -4.949284  1.024771
H    -1.918212  -1.035142  1.690715
H    -0.927225  -0.626379  3.094763
H    -0.853069  -2.982330  3.059109
H    0.704897  -2.506580  2.356844
H    0.057559  -5.635692  0.186958
H    -0.093978  -5.439278  1.953543
H    1.291515  -4.701397  1.078553
O    1.570975  0.192377  3.071756
H    1.884196  -0.085282  0.109702
