20
Energy: -21829.2961108 eV PBE+vdW (tier 2 basis)
N    0.249020  -0.387642  -0.019062
C    -0.162165  0.000909  1.346229
C    1.050178  0.614271  2.086651
O    2.217839  0.425814  1.442631
H    -0.001041  0.328207  -0.699589
H    -0.195353  -1.256047  -0.314854
H    -0.940703  0.778807  1.335369
C    -0.709142  -1.191286  2.151789
C    0.312351  -2.302565  2.402599
S    -0.522422  -3.703581  3.218915
C    0.898184  -4.800951  3.475603
H    -1.585540  -1.595440  1.619693
H    -1.070309  -0.807299  3.114970
H    1.120678  -1.937657  3.052834
H    0.765680  -2.658992  1.465366
H    0.512462  -5.701154  3.967706
H    1.647698  -4.334751  4.127546
H    1.359115  -5.089572  2.522178
O    0.955844  1.182853  3.150892
H    1.942681  -0.046803  0.605182
