20
Energy: -21829.2095141 eV PBE+vdW (tier 2 basis)
N    0.508215  0.409023  -0.163024
C    0.075594  0.094972  1.191275
C    1.228124  0.393178  2.138788
O    2.403845  0.310305  1.854418
H    -0.111257  -0.027926  -0.848353
H    1.454024  0.052113  -0.310131
H    -0.757450  0.763373  1.466823
C    -0.391053  -1.363391  1.472357
C    -1.696128  -1.760624  0.777476
S    -1.461944  -2.133547  -1.000746
C    -3.179179  -2.500713  -1.452455
H    -0.553506  -1.470653  2.556405
H    0.416660  -2.060561  1.199046
H    -2.443408  -0.957837  0.878567
H    -2.106071  -2.663175  1.253103
H    -3.826653  -1.626980  -1.305337
H    -3.564795  -3.352926  -0.877724
H    -3.175655  -2.764110  -2.516262
O    0.790561  0.723838  3.385794
H    1.594209  0.842806  3.928819
