20
Energy: -21829.1857171 eV PBE+vdW (tier 2 basis)
N    0.515260  -0.212147  1.750795
C    1.210858  -1.227423  2.550389
C    1.680557  -2.382675  1.661971
O    0.996994  -3.308894  1.276130
H    1.104849  0.116912  0.986405
H    -0.346350  -0.588722  1.352143
H    2.102983  -0.744267  2.976141
C    0.329998  -1.766584  3.684262
C    -0.372558  -0.674648  4.502134
S    -2.038293  -0.210526  3.916219
C    -2.999981  -1.613508  4.544947
H    0.971825  -2.368992  4.346169
H    -0.406080  -2.465245  3.260325
H    0.199524  0.262469  4.482169
H    -0.465273  -0.976658  5.554725
H    -2.659361  -2.566283  4.119247
H    -4.037094  -1.446089  4.231516
H    -2.965341  -1.662521  5.641354
O    2.979259  -2.216078  1.270378
H    3.172225  -2.953122  0.657581
