20
Energy: -21829.3095217 eV PBE+vdW (tier 2 basis)
N    -1.161312  0.376152  0.664957
C    -0.310594  -0.331614  1.645675
C    1.087192  -0.558890  1.014140
O    1.254625  0.094906  -0.148658
H    -1.784722  -0.274890  0.185603
H    -1.744431  1.082389  1.109657
H    -0.134213  0.356349  2.488853
C    -0.937599  -1.631971  2.189182
C    -0.254987  -2.202395  3.434824
S    -1.030865  -3.711485  4.090197
C    -2.575606  -3.054231  4.777653
H    -0.942895  -2.397095  1.397277
H    -1.990101  -1.405137  2.420546
H    -0.209759  -1.449160  4.237414
H    0.778009  -2.488671  3.204591
H    -3.244498  -2.657882  4.003304
H    -2.375616  -2.280841  5.531115
H    -3.077621  -3.897327  5.266529
O    1.953450  -1.235906  1.523884
H    0.370541  0.543701  -0.287743
