20
Energy: -21829.2301793 eV PBE+vdW (tier 2 basis)
N    0.356413  -0.384767  -0.611113
C    -0.314002  -0.095339  0.655570
C    0.667425  0.012278  1.826704
O    1.572478  -0.764713  2.050857
H    0.957130  -1.204448  -0.496632
H    0.970785  0.387392  -0.872206
H    -0.834307  0.867978  0.557157
C    -1.350346  -1.198919  0.943495
C    -2.163543  -0.975945  2.216393
S    -3.447194  -2.265448  2.345976
C    -4.189677  -1.800774  3.933720
H    -0.826004  -2.165372  1.002368
H    -2.012982  -1.243647  0.067923
H    -2.647322  0.012644  2.202164
H    -1.524029  -1.027944  3.110201
H    -4.617204  -0.790472  3.895142
H    -3.459573  -1.866199  4.750862
H    -4.996634  -2.517718  4.124165
O    0.418522  1.100020  2.611725
H    1.081038  1.072599  3.330813
