20
Energy: -21829.1602007 eV PBE+vdW (tier 2 basis)
N    0.488933  -0.329490  -0.040313
C    -0.018897  -0.088831  1.311910
C    1.138301  -0.091608  2.302853
O    1.314688  0.725605  3.180361
H    0.892062  -1.265122  -0.107577
H    -0.278415  -0.282511  -0.711445
H    -0.420142  0.933836  1.344830
C    -1.125265  -1.072062  1.780692
C    -1.694652  -0.766501  3.164824
S    -3.078896  -1.902855  3.515251
C    -3.525030  -1.343813  5.182016
H    -0.726486  -2.097736  1.753865
H    -1.932946  -1.023623  1.033379
H    -2.059088  0.270814  3.212994
H    -0.928710  -0.889161  3.944069
H    -4.367334  -1.965651  5.506507
H    -3.841736  -0.292949  5.179050
H    -2.693083  -1.480416  5.884727
O    1.951722  -1.171719  2.126306
H    2.649502  -1.098199  2.805643
