20
Energy: -21829.2242249 eV PBE+vdW (tier 2 basis)
N    -0.134163  -0.582719  0.493694
C    0.806970  -0.357536  1.589141
C    2.286148  -0.284683  1.199315
O    3.094304  0.490080  1.665872
H    -0.093344  0.181439  -0.180280
H    0.108078  -1.436134  -0.011869
H    0.584029  0.623232  2.034059
C    0.642291  -1.438617  2.679138
C    -0.732978  -1.385020  3.339412
S    -0.887293  -2.756264  4.530731
C    -2.587604  -2.484058  5.094277
H    1.428633  -1.305598  3.436491
H    0.801315  -2.429175  2.223696
H    -1.520843  -1.469513  2.579361
H    -0.864361  -0.429634  3.870427
H    -3.301861  -2.569819  4.265154
H    -2.696278  -1.505301  5.579388
H    -2.804353  -3.267365  5.829861
O    2.620466  -1.220938  0.262274
H    3.578844  -1.113376  0.107857
