20
Energy: -21829.2255406 eV PBE+vdW (tier 2 basis)
N    2.296285  0.068902  2.925059
C    1.828912  -1.312039  2.891579
C    1.601212  -1.954030  1.514428
O    1.405549  -3.138113  1.333878
H    3.220677  0.144058  2.501877
H    1.685528  0.674655  2.377018
H    2.605331  -1.937832  3.357985
C    0.551924  -1.498429  3.745601
C    -0.650547  -0.699043  3.243158
S    -2.175917  -0.949509  4.205654
C    -2.620829  -2.639172  3.718926
H    0.790645  -1.192892  4.772607
H    0.314109  -2.570296  3.760491
H    -0.868785  -0.914127  2.185091
H    -0.465349  0.381452  3.324751
H    -2.760451  -2.714075  2.632782
H    -3.574639  -2.857928  4.213035
H    -1.879697  -3.376231  4.050606
O    1.626401  -1.052689  0.489587
H    1.458640  -1.573661  -0.320114
