20
Energy: -21829.3166537 eV PBE+vdW (tier 2 basis)
N    0.893511  -0.868405  0.134217
C    -0.191752  -0.465630  1.052435
C    0.343020  0.609509  2.032721
O    1.563261  1.069811  1.702098
H    0.553290  -1.001879  -0.815766
H    1.326475  -1.743876  0.429332
H    -0.947549  0.064171  0.451671
C    -0.905483  -1.608486  1.797665
C    -0.005425  -2.375819  2.768792
S    -0.815953  -3.773364  3.607285
C    -0.932946  -4.973154  2.252679
H    -1.331504  -2.289656  1.045867
H    -1.745454  -1.182120  2.360787
H    0.316937  -1.716369  3.586460
H    0.908384  -2.759631  2.285766
H    -1.365699  -5.882520  2.685720
H    0.059608  -5.216054  1.850182
H    -1.591147  -4.628434  1.445476
O    -0.287841  1.012321  2.984453
H    1.797267  0.535587  0.890159
