20
Energy: -21829.1309084 eV PBE+vdW (tier 2 basis)
N    0.991096  -2.139863  1.515971
C    0.907804  -0.709849  1.778817
C    2.133627  0.126029  1.390576
O    2.095862  1.242526  0.917004
H    1.790891  -2.555000  1.993743
H    1.094267  -2.330450  0.520266
H    0.085620  -0.297956  1.174798
C    0.591939  -0.446400  3.264620
C    -0.810031  -0.863180  3.711292
S    -1.084845  -2.673652  3.769520
C    -2.388992  -2.703497  5.033883
H    0.692914  0.634511  3.449395
H    1.348786  -0.949301  3.887241
H    -1.570350  -0.397101  3.065812
H    -0.969759  -0.489516  4.732725
H    -2.035980  -2.298620  5.992201
H    -2.661691  -3.756121  5.175901
H    -3.282006  -2.154982  4.706353
O    3.307574  -0.518087  1.659106
H    4.016276  0.104511  1.405774
