20
Energy: -21829.3535058 eV PBE+vdW (tier 2 basis)
N    0.361540  0.566273  0.091267
C    0.154701  -0.167739  1.356123
C    1.512602  -0.308702  2.091143
O    2.495711  0.420989  1.535073
H    -0.393224  1.224413  -0.090578
H    0.410435  -0.068432  -0.705897
H    -0.448577  0.476481  2.014678
C    -0.559213  -1.525988  1.246184
C    0.183545  -2.546665  0.380929
S    -0.611289  -4.182864  0.300023
C    -0.273824  -4.809763  1.968618
H    -1.574187  -1.374058  0.851417
H    -0.661740  -1.917423  2.266676
H    1.220621  -2.676833  0.724774
H    0.228092  -2.232404  -0.673252
H    0.804426  -4.834322  2.169107
H    -0.663557  -5.834096  1.992344
H    -0.782674  -4.223608  2.742855
O    1.663656  -0.989226  3.081952
H    2.046955  0.845967  0.748565
