20
Energy: -21829.3193979 eV PBE+vdW (tier 2 basis)
N    -0.420503  -0.436392  -0.141719
C    0.192784  -0.376457  1.199157
C    1.704846  -0.666273  1.066356
O    2.035918  -1.236009  -0.107220
H    -1.369783  -0.805770  -0.104580
H    1.173794  -1.240841  -0.612877
H    0.101927  0.619104  1.662483
C    -0.468788  -1.420131  2.124409
C    -0.010569  -1.354892  3.581604
S    -0.766412  -2.612638  4.656770
C    -2.473520  -2.009702  4.771715
H    -0.287044  -2.430316  1.726900
H    -1.556674  -1.248894  2.074888
H    -0.196176  -0.358682  4.010880
H    1.069411  -1.533068  3.657876
H    -2.504633  -0.983768  5.161818
H    -2.984276  -2.669684  5.482611
H    -3.002976  -2.061820  3.812120
O    2.507719  -0.431462  1.942877
H    -0.464045  0.483695  -0.578069
