20
Energy: -21829.2330481 eV PBE+vdW (tier 2 basis)
N    2.541234  -0.473291  3.383290
C    1.573480  -1.543135  3.143701
C    1.675693  -1.921087  1.673013
O    1.760715  -1.124086  0.761964
H    2.439494  0.240715  2.658935
H    2.358844  -0.028075  4.282792
H    1.859314  -2.421702  3.741616
C    0.103171  -1.167439  3.483863
C    -0.907634  -2.303505  3.328078
S    -2.574986  -1.930814  3.961917
C    -3.143956  -0.705476  2.751454
H    -0.179173  -0.307748  2.857430
H    0.090779  -0.821500  4.528685
H    -0.591701  -3.183967  3.906681
H    -0.997936  -2.629008  2.281455
H    -2.567206  0.225956  2.800059
H    -4.186380  -0.483260  3.007668
H    -3.111692  -1.112755  1.732497
O    1.625044  -3.265764  1.477975
H    1.658897  -3.400059  0.509927
