20
Energy: -21829.3119573 eV PBE+vdW (tier 2 basis)
N    2.408602  -2.576659  1.936841
C    1.644043  -1.348696  1.760255
C    2.493475  -0.080317  1.865280
O    3.550050  0.008119  2.454974
H    3.036025  -2.720270  1.145522
H    3.010439  -2.482412  2.758275
H    1.189630  -1.360169  0.757368
C    0.506281  -1.263174  2.806268
C    -0.513785  -2.387490  2.631060
S    -1.773894  -2.487944  3.936432
C    -2.736085  -0.981784  3.625206
H    0.018015  -0.282506  2.720119
H    0.945810  -1.317437  3.814243
H    -0.002921  -3.358700  2.659210
H    -1.016192  -2.312213  1.653775
H    -3.124192  -0.966260  2.598182
H    -2.157663  -0.070428  3.819936
H    -3.583891  -1.009591  4.319662
O    1.910011  0.977160  1.231427
H    2.496244  1.743771  1.385964
