20
Energy: -21829.2172027 eV PBE+vdW (tier 2 basis)
N    -1.049451  -0.295474  0.217332
C    -0.555090  -0.161246  1.600218
C    0.898954  -0.681555  1.657255
O    1.205647  -1.530422  0.657425
H    -0.803188  0.516128  -0.349122
H    -2.064543  -0.389721  0.191533
H    -0.507173  0.885642  1.941600
C    -1.500956  -0.936282  2.539157
C    -1.010597  -1.127952  3.981864
S    -0.054543  -2.651914  4.275752
C    -1.400973  -3.865846  4.318833
H    -1.712698  -1.917006  2.084914
H    -2.455405  -0.383302  2.552625
H    -1.861852  -1.123120  4.676689
H    -0.340077  -0.312493  4.282468
H    -0.931496  -4.840903  4.494185
H    -1.946348  -3.914398  3.366996
H    -2.102000  -3.658808  5.138419
O    1.688426  -0.345206  2.511395
H    0.394364  -1.524123  0.081462
