20
Energy: -21829.1908023 eV PBE+vdW (tier 2 basis)
N    2.319591  0.193023  2.828635
C    1.598959  -1.076246  2.957188
C    1.791060  -1.902151  1.692086
O    2.083196  -3.077513  1.654765
H    2.227155  0.731042  3.690903
H    1.917026  0.755554  2.077623
H    2.082187  -1.658909  3.754242
C    0.086694  -0.941073  3.286719
C    -0.636951  -2.269721  3.507236
S    -2.362532  -2.111544  4.071177
C    -3.164709  -1.486073  2.569467
H    -0.393500  -0.368959  2.478251
H    0.004697  -0.331864  4.199648
H    -0.145256  -2.848745  4.302461
H    -0.619588  -2.899421  2.605713
H    -2.815880  -0.482094  2.298548
H    -4.236381  -1.432538  2.793848
H    -3.016087  -2.174321  1.727124
O    1.542728  -1.168604  0.568090
H    1.682592  -1.774841  -0.184722
