20
Energy: -21829.2314783 eV PBE+vdW (tier 2 basis)
N    0.097044  -0.039670  -0.049320
C    -0.026496  -0.080454  1.416825
C    1.355222  -0.256916  2.049114
O    1.936685  -1.313664  2.201963
H    0.649705  0.766940  -0.341353
H    0.581717  -0.874908  -0.384677
H    -0.430953  0.887117  1.742608
C    -0.978114  -1.209464  1.818897
C    -1.258100  -1.322545  3.316794
S    -2.099959  0.173004  3.950357
C    -2.204371  -0.266200  5.705921
H    -0.548941  -2.166157  1.481949
H    -1.913851  -1.059605  1.262264
H    -0.324601  -1.471673  3.879134
H    -1.903834  -2.192266  3.503642
H    -2.707763  0.566620  6.210160
H    -1.206397  -0.394386  6.144667
H    -2.796124  -1.178957  5.853985
O    1.924717  0.943619  2.356718
H    2.824796  0.740825  2.679953
