20
Energy: -21829.3184417 eV PBE+vdW (tier 2 basis)
N    -0.357323  -1.197587  -0.411931
C    -0.312009  -0.763202  0.997596
C    1.166608  -0.645442  1.430892
O    2.013900  -1.283539  0.601797
H    -0.409472  -0.403373  -1.048803
H    -1.165181  -1.791934  -0.594128
H    -0.770045  0.227056  1.151870
C    -1.037970  -1.795309  1.887550
C    -1.233332  -1.348932  3.337119
S    -2.069165  -2.587564  4.380739
C    -0.710870  -3.757198  4.671081
H    -0.482704  -2.745434  1.850620
H    -2.027506  -1.990587  1.444262
H    -1.883036  -0.463179  3.379772
H    -0.280747  -1.066836  3.803415
H    -0.379288  -4.246322  3.746891
H    -1.105367  -4.524450  5.347323
H    0.138056  -3.259198  5.155957
O    1.526000  -0.068052  2.433811
H    1.418205  -1.600630  -0.136297
