20
Energy: -21829.1466091 eV PBE+vdW (tier 2 basis)
N    0.016581  0.328215  0.269770
C    0.234346  -0.081464  1.656290
C    1.676699  -0.525613  1.864833
O    2.331970  -0.315277  2.862210
H    -0.928771  0.689599  0.147812
H    0.128586  -0.463896  -0.364130
H    0.115460  0.807765  2.292318
C    -0.688903  -1.203293  2.211790
C    -2.150524  -0.771352  2.285042
S    -3.165811  -2.151493  2.910554
C    -4.805976  -1.379781  2.852087
H    -0.340920  -1.484648  3.217459
H    -0.591448  -2.094424  1.572187
H    -2.528289  -0.486493  1.290745
H    -2.262718  0.093016  2.957922
H    -5.080455  -1.099267  1.826868
H    -4.857500  -0.500368  3.506858
H    -5.517862  -2.130468  3.214249
O    2.143866  -1.256809  0.813824
H    3.053656  -1.519490  1.053121
