20
Energy: -21829.224656 eV PBE+vdW (tier 2 basis)
N    0.196816  -0.278507  -0.111650
C    -0.170603  -0.098861  1.298518
C    1.023170  -0.285901  2.236652
O    1.566071  0.593748  2.872297
H    0.931808  0.377858  -0.377692
H    0.563678  -1.219045  -0.266595
H    -0.476306  0.948844  1.429992
C    -1.346253  -1.020825  1.653748
C    -1.844395  -0.837247  3.086872
S    -3.284077  -1.861201  3.532708
C    -2.527513  -3.509581  3.607430
H    -1.037728  -2.064387  1.490141
H    -2.157163  -0.810406  0.943508
H    -2.187938  0.195100  3.247061
H    -1.046490  -1.023514  3.822218
H    -2.171432  -3.847592  2.626790
H    -3.315300  -4.192545  3.945953
H    -1.704457  -3.533367  4.333440
O    1.467410  -1.580743  2.252529
H    2.252388  -1.585418  2.833455
