20
Energy: -21829.186485 eV PBE+vdW (tier 2 basis)
N    2.883395  -2.096118  1.434897
C    1.719353  -1.242216  1.682204
C    2.161696  0.062442  2.331282
O    1.755934  1.165773  2.035636
H    2.589450  -2.954775  0.968152
H    3.319573  -2.366722  2.317495
H    1.302354  -0.949217  0.708160
C    0.591676  -1.897474  2.528796
C    -0.667807  -1.044198  2.682404
S    -2.001061  -1.821776  3.650505
C    -2.552901  -3.121817  2.513024
H    0.987847  -2.158864  3.521416
H    0.342471  -2.845636  2.027590
H    -1.068448  -0.745212  1.701681
H    -0.452043  -0.114542  3.227034
H    -3.417700  -3.598532  2.989110
H    -1.783883  -3.886655  2.348192
H    -2.871387  -2.696969  1.551996
O    3.043775  -0.150548  3.348853
H    3.252706  0.731056  3.713572
