20
Energy: -21829.2096806 eV PBE+vdW (tier 2 basis)
N    -0.351873  -0.612193  -0.648261
C    -0.259806  -0.294540  0.771916
C    1.143656  -0.150136  1.380483
O    1.368439  0.292280  2.488056
H    0.048025  0.138862  -1.209694
H    0.187623  -1.448555  -0.871244
H    -0.724112  0.692194  0.923249
C    -1.074296  -1.292388  1.629434
C    -0.569133  -2.733017  1.548231
S    -1.474077  -3.908582  2.606848
C    -0.899395  -3.403185  4.253039
H    -2.117191  -1.250639  1.289371
H    -1.045421  -0.939529  2.668769
H    0.502832  -2.802805  1.791877
H    -0.700757  -3.139082  0.535270
H    -1.220963  -2.387180  4.511314
H    0.192733  -3.479716  4.330730
H    -1.353853  -4.103761  4.963177
O    2.137250  -0.584184  0.551222
H    2.968095  -0.453560  1.049009
