20
Energy: -21829.1948814 eV PBE+vdW (tier 2 basis)
N    2.114573  -2.134145  0.303123
C    0.847682  -1.466137  0.592950
C    1.175805  -0.194687  1.361984
O    0.368858  0.845216  1.018734
H    1.946186  -3.084954  -0.024825
H    2.673127  -2.191377  1.157080
H    0.365130  -1.180604  -0.352665
C    -0.153983  -2.319049  1.423760
C    -1.569682  -1.756234  1.563821
S    -2.445801  -1.815868  -0.037867
C    -3.975362  -0.960818  0.417928
H    0.273718  -2.477272  2.426309
H    -0.204971  -3.309884  0.944880
H    -1.550898  -0.714645  1.916311
H    -2.133897  -2.351835  2.295780
H    -4.507723  -1.492379  1.217478
H    -4.607445  -0.946967  -0.477431
H    -3.775650  0.073793  0.725589
O    2.032433  -0.107500  2.217198
H    0.637897  1.591347  1.590863
