20
Energy: -21829.2003975 eV PBE+vdW (tier 2 basis)
N    -1.026642  -0.115986  0.228692
C    -0.062108  -0.722203  1.139402
C    1.282860  -1.093302  0.469387
O    1.462701  -1.035563  -0.727451
H    -0.629661  0.741803  -0.159367
H    -1.143114  -0.730588  -0.581475
H    0.174253  0.034599  1.905849
C    -0.691841  -1.955968  1.845452
C    -0.750007  -1.858872  3.369099
S    0.903030  -1.786958  4.179450
C    0.933005  -0.096384  4.846669
H    -0.173760  -2.881589  1.554637
H    -1.723975  -2.044330  1.475191
H    -1.262636  -2.733208  3.790319
H    -1.306753  -0.966409  3.685065
H    0.139815  0.038073  5.591090
H    0.842839  0.657840  4.056560
H    1.905191  0.020026  5.339512
O    2.269905  -1.489233  1.303933
H    1.937747  -1.526760  2.244732
