20
Energy: -21829.2342403 eV PBE+vdW (tier 2 basis)
N    0.600625  -0.612039  -0.212694
C    0.531493  -0.151256  1.167346
C    1.946553  0.080524  1.671779
O    2.952202  -0.392670  1.184616
H    -0.202240  -1.191142  -0.451812
H    1.453211  -1.153915  -0.359574
H    0.021840  0.826497  1.203189
C    -0.237270  -1.078081  2.155871
C    0.422561  -2.435023  2.392647
S    -0.585771  -3.615290  3.345582
C    -0.574573  -2.844062  4.989093
H    -1.247865  -1.228950  1.746540
H    -0.361102  -0.540524  3.106832
H    1.400314  -2.328365  2.886383
H    0.604946  -2.952049  1.439667
H    -1.109075  -1.886653  5.002937
H    0.452193  -2.706119  5.352223
H    -1.092361  -3.541905  5.657381
O    1.964007  0.870604  2.780187
H    2.901000  0.935798  3.048410
