20
Energy: -21829.0108811 eV PBE+vdW (tier 2 basis)
N    -0.057000  -1.505864  3.209582
C    0.455316  -1.497196  1.829555
C    1.868340  -0.886099  1.780199
O    2.869857  -1.528250  1.991346
H    -0.084768  -0.557567  3.590201
H    0.568705  -2.045383  3.809024
H    0.593259  -2.546561  1.532258
C    -0.557855  -0.837158  0.884154
C    -1.855665  -1.635807  0.772782
S    -3.048888  -0.717471  -0.254017
C    -4.468578  -1.838744  -0.156780
H    -0.108768  -0.720080  -0.114093
H    -0.809444  0.177822  1.247622
H    -2.279520  -1.802184  1.771779
H    -1.657822  -2.615000  0.310914
H    -4.231810  -2.820658  -0.586129
H    -5.270763  -1.380600  -0.746643
H    -4.813226  -1.956829  0.878462
O    1.956862  0.465171  1.577145
H    1.075769  0.821458  1.361640
