20
Energy: -21829.2670595 eV PBE+vdW (tier 2 basis)
N    -0.507011  -0.112074  0.401255
C    0.280398  -0.703413  1.503359
C    1.790679  -0.604008  1.170182
O    2.041460  0.060903  0.029560
H    -1.003750  -0.827498  -0.128906
H    1.126371  0.303279  -0.296124
H    0.149894  -0.070535  2.393557
C    -0.101922  -2.150349  1.845819
C    -1.433779  -2.290937  2.600253
S    -1.319646  -2.503287  4.406207
C    -0.496482  -0.978481  4.941053
H    0.711625  -2.601640  2.428349
H    -0.149900  -2.716305  0.899270
H    -1.957405  -3.204969  2.289106
H    -2.112609  -1.452785  2.373845
H    0.538330  -0.918756  4.582337
H    -0.479414  -1.018751  6.036624
H    -1.061220  -0.086631  4.636597
O    2.654273  -1.061858  1.885345
H    -1.193893  0.562095  0.730312
