20
Energy: -21829.3239365 eV PBE+vdW (tier 2 basis)
N    -0.722843  -0.378917  0.052114
C    -0.333606  -0.494090  1.473693
C    1.205379  -0.666639  1.548303
O    1.821298  -0.419995  0.378773
H    -1.487340  0.281567  -0.075577
H    -1.038407  -1.279147  -0.312281
H    -0.535760  0.481374  1.946757
C    -1.089399  -1.590597  2.251934
C    -1.027317  -1.443912  3.774859
S    -1.960425  -2.717768  4.682207
C    -0.836851  -4.134335  4.529614
H    -0.694228  -2.574026  1.952377
H    -2.144456  -1.562479  1.940382
H    -1.486888  -0.492793  4.082834
H    0.011569  -1.435025  4.126694
H    -0.727524  -4.467370  3.490233
H    -1.287178  -4.948195  5.109746
H    0.148657  -3.900137  4.950958
O    1.801679  -0.972337  2.558262
H    1.061639  -0.223182  -0.242882
