20
Energy: -21829.2129989 eV PBE+vdW (tier 2 basis)
N    -0.693065  0.912403  0.967873
C    -0.047291  0.130821  2.020043
C    1.474059  0.003410  1.933909
O    2.227248  -0.053323  2.882529
H    -0.389890  0.591575  0.047353
H    -0.432432  1.895236  1.038683
H    -0.247104  0.622613  2.982561
C    -0.650926  -1.291215  2.080493
C    -2.137791  -1.292936  2.430697
S    -2.388560  -0.856812  4.188235
C    -4.187989  -0.636091  4.190361
H    -0.085127  -1.894231  2.806328
H    -0.518458  -1.771503  1.097518
H    -2.565300  -2.288591  2.246593
H    -2.664463  -0.558920  1.805223
H    -4.471389  -0.369791  5.215161
H    -4.704445  -1.563712  3.911590
H    -4.489102  0.175838  3.516008
O    1.916867  -0.074450  0.641490
H    2.885168  -0.187363  0.700890
