20
Energy: -21829.1814198 eV PBE+vdW (tier 2 basis)
N    2.542306  -0.313150  3.446825
C    1.622435  -1.368879  3.033265
C    1.851622  -1.629663  1.549449
O    2.809372  -1.234753  0.917468
H    2.797888  -0.416364  4.426816
H    3.391508  -0.352317  2.881638
H    1.833973  -2.349216  3.516068
C    0.167366  -0.976285  3.395665
C    -0.804050  -2.146305  3.551926
S    -2.453777  -1.675327  4.164806
C    -3.147723  -0.855602  2.702958
H    -0.199338  -0.250344  2.656145
H    0.220372  -0.434172  4.350079
H    -0.429748  -2.851894  4.309303
H    -0.923496  -2.710862  2.618557
H    -2.612167  0.068139  2.452696
H    -4.183065  -0.599809  2.956758
H    -3.153749  -1.531125  1.837709
O    0.876653  -2.396232  0.987994
H    1.144620  -2.521840  0.056872
