20
Energy: -21829.2059914 eV PBE+vdW (tier 2 basis)
N    0.400246  -0.151008  -0.027464
C    0.070827  -0.004813  1.393883
C    1.276765  -0.201203  2.315665
O    1.751189  0.643670  3.046549
H    1.116714  0.521910  -0.301608
H    0.777559  -1.082108  -0.211115
H    -0.246767  1.034572  1.557608
C    -1.084085  -0.950131  1.758151
C    -1.535718  -0.818319  3.210825
S    -2.941349  -1.939631  3.515254
C    -3.236074  -1.593467  5.270810
H    -0.778743  -1.988620  1.557628
H    -1.914888  -0.720642  1.076117
H    -1.846184  0.214884  3.428433
H    -0.721112  -1.079768  3.903302
H    -4.080550  -2.221729  5.576680
H    -3.502652  -0.540874  5.431347
H    -2.362258  -1.854116  5.881886
O    1.804943  -1.457734  2.207852
H    2.577327  -1.476224  2.804984
