20
Energy: -21829.2766332 eV PBE+vdW (tier 2 basis)
N    0.407453  -0.152647  0.152090
C    0.073093  -0.135953  1.570873
C    1.294638  0.077563  2.479569
O    2.403166  0.387235  2.100220
H    1.192254  -0.788966  -0.004068
H    0.758362  0.763904  -0.126163
H    -0.546081  0.759512  1.753791
C    -0.812631  -1.338868  1.957075
C    -0.289248  -2.709871  1.526700
S    1.336192  -3.207574  2.185363
C    0.948475  -3.446035  3.941758
H    -1.785726  -1.192621  1.463402
H    -1.000189  -1.317887  3.038713
H    -0.161189  -2.742174  0.435684
H    -1.024621  -3.487239  1.781007
H    0.154684  -4.193563  4.069393
H    0.665516  -2.504498  4.426653
H    1.865056  -3.823571  4.409873
O    0.970802  0.002455  3.807606
H    1.794245  0.217749  4.286868
