34
Energy: -18219.098817 eV PBE+vdW (tier 2 basis)
C    -0.462192  0.201052  -0.047391
C    -0.851536  -0.710982  1.098035
O    -0.739716  -1.936164  1.018814
H    0.628879  0.162838  -0.168800
H    -0.903816  -0.186788  -0.972222
H    -0.764130  1.246644  0.085975
N    -1.297829  -0.069807  2.221751
C    -1.787154  -0.641129  3.477383
C    -0.832296  -0.685035  4.699327
O    -1.369896  -0.770204  5.805440
H    -1.344381  0.941178  2.170291
H    -2.546384  0.073055  3.824206
C    -2.514686  -2.005385  3.352477
C    -1.629629  -3.241148  3.554158
C    -2.321899  -4.559202  3.177917
C    -3.524112  -4.856463  4.058376
N    -4.131271  -6.209902  3.690758
H    -3.002737  -2.042402  2.368483
H    -3.306179  -1.985710  4.115477
H    -1.285691  -3.290929  4.598395
H    -0.747461  -3.156093  2.909563
H    -1.592258  -5.381029  3.269523
H    -2.630390  -4.514494  2.119576
H    -3.258828  -4.920257  5.121325
H    -4.332812  -4.125533  3.942149
H    -3.436850  -6.961168  3.803592
H    -4.429470  -6.217320  2.705748
H    -4.947559  -6.441839  4.272023
N    0.520278  -0.637519  4.575069
C    1.394674  -0.691400  3.408509
H    0.971660  -0.632648  5.485892
H    2.397368  -0.961309  3.756437
H    1.465386  0.276488  2.893193
H    1.074004  -1.456547  2.692369
