34
Energy: -18219.5686016 eV PBE+vdW (tier 2 basis)
C    -0.012448  -0.248459  0.294553
C    -0.274942  0.975485  1.130485
O    0.578898  1.901574  1.185515
H    0.900456  -0.087635  -0.286444
H    0.132736  -1.110255  0.960638
H    -0.841375  -0.516354  -0.371996
N    -1.404553  1.097066  1.864501
C    -2.755966  0.591972  1.591049
C    -2.727691  -0.928203  1.275567
O    -2.085615  -1.672519  2.005649
H    -1.370941  1.914184  2.472011
H    -3.279725  0.614965  2.558692
C    -3.506128  1.567690  0.637883
C    -2.692632  2.123126  -0.553699
C    -2.029181  3.476530  -0.227046
C    -0.942092  3.970533  -1.175763
N    0.315630  3.121193  -1.124377
H    -3.856536  2.416658  1.244825
H    -4.435689  1.093723  0.291854
H    -3.356945  2.257552  -1.418993
H    -1.949250  1.376265  -0.873110
H    -1.610721  3.469544  0.789026
H    -2.805783  4.255897  -0.218157
H    -1.274700  3.998036  -2.221351
H    -0.636304  4.983957  -0.891948
H    0.507588  2.701820  -0.130997
H    0.245723  2.316673  -1.756117
H    1.135877  3.660289  -1.420396
N    -3.450948  -1.351033  0.204829
C    -3.615404  -2.764857  -0.108653
H    -4.008162  -0.681505  -0.310221
H    -2.904394  -3.329713  0.501655
H    -3.411847  -2.946747  -1.170902
H    -4.632587  -3.106247  0.124907
