34
Energy: -18219.3402665 eV PBE+vdW (tier 2 basis)
C    -0.350313  0.971620  2.539014
C    -1.285223  1.934731  1.871128
O    -0.880057  3.091941  1.568189
H    -0.429386  -0.053916  2.161485
H    0.671737  1.344818  2.426075
H    -0.606751  0.916640  3.605295
N    -2.573276  1.626326  1.590102
C    -3.262555  0.359077  1.289403
C    -3.009135  -0.706574  2.390984
O    -2.657267  -0.336463  3.505984
H    -3.072920  2.447576  1.253599
H    -4.331829  0.589935  1.440237
C    -3.132115  0.036622  -0.220334
C    -1.780083  -0.376587  -0.829164
C    -0.644345  0.667310  -0.932725
C    -1.039115  2.020286  -1.537262
N    -0.203872  3.132211  -0.949459
H    -3.527612  0.916652  -0.753864
H    -3.852958  -0.751930  -0.462741
H    -1.997987  -0.747842  -1.841775
H    -1.373821  -1.240842  -0.282549
H    0.163771  0.227617  -1.534846
H    -0.205726  0.831365  0.057616
H    -2.075729  2.288483  -1.305182
H    -0.923636  2.038367  -2.627179
H    0.799852  2.952217  -1.063449
H    -0.431501  3.208486  0.122281
H    -0.408259  4.034625  -1.392306
N    -3.238047  -2.029637  2.140586
C    -3.946377  -2.715389  1.063747
H    -3.104485  -2.568374  2.992831
H    -4.894875  -2.223972  0.808088
H    -3.334828  -2.825079  0.158245
H    -4.188586  -3.722810  1.416460
