34
Energy: -18219.1996083 eV PBE+vdW (tier 2 basis)
C    -0.267605  0.663473  0.162219
C    -0.232210  -0.546574  1.076505
O    0.798138  -0.913499  1.621552
H    0.703572  0.731616  -0.337590
H    -1.064867  0.654485  -0.588972
H    -0.376140  1.570324  0.775381
N    -1.410974  -1.251282  1.293224
C    -2.778608  -0.889230  0.948495
C    -3.050161  -0.828028  -0.585300
O    -3.809012  0.023522  -1.051476
H    -1.284421  -1.992469  1.977989
H    -3.396516  -1.722478  1.319777
C    -3.303996  0.406321  1.612887
C    -4.822928  0.381670  1.859194
C    -5.487681  1.751281  2.050506
C    -4.980761  2.588108  3.217568
N    -3.617242  3.201321  2.904583
H    -3.051370  1.240911  0.936477
H    -2.749670  0.512063  2.563913
H    -5.044162  -0.259659  2.727075
H    -5.304279  -0.081507  0.988630
H    -6.563651  1.605767  2.224979
H    -5.421906  2.337005  1.117310
H    -5.642660  3.431374  3.446690
H    -4.841125  1.993798  4.129854
H    -2.956477  2.455781  2.627535
H    -3.686199  3.854604  2.113147
H    -3.226986  3.711148  3.707404
N    -2.428610  -1.786463  -1.304950
C    -2.574004  -1.922755  -2.745620
H    -1.763694  -2.378251  -0.816950
H    -3.357220  -1.233552  -3.075137
H    -2.861578  -2.948662  -3.005891
H    -1.637531  -1.673378  -3.262381
