34
Energy: -18219.9397968 eV PBE+vdW (tier 2 basis)
C    -0.497048  -0.644140  0.078882
C    -1.217817  -1.355588  1.205406
O    -0.631620  -2.105084  1.968591
H    0.340170  -1.279518  -0.227360
H    -0.069604  0.294103  0.458867
H    -1.119382  -0.412841  -0.793678
N    -2.602484  -1.201569  1.362912
C    -3.566563  -0.242205  0.824361
C    -4.171108  -0.680203  -0.526113
O    -5.148163  -0.068822  -1.034387
H    -2.914642  -1.730629  2.173741
H    -4.417457  -0.292607  1.520455
C    -3.028406  1.217158  0.835733
C    -3.936908  2.392848  0.443373
C    -5.081526  2.790583  1.392798
C    -6.298723  1.871218  1.477156
N    -6.814664  1.522871  0.108207
H    -2.156006  1.263428  0.173911
H    -2.644850  1.380354  1.854159
H    -4.305860  2.260687  -0.584363
H    -3.276483  3.270119  0.385315
H    -5.432320  3.792690  1.098573
H    -4.697503  2.906627  2.417501
H    -7.106404  2.350642  2.043488
H    -6.073947  0.916236  1.967137
H    -7.708906  1.024556  0.158250
H    -6.072768  0.862647  -0.399127
H    -6.964047  2.365127  -0.458141
N    -3.628240  -1.743722  -1.113116
C    -4.076479  -2.315502  -2.374766
H    -2.905535  -2.220100  -0.577935
H    -3.219651  -2.453728  -3.044446
H    -4.794295  -1.632787  -2.836709
H    -4.557293  -3.287903  -2.206856
