34
Energy: -18220.1162813 eV PBE+vdW (tier 2 basis)
C    -1.621590  1.712670  -0.013719
C    -0.579789  0.880845  0.705635
O    0.612871  1.127766  0.674770
H    -2.435741  2.034182  0.650726
H    -2.067183  1.150680  -0.848070
H    -1.123406  2.594689  -0.423667
N    -1.037627  -0.208905  1.450909
C    -2.376738  -0.757364  1.489013
C    -3.253146  -0.222512  2.631825
O    -4.465533  -0.559658  2.693361
H    -0.278605  -0.783252  1.811814
H    -2.905785  -0.431708  0.579008
C    -2.362549  -2.306576  1.524736
C    -2.555000  -2.971739  0.158823
C    -3.928841  -2.764209  -0.502961
C    -5.142367  -3.199133  0.330653
N    -5.796121  -2.048627  1.056394
H    -3.127651  -2.661111  2.230276
H    -1.406758  -2.635397  1.957261
H    -2.384844  -4.052596  0.275572
H    -1.778577  -2.622312  -0.538133
H    -3.943188  -3.339990  -1.437827
H    -4.062271  -1.716184  -0.820939
H    -4.866851  -3.937846  1.094007
H    -5.913769  -3.652443  -0.302731
H    -6.571071  -2.383084  1.640238
H    -6.201508  -1.390049  0.382178
H    -5.121881  -1.451392  1.724686
N    -2.679716  0.591398  3.510061
C    -3.350843  1.198790  4.650745
H    -1.694924  0.791137  3.339025
H    -3.298485  2.292164  4.581781
H    -2.873914  0.877511  5.584816
H    -4.397693  0.883718  4.650793
