34
Energy: -18219.3477258 eV PBE+vdW (tier 2 basis)
C    0.105842  1.512819  1.137017
C    -0.378774  0.118283  1.465287
O    0.404605  -0.829567  1.612485
H    -0.690689  2.203067  0.835172
H    0.858891  1.452849  0.342906
H    0.607301  1.924626  2.023413
N    -1.732451  -0.028604  1.579215
C    -2.448172  -1.222677  2.055544
C    -2.353001  -1.464454  3.591931
O    -3.383100  -1.660793  4.229499
H    -2.279528  0.825619  1.580369
H    -3.511986  -1.000152  1.902154
C    -2.130629  -2.543268  1.326696
C    -2.390802  -2.582089  -0.186974
C    -1.331511  -1.869750  -1.044150
C    -1.345048  -2.268820  -2.509853
N    -0.885445  -3.717187  -2.667300
H    -2.777529  -3.292850  1.804479
H    -1.093795  -2.842263  1.527660
H    -3.388128  -2.176923  -0.420604
H    -2.446124  -3.655641  -0.456586
H    -0.324216  -2.022654  -0.621182
H    -1.490256  -0.783769  -1.013644
H    -0.659966  -1.668042  -3.119394
H    -2.348119  -2.223052  -2.953463
H    0.088859  -3.824441  -2.353694
H    -0.947941  -4.045471  -3.639306
H    -1.466696  -4.333512  -2.079937
N    -1.098536  -1.473254  4.107826
C    -0.837861  -1.704459  5.519288
H    -0.314755  -1.365021  3.464053
H    -0.231034  -0.891988  5.939293
H    -0.310798  -2.656116  5.674174
H    -1.798901  -1.744147  6.041236
