34
Energy: -18220.3072932 eV PBE+vdW (tier 2 basis)
C    1.168742  0.380379  0.846007
C    0.625545  0.110405  2.228381
O    1.204338  0.430459  3.256560
H    1.036801  1.447536  0.620183
H    0.680221  -0.206346  0.058520
H    2.245071  0.178114  0.839842
N    -0.600741  -0.550023  2.273329
C    -1.312573  -0.663553  3.533803
C    -1.609795  -2.124539  3.912696
O    -2.599497  -2.450358  4.617640
H    -1.106485  -0.686502  1.404103
H    -0.567017  -0.317332  4.275808
C    -2.543242  0.242668  3.656546
C    -3.721799  -0.128161  2.738897
C    -5.106808  0.239483  3.298507
C    -5.411927  -0.296969  4.696766
N    -5.091868  -1.765088  4.819845
H    -2.221018  1.275684  3.470272
H    -2.843796  0.217892  4.712962
H    -3.700427  -1.208263  2.518361
H    -3.613599  0.363854  1.762511
H    -5.882675  -0.105296  2.597764
H    -5.219463  1.332345  3.354609
H    -6.470431  -0.155736  4.946026
H    -4.818271  0.204024  5.470291
H    -5.368422  -2.125309  5.739384
H    -4.012793  -1.966344  4.702336
H    -5.596872  -2.314103  4.115420
N    -0.708484  -3.021933  3.507174
C    -0.722073  -4.433407  3.859343
H    0.062788  -2.659985  2.952255
H    -1.652050  -4.653001  4.390211
H    0.127407  -4.673072  4.511823
H    -0.661788  -5.050523  2.954824
