34
Energy: -18219.055768 eV PBE+vdW (tier 2 basis)
C    -0.069960  -0.309156  -0.221906
C    -0.141328  -0.383010  1.288255
O    0.579615  -1.123515  1.952626
H    -0.553111  0.581182  -0.642530
H    -0.558907  -1.200701  -0.638414
H    0.979518  -0.335883  -0.533511
N    -1.076659  0.443257  1.875057
C    -1.498341  0.249334  3.265951
C    -3.005024  0.522017  3.452491
O    -3.699863  -0.315955  4.015683
H    -1.753696  0.867389  1.249804
H    -1.397550  -0.821823  3.490165
C    -0.669916  1.018260  4.322202
C    0.734139  0.440330  4.523585
C    1.452335  1.030220  5.746285
C    2.814964  0.379286  5.906335
N    3.538840  0.907328  7.144982
H    -1.228189  0.952393  5.270317
H    -0.608317  2.085134  4.061142
H    1.341866  0.598997  3.622253
H    0.658729  -0.651406  4.635244
H    0.846467  0.857051  6.652251
H    1.566480  2.121803  5.633800
H    3.479521  0.581694  5.057297
H    2.742337  -0.707266  6.039975
H    4.462973  0.471884  7.267193
H    2.987742  0.722948  7.994418
H    3.674311  1.925514  7.083572
N    -3.549021  1.682048  2.959338
C    -2.906008  2.945354  2.619722
H    -4.547851  1.728003  3.149857
H    -3.469120  3.438602  1.817938
H    -1.885225  2.785031  2.259538
H    -2.861087  3.629609  3.481634
