34
Energy: -18220.2334159 eV PBE+vdW (tier 2 basis)
C    0.705585  2.004913  2.140035
C    0.438649  0.576284  2.535714
O    1.348507  -0.294417  2.458147
H    1.581891  2.379846  2.683896
H    -0.143942  2.673003  2.315782
H    0.959092  2.026021  1.071709
N    -0.800111  0.293587  2.949540
C    -1.345645  -0.994356  3.364796
C    -2.710456  -0.628893  4.002718
O    -2.941513  0.543327  4.311589
H    -1.460610  1.054349  3.149594
H    -1.515688  -1.608404  2.465970
C    -0.437036  -1.809465  4.319344
C    0.197931  -1.006647  5.459180
C    1.420174  -1.688125  6.097284
C    2.557102  -2.077063  5.152338
N    3.046711  -0.918740  4.316441
H    0.335128  -2.269874  3.692106
H    -1.025499  -2.639062  4.734079
H    -0.540807  -0.816999  6.250062
H    0.481801  -0.005969  5.100213
H    1.117790  -2.618651  6.601422
H    1.818274  -1.039388  6.893320
H    2.257814  -2.852683  4.437829
H    3.411439  -2.459783  5.723763
H    2.315279  -0.617872  3.552896
H    3.907999  -1.167963  3.818276
H    3.260443  -0.104988  4.903793
N    -3.610399  -1.618177  4.206844
C    -3.552248  -3.020026  3.818249
H    -4.461759  -1.292090  4.657122
H    -4.560208  -3.356244  3.551013
H    -3.179303  -3.662633  4.629405
H    -2.916450  -3.159591  2.937101
