34
Energy: -18220.3110692 eV PBE+vdW (tier 2 basis)
C    -2.217915  0.110355  0.034871
C    -1.250779  0.235439  1.183959
O    -0.104270  0.683104  1.026948
H    -3.233133  -0.170765  0.336546
H    -1.833604  -0.648804  -0.659596
H    -2.248299  1.060884  -0.509939
N    -1.710113  -0.162794  2.406822
C    -0.920615  -0.358330  3.628624
C    -0.312866  0.903370  4.257762
O    -0.241496  0.962154  5.518578
H    -2.669110  -0.487358  2.451852
H    -1.639464  -0.707905  4.380829
C    0.165746  -1.459692  3.466080
C    0.707286  -2.027980  4.801081
C    2.207468  -1.822220  5.070789
C    2.708851  -0.394660  5.268881
N    2.055793  0.283748  6.450649
H    0.976304  -1.075333  2.830910
H    -0.303583  -2.268596  2.891606
H    0.537464  -3.112458  4.812956
H    0.113520  -1.640790  5.642787
H    2.497235  -2.419324  5.951386
H    2.791283  -2.238473  4.235755
H    2.502124  0.244766  4.400610
H    3.792381  -0.394502  5.436849
H    1.992002  -0.349469  7.255491
H    2.586738  1.108621  6.747496
H    1.046257  0.615981  6.156423
N    0.166322  1.843507  3.449678
C    0.767209  3.079820  3.922831
H    0.168871  1.605151  2.434582
H    0.525800  3.887417  3.223751
H    1.863600  2.998717  3.982816
H    0.370995  3.326416  4.913341
