34
Energy: -18219.050192 eV PBE+vdW (tier 2 basis)
C    -0.057668  0.101803  0.088997
C    -0.038975  0.173398  1.600540
O    0.969406  0.414181  2.249278
H    0.971468  0.187743  -0.267894
H    -0.652185  0.919764  -0.342969
H    -0.488714  -0.841584  -0.274352
N    -1.238513  -0.058627  2.260776
C    -2.562538  -0.113117  1.676157
C    -3.120189  1.180813  1.024013
O    -3.811848  1.053516  0.006944
H    -1.157346  0.073457  3.265996
H    -2.527731  -0.798244  0.815510
C    -3.546432  -0.680334  2.722331
C    -5.023486  -0.754861  2.301181
C    -5.332389  -1.513803  0.998498
C    -4.832715  -2.943747  0.926669
N    -5.479436  -3.803484  2.015904
H    -3.492125  -0.066532  3.634766
H    -3.159317  -1.671303  3.017743
H    -5.420612  0.260919  2.170938
H    -5.600858  -1.166519  3.149110
H    -4.873533  -0.967667  0.158442
H    -6.417334  -1.492896  0.805899
H    -3.751023  -3.032067  1.087168
H    -5.084377  -3.425025  -0.025506
H    -5.141151  -4.774131  1.997975
H    -6.502248  -3.819909  1.904346
H    -5.279864  -3.411246  2.946249
N    -2.872169  2.398901  1.564534
C    -2.130414  2.779692  2.763487
H    -3.274315  3.152250  1.012838
H    -2.440911  2.195028  3.638592
H    -2.361269  3.827810  2.979263
H    -1.044117  2.686259  2.636896
