34
Energy: -18219.8212221 eV PBE+vdW (tier 2 basis)
C    -2.096448  1.284990  -1.669190
C    -1.479802  0.088377  -1.004325
O    -0.821775  -0.750983  -1.664558
H    -2.280391  2.117138  -0.982128
H    -3.049740  1.001752  -2.141162
H    -1.428927  1.605502  -2.476623
N    -1.641674  -0.069366  0.337165
C    -2.873579  0.264940  1.071941
C    -2.756219  1.399273  2.111766
O    -3.747648  1.693463  2.769292
H    -1.110828  -0.853907  0.711418
H    -3.600525  0.632397  0.335140
C    -3.452701  -1.006509  1.750860
C    -3.295574  -2.313951  0.954662
C    -3.831144  -2.284658  -0.487451
C    -3.238519  -3.334931  -1.423428
N    -1.727629  -3.229375  -1.547731
H    -4.508271  -0.801583  1.966804
H    -2.970170  -1.139301  2.730094
H    -3.794292  -3.117813  1.514709
H    -2.228504  -2.598923  0.960283
H    -3.688271  -1.296024  -0.944268
H    -4.919249  -2.442026  -0.484398
H    -3.639225  -3.215600  -2.436581
H    -3.459425  -4.356879  -1.089589
H    -1.263696  -3.675602  -0.749996
H    -1.352444  -2.200807  -1.592717
H    -1.400599  -3.716772  -2.389032
N    -1.543837  1.999702  2.208767
C    -1.282599  3.092325  3.134160
H    -0.800244  1.675937  1.600784
H    -0.486339  2.823955  3.840134
H    -2.205028  3.286669  3.690266
H    -0.990852  4.001865  2.593456
