34
Energy: -18219.2314517 eV PBE+vdW (tier 2 basis)
C    -0.282928  -0.380524  0.218154
C    -0.267164  0.089724  1.657790
O    0.641213  0.813755  2.086837
H    -1.073678  -1.104390  -0.010733
H    0.689654  -0.826019  -0.021324
H    -0.407403  0.494813  -0.433354
N    -1.327378  -0.318497  2.409705
C    -1.632057  -0.077632  3.824966
C    -2.750550  0.945332  4.158347
O    -3.297481  0.817688  5.251941
H    -2.000670  -0.908076  1.933440
H    -2.081627  -1.017312  4.174095
C    -0.409238  0.176233  4.736665
C    -0.009943  1.648648  4.920007
C    1.437401  1.824664  5.408090
C    2.429670  1.626257  4.272946
N    3.862777  1.731093  4.794886
H    0.423665  -0.424398  4.347695
H    -0.665739  -0.236265  5.721692
H    -0.681380  2.115105  5.652570
H    -0.126219  2.200026  3.978162
H    1.643619  1.109634  6.223814
H    1.562526  2.835675  5.828823
H    2.330476  2.388871  3.492440
H    2.344236  0.650598  3.783541
H    4.551348  1.618925  4.039539
H    4.048615  1.008336  5.502947
H    4.026652  2.644069  5.240401
N    -3.110476  1.940080  3.299794
C    -2.548633  2.385939  2.030771
H    -3.880882  2.486127  3.676234
H    -2.920520  3.397886  1.838065
H    -2.852943  1.749755  1.187754
H    -1.453651  2.437294  2.060792
