34
Energy: -18220.2466024 eV PBE+vdW (tier 2 basis)
C    -1.992599  -0.293175  -0.149715
C    -1.228176  -0.089027  1.135864
O    -0.035706  0.192240  1.172606
H    -2.070267  0.671660  -0.668126
H    -1.419855  -0.964063  -0.799982
H    -3.000909  -0.699300  -0.005354
N    -1.961523  -0.243746  2.300282
C    -1.369164  0.055753  3.592868
C    -1.531912  -1.151799  4.527192
O    -2.310933  -1.134439  5.518932
H    -2.958492  -0.419377  2.239278
H    -0.298239  0.195588  3.367731
C    -1.909365  1.348324  4.213217
C    -1.072022  1.847867  5.410593
C    -1.875345  2.556980  6.513661
C    -2.443924  1.640147  7.591919
N    -3.421092  0.626298  7.050129
H    -2.966572  1.199816  4.482917
H    -1.914326  2.111009  3.423826
H    -0.305265  2.535670  5.031905
H    -0.512889  1.013370  5.863811
H    -2.678432  3.171351  6.074472
H    -1.225731  3.265843  7.046806
H    -2.959630  2.217182  8.369577
H    -1.644845  1.059247  8.070808
H    -3.790961  0.038373  7.804931
H    -2.946715  -0.049672  6.314366
H    -4.221479  1.089474  6.606971
N    -0.841897  -2.266982  4.262549
C    0.058404  -2.546722  3.148379
H    -1.051297  -3.036235  4.895717
H    -0.479921  -3.024935  2.318566
H    0.524021  -1.629986  2.773472
H    0.846565  -3.222216  3.497007
