34
Energy: -18219.7532602 eV PBE+vdW (tier 2 basis)
C    -0.843294  1.586603  -0.713257
C    -0.417546  1.675134  0.719224
O    0.396186  2.566134  1.085503
H    -0.691495  2.555702  -1.195597
H    -1.880580  1.258117  -0.840926
H    -0.210851  0.834063  -1.207088
N    -0.881217  0.795270  1.633650
C    -2.054119  -0.081135  1.587915
C    -1.903158  -1.115448  0.428709
O    -0.786737  -1.467069  0.067230
H    -0.353405  0.795141  2.500179
H    -1.974895  -0.695552  2.499010
C    -3.376027  0.711270  1.679081
C    -3.511267  1.689429  2.866597
C    -2.739838  3.031457  2.746916
C    -1.572174  3.175909  3.734909
N    -0.416213  3.928810  3.127867
H    -4.195288  -0.016478  1.779793
H    -3.560684  1.256105  0.740052
H    -3.234314  1.176102  3.801525
H    -4.579452  1.916477  2.972675
H    -3.433247  3.867964  2.905075
H    -2.369387  3.148486  1.719129
H    -1.169266  2.200291  4.031242
H    -1.879015  3.692680  4.652150
H    0.325266  4.099582  3.815950
H    -0.712834  4.842642  2.767755
H    0.011724  3.337479  2.281598
N    -3.048027  -1.614544  -0.095427
C    -3.020037  -2.659997  -1.113230
H    -3.946074  -1.290871  0.238417
H    -4.046689  -2.975869  -1.320047
H    -2.437666  -3.521056  -0.763462
H    -2.561760  -2.292206  -2.040239
