34
Energy: -18219.3300692 eV PBE+vdW (tier 2 basis)
C    0.605534  -1.275515  1.591968
C    0.303281  -0.042270  2.419460
O    1.176246  0.679051  2.877279
H    1.675962  -1.272203  1.371421
H    0.043917  -1.298611  0.648153
H    0.371594  -2.196254  2.144662
N    -1.033853  0.288050  2.623769
C    -2.205884  -0.540007  2.427076
C    -3.364660  0.207411  1.703100
O    -4.540248  -0.064697  1.963974
H    -1.133751  1.112596  3.214528
H    -1.914975  -1.371976  1.768434
C    -2.783220  -1.131717  3.724041
C    -1.836108  -1.962833  4.588612
C    -2.557807  -2.758241  5.691885
C    -3.511491  -1.963377  6.580002
N    -4.841797  -1.682983  5.881917
H    -3.649930  -1.730207  3.398287
H    -3.169604  -0.270448  4.303467
H    -1.072284  -1.313532  5.040964
H    -1.289895  -2.684846  3.964660
H    -1.813038  -3.206487  6.364796
H    -3.103073  -3.612669  5.255170
H    -3.104737  -0.983651  6.861657
H    -3.766947  -2.508771  7.495876
H    -5.470245  -1.119468  6.468600
H    -5.326705  -2.560180  5.651969
H    -4.682570  -1.179716  4.989885
N    -2.967524  1.119527  0.792287
C    -3.890703  1.891287  -0.024306
H    -1.969579  1.289351  0.711758
H    -3.687083  1.732179  -1.090683
H    -3.808909  2.963403  0.197665
H    -4.906788  1.554573  0.201984
