34
Energy: -18219.1071322 eV PBE+vdW (tier 2 basis)
C    -1.110278  0.146428  -1.281592
C    -0.237738  0.415897  -0.067889
O    0.919843  0.805960  -0.167503
H    -1.423401  -0.905346  -1.344363
H    -0.529881  0.391918  -2.174461
H    -2.019658  0.763765  -1.268260
N    -0.805409  0.229344  1.173136
C    -2.077728  -0.374721  1.504554
C    -2.459853  0.124787  2.910929
O    -1.585440  0.297223  3.762009
H    -0.229899  0.497629  1.971007
H    -2.834838  -0.069483  0.770629
C    -2.022964  -1.933017  1.512992
C    -0.901174  -2.478752  2.400461
C    -0.714398  -3.996368  2.273554
C    0.461442  -4.445383  3.124918
N    0.697105  -5.949201  2.994436
H    -1.869109  -2.267311  0.475359
H    -2.999804  -2.330364  1.831168
H    -1.087597  -2.210799  3.450814
H    0.038381  -1.978803  2.119112
H    -1.631032  -4.522733  2.589109
H    -0.532855  -4.261650  1.217994
H    0.302060  -4.254926  4.193523
H    1.400110  -3.965369  2.821073
H    1.493220  -6.265195  3.564572
H    -0.134123  -6.478085  3.291802
H    0.888837  -6.204858  2.016026
N    -3.779744  0.297699  3.181120
C    -4.901142  0.255259  2.250898
H    -3.957994  0.628181  4.125320
H    -4.828065  1.029740  1.473995
H    -5.820645  0.435679  2.816232
H    -4.999765  -0.726821  1.768678
