34
Energy: -18219.8341576 eV PBE+vdW (tier 2 basis)
C    -0.369839  -1.370605  0.100427
C    -1.088112  -1.763928  1.360673
O    -0.876142  -2.882679  1.891156
H    0.598305  -1.881715  0.091187
H    -0.930213  -1.720726  -0.779120
H    -0.220681  -0.290024  0.004612
N    -1.945887  -0.886629  1.939083
C    -2.788828  0.084047  1.227917
C    -2.771701  1.510357  1.825109
O    -3.651575  2.301277  1.507831
H    -2.317509  -1.215094  2.829662
H    -2.376766  0.178914  0.213392
C    -4.238040  -0.441626  1.114332
C    -4.322570  -1.912350  0.659227
C    -4.576737  -2.913344  1.808334
C    -4.088831  -4.343656  1.539152
N    -2.782933  -4.632508  2.246397
H    -4.763231  0.224009  0.420979
H    -4.747199  -0.309530  2.081806
H    -3.403208  -2.190921  0.119754
H    -5.129818  -2.024985  -0.076424
H    -5.653381  -2.945836  2.021292
H    -4.123134  -2.554411  2.746541
H    -4.806497  -5.097994  1.881380
H    -3.910882  -4.513445  0.470242
H    -2.020085  -3.854696  2.107648
H    -2.935604  -4.718239  3.257514
H    -2.377927  -5.521181  1.930617
N    -1.737735  1.790991  2.659992
C    -1.546436  3.107346  3.251188
H    -1.041163  1.072743  2.821244
H    -2.425208  3.713277  3.009745
H    -0.653056  3.598210  2.842792
H    -1.446897  3.030472  4.340950
