34
Energy: -18220.1557325 eV PBE+vdW (tier 2 basis)
C    -0.198000  1.627173  0.796823
C    -0.558741  0.630803  1.880216
O    0.154497  0.417474  2.847963
H    -1.033414  1.899576  0.138574
H    0.598708  1.193970  0.176397
H    0.213538  2.528755  1.263704
N    -1.787663  -0.003481  1.701255
C    -2.150101  -1.232067  2.423280
C    -3.521137  -1.676895  1.913694
O    -4.436154  -0.850197  1.679351
H    -2.145245  0.035817  0.749626
H    -1.406628  -2.014519  2.188930
C    -2.178501  -1.130956  3.974404
C    -3.267514  -0.293763  4.656984
C    -3.132707  1.247131  4.562663
C    -4.282576  1.955654  3.859115
N    -4.302514  1.681962  2.376514
H    -1.184271  -0.792555  4.288869
H    -2.278818  -2.167290  4.330455
H    -4.266610  -0.607137  4.314520
H    -3.239098  -0.571718  5.718721
H    -2.174208  1.534087  4.105578
H    -3.101384  1.673059  5.574748
H    -5.253765  1.624903  4.249434
H    -4.217461  3.043563  3.987475
H    -4.351541  0.614475  2.130908
H    -3.432381  2.017086  1.947993
H    -5.089008  2.156552  1.920914
N    -3.702786  -2.995617  1.780440
C    -4.966070  -3.621339  1.408114
H    -2.902609  -3.597445  1.947980
H    -4.861832  -4.153091  0.454318
H    -5.278503  -4.332081  2.182788
H    -5.722556  -2.839518  1.303481
