34
Energy: -18219.4532156 eV PBE+vdW (tier 2 basis)
C    0.106139  1.415713  1.079195
C    -0.338310  0.247165  1.930693
O    0.316130  -0.183449  2.876367
H    0.206889  2.299344  1.722221
H    -0.575572  1.651707  0.253362
H    1.101022  1.199073  0.671685
N    -1.547328  -0.315171  1.594018
C    -2.100266  -1.445339  2.334462
C    -2.232014  -1.130544  3.848027
O    -1.799907  -1.907246  4.705094
H    -2.054609  0.038720  0.792259
H    -3.123276  -1.589967  1.948091
C    -1.290559  -2.736002  2.071663
C    -2.034501  -4.080805  2.166158
C    -2.356751  -4.671487  3.552201
C    -1.195421  -4.741013  4.532623
N    0.035504  -5.395190  3.909334
H    -0.401254  -2.694669  2.719551
H    -0.920871  -2.648606  1.040922
H    -1.450195  -4.821200  1.589983
H    -2.982375  -4.014024  1.610436
H    -2.800507  -5.670382  3.414258
H    -3.114866  -4.063998  4.064240
H    -1.438874  -5.334737  5.421151
H    -0.892968  -3.729180  4.830590
H    0.358180  -4.838736  3.105775
H    -0.161330  -6.346936  3.573549
H    0.808268  -5.446669  4.584444
N    -2.892894  -0.003035  4.207890
C    -3.549840  1.004251  3.389454
H    -2.897134  0.140787  5.213655
H    -2.846185  1.751658  2.996927
H    -4.291897  1.519142  4.009276
H    -4.088362  0.548983  2.548950
