34
Energy: -18218.9704366 eV PBE+vdW (tier 2 basis)
C    -0.634764  1.345480  0.373692
C    -0.424929  0.782151  1.761438
O    0.532513  1.074336  2.469005
H    -1.536972  1.972717  0.334948
H    -0.757164  0.556198  -0.381126
H    0.234166  1.956449  0.117817
N    -1.373407  -0.110409  2.234885
C    -2.651547  -0.452325  1.637133
C    -3.825878  0.561522  1.720864
O    -4.667206  0.511360  0.826126
H    -1.231482  -0.324717  3.219184
H    -2.507157  -0.537019  0.550476
C    -3.120608  -1.824272  2.152300
C    -2.196724  -2.958316  1.692951
C    -2.524702  -4.307191  2.342331
C    -1.678808  -5.463148  1.830252
N    -0.199055  -5.220804  2.121270
H    -4.141053  -1.999239  1.785034
H    -3.176994  -1.802747  3.254132
H    -1.158669  -2.648628  1.919198
H    -2.264233  -3.050336  0.596315
H    -3.571385  -4.579651  2.138962
H    -2.444529  -4.243662  3.440599
H    -1.751919  -5.578788  0.741381
H    -1.930453  -6.418534  2.305314
H    0.398300  -5.959385  1.727949
H    -0.024503  -5.177483  3.134582
H    0.097905  -4.318201  1.722051
N    -3.914274  1.458997  2.740463
C    -3.131604  1.600967  3.962820
H    -4.728946  2.058829  2.643244
H    -2.136358  2.028944  3.785190
H    -3.023638  0.645885  4.496231
H    -3.674611  2.277669  4.630595
