34
Energy: -18218.6407516 eV PBE+vdW (tier 2 basis)
C    0.230289  -0.827895  1.005876
C    -0.154057  -0.334326  2.385429
O    0.633361  -0.354767  3.319650
H    1.246430  -1.225129  1.070710
H    0.228774  -0.008908  0.271267
H    -0.451297  -1.617301  0.669654
N    -1.416043  0.222532  2.596796
C    -2.650176  0.192576  1.829556
C    -3.258558  -1.233550  1.715507
O    -2.550373  -2.227663  1.606140
H    -1.532750  0.434958  3.584423
H    -3.343984  0.803892  2.419379
C    -2.528583  0.881274  0.423267
C    -2.692954  -0.020241  -0.814377
C    -2.076539  0.518857  -2.112730
C    -2.621542  1.843378  -2.631492
N    -2.086979  3.023364  -1.821925
H    -1.533527  1.355187  0.425116
H    -3.284365  1.689190  0.399895
H    -3.760403  -0.232181  -0.978934
H    -2.227061  -0.993614  -0.616313
H    -2.250469  -0.213183  -2.914862
H    -0.978238  0.584628  -2.020007
H    -3.715558  1.901146  -2.563185
H    -2.325455  2.036604  -3.669253
H    -2.491545  3.917940  -2.127332
H    -1.064171  3.091452  -1.909683
H    -2.298551  2.886628  -0.819413
N    -4.620932  -1.313221  1.704476
C    -5.593845  -0.253831  1.927830
H    -4.964140  -2.268483  1.651097
H    -5.516930  0.546281  1.176312
H    -5.513145  0.189665  2.931260
H    -6.596404  -0.683433  1.837370
