34
Energy: -18219.0167427 eV PBE+vdW (tier 2 basis)
C    1.049011  -0.634325  0.524504
C    0.556213  -0.385684  1.936718
O    1.307399  -0.136661  2.871127
H    1.952371  -1.252200  0.563503
H    0.307746  -1.109466  -0.130278
H    1.335501  0.329827  0.081950
N    -0.813212  -0.460812  2.102518
C    -1.499140  -0.008533  3.315014
C    -1.307946  1.509667  3.633088
O    -1.003860  1.875422  4.761469
H    -1.371671  -0.558752  1.263336
H    -2.573043  -0.148289  3.107897
C    -1.113001  -0.799282  4.581402
C    -0.944685  -2.308152  4.395955
C    -2.231950  -3.065234  4.047878
C    -2.041040  -4.567484  3.904776
N    -1.525881  -5.164126  5.212229
H    -1.868078  -0.591632  5.352996
H    -0.172968  -0.385338  4.959265
H    -0.522435  -2.677114  5.350475
H    -0.181850  -2.504363  3.626559
H    -2.626629  -2.717437  3.081894
H    -3.023224  -2.856844  4.787922
H    -2.969517  -5.101138  3.670073
H    -1.285629  -4.816739  3.148756
H    -0.664708  -4.674720  5.499039
H    -2.212509  -5.040265  5.968447
H    -1.319428  -6.167359  5.128576
N    -1.527401  2.407611  2.628359
C    -2.026124  2.206431  1.279542
H    -1.363981  3.364398  2.927524
H    -1.238589  1.902966  0.572997
H    -2.450866  3.151031  0.922763
H    -2.837111  1.464837  1.252068
