34
Energy: -18219.0917522 eV PBE+vdW (tier 2 basis)
C    1.095785  0.514769  -0.016082
C    0.754430  0.748144  1.438873
O    1.596880  1.044710  2.283938
H    1.702313  -0.397350  -0.092562
H    1.713057  1.346580  -0.374275
H    0.217697  0.411493  -0.664828
N    -0.578056  0.620401  1.769392
C    -0.968585  0.594279  3.176928
C    -2.369453  0.017725  3.426741
O    -2.536794  -0.745517  4.376815
H    -1.182691  0.153462  1.102190
H    -0.294810  -0.100104  3.700762
C    -0.819760  1.977768  3.865099
C    -0.534297  1.805614  5.358074
C    -0.278491  3.140088  6.070853
C    0.081426  2.901618  7.526678
N    0.391963  4.218466  8.237462
H    -1.720053  2.591536  3.708166
H    0.024961  2.491852  3.389867
H    0.356500  1.166099  5.462773
H    -1.362974  1.269933  5.846713
H    -1.172450  3.782989  6.004843
H    0.545339  3.671556  5.564707
H    0.979965  2.281574  7.636080
H    -0.735862  2.436775  8.092066
H    0.639615  4.075935  9.225793
H    -0.417670  4.852702  8.202106
H    1.178158  4.700522  7.780377
N    -3.408324  0.362647  2.603432
C    -3.551548  1.499432  1.701449
H    -4.271390  -0.096666  2.886956
H    -2.575073  1.926015  1.457390
H    -4.169187  2.290401  2.153648
H    -4.029192  1.183713  0.764549
