34
Energy: -18219.8803281 eV PBE+vdW (tier 2 basis)
C    -0.314570  -1.367232  1.111151
C    0.138185  -0.052090  1.709649
O    1.291204  0.168189  2.044709
H    -0.756253  -1.238720  0.112820
H    -1.058387  -1.869885  1.744941
H    0.562517  -2.013053  1.023230
N    -0.815542  0.947619  1.867480
C    -2.251811  0.864267  1.665722
C    -2.754437  2.190826  1.068891
O    -3.592532  2.932927  1.641394
H    -0.434376  1.776301  2.317604
H    -2.421630  0.116596  0.874809
C    -3.044916  0.375619  2.906786
C    -2.530137  0.812593  4.291311
C    -2.496197  2.307452  4.650884
C    -3.821964  2.958761  5.031849
N    -4.835584  2.908559  3.907587
H    -2.994045  -0.722207  2.894928
H    -4.109271  0.604016  2.748502
H    -1.505639  0.429262  4.396206
H    -3.114460  0.272541  5.053392
H    -2.022370  2.902353  3.856489
H    -1.848718  2.430854  5.531421
H    -3.668584  4.017824  5.268951
H    -4.273484  2.478981  5.909284
H    -5.473571  3.709345  3.938471
H    -5.409790  2.062802  3.965078
H    -4.315688  2.889255  2.936180
N    -2.272465  2.563527  -0.125194
C    -1.338414  1.861785  -1.000757
H    -2.630184  3.460310  -0.445602
H    -0.304510  1.946797  -0.644855
H    -1.411262  2.305940  -1.997821
H    -1.599756  0.800277  -1.086736
