34
Energy: -18220.0263501 eV PBE+vdW (tier 2 basis)
C    0.426088  -1.374299  0.746669
C    0.286460  -0.957669  2.181909
O    1.275578  -0.975841  2.958644
H    -0.354443  -0.959006  0.100504
H    0.397395  -2.470908  0.671655
H    1.411550  -1.054635  0.390872
N    -0.913050  -0.553138  2.646833
C    -2.239902  -0.971278  2.233258
C    -3.197382  -0.230589  3.191768
O    -2.789290  0.154244  4.295274
H    -0.938905  -0.137366  3.583396
H    -2.438375  -0.648899  1.201529
C    -2.454211  -2.523228  2.321045
C    -1.505063  -3.358974  3.202229
C    -1.592496  -3.280032  4.740513
C    -0.917547  -2.143384  5.508178
N    0.572175  -2.035637  5.253887
H    -2.369545  -2.924191  1.301751
H    -3.491261  -2.717515  2.632121
H    -0.463092  -3.231254  2.872802
H    -1.735658  -4.403312  2.946213
H    -1.200514  -4.230678  5.137729
H    -2.649085  -3.257747  5.048750
H    -1.043319  -2.322940  6.583343
H    -1.359841  -1.165594  5.283377
H    1.018378  -2.959965  5.272676
H    1.014553  -1.478388  5.992817
H    0.846202  -1.544551  4.296702
N    -4.475892  -0.066489  2.795189
C    -5.058092  -0.360192  1.489308
H    -5.057250  0.410516  3.478846
H    -4.605254  0.245543  0.691967
H    -6.123633  -0.116741  1.530529
H    -4.971933  -1.422862  1.228733
