34
Energy: -18219.4275743 eV PBE+vdW (tier 2 basis)
C    0.140684  0.369237  -0.178592
C    0.039452  0.293391  1.313271
O    1.038421  0.566130  2.030435
H    0.790182  1.206287  -0.462780
H    -0.819000  0.381495  -0.698716
H    0.647962  -0.551699  -0.505785
N    -1.111048  -0.076093  1.938802
C    -2.498834  0.268897  1.602026
C    -3.098815  -0.624982  0.488088
O    -2.402066  -1.141276  -0.377919
H    -0.944716  -0.235749  2.929362
H    -3.060960  0.057894  2.523321
C    -2.644659  1.784164  1.293056
C    -2.734935  2.701798  2.529592
C    -1.621347  2.698263  3.600952
C    -0.393800  3.585151  3.403096
N    0.554519  3.141022  2.313123
H    -3.562522  1.941244  0.708783
H    -1.831468  2.077692  0.611996
H    -3.667870  2.441505  3.052270
H    -2.887756  3.735637  2.179390
H    -1.295158  1.679822  3.852385
H    -2.070343  3.082576  4.529193
H    0.201070  3.597305  4.324203
H    -0.682141  4.619720  3.174602
H    1.427093  3.680020  2.350457
H    0.149788  3.297056  1.383186
H    0.814509  2.083668  2.351117
N    -4.451756  -0.776456  0.519390
C    -5.400184  -0.326994  1.529395
H    -4.804090  -1.356473  -0.236917
H    -5.452770  0.769162  1.599079
H    -5.176159  -0.739814  2.524196
H    -6.395419  -0.681903  1.245497
