34
Energy: -18220.2570507 eV PBE+vdW (tier 2 basis)
C    -1.503604  -0.041305  -0.092629
C    -0.896905  0.333201  1.237919
O    0.295760  0.558242  1.406354
H    -2.586298  0.125301  -0.143855
H    -1.308144  -1.106788  -0.279319
H    -1.005327  0.525933  -0.885541
N    -1.779944  0.423855  2.304878
C    -1.263969  0.532088  3.667801
C    -0.583741  1.894137  3.899814
O    0.251987  2.071251  4.819782
H    -2.730140  0.090947  2.181815
H    -2.155951  0.558493  4.316322
C    -0.384647  -0.674319  4.095609
C    -0.858059  -1.409172  5.358050
C    -0.609651  -0.738041  6.718787
C    0.873004  -0.562648  7.073662
N    1.369675  0.822547  6.746313
H    0.665991  -0.362677  4.169982
H    -0.401832  -1.391948  3.266944
H    -0.372182  -2.397131  5.379309
H    -1.935599  -1.619442  5.269456
H    -1.067083  -1.364677  7.496132
H    -1.124948  0.234063  6.789993
H    1.498385  -1.266641  6.510580
H    1.060307  -0.734404  8.139536
H    2.387504  0.845018  6.628577
H    1.141087  1.475976  7.502708
H    0.886266  1.240472  5.837971
N    -0.995970  2.909241  3.142641
C    -0.454033  4.257259  3.232896
H    -1.616963  2.673829  2.374401
H    -1.180700  4.961153  2.816000
H    0.489359  4.339699  2.675635
H    -0.266635  4.508485  4.281478
