34
Energy: -18218.854162 eV PBE+vdW (tier 2 basis)
C    0.859729  1.237746  0.712304
C    0.558037  0.004223  1.554700
O    1.454490  -0.661390  2.050836
H    1.938689  1.265431  0.539710
H    0.567987  2.154393  1.245279
H    0.340978  1.240746  -0.259133
N    -0.766423  -0.350480  1.729300
C    -1.934373  0.441060  1.388900
C    -2.500032  1.097915  2.673179
O    -2.559452  0.438524  3.704449
H    -0.901539  -1.020728  2.486869
H    -1.617658  1.204996  0.668743
C    -3.060492  -0.428073  0.773490
C    -2.605625  -1.498912  -0.227950
C    -1.772202  -1.030079  -1.432953
C    -2.511543  -0.050693  -2.327903
N    -1.661340  0.285656  -3.551244
H    -3.818415  0.241523  0.334588
H    -3.572439  -0.949857  1.595169
H    -3.494287  -2.038181  -0.590364
H    -1.994177  -2.242330  0.299281
H    -1.494557  -1.919646  -2.022355
H    -0.831888  -0.578100  -1.079704
H    -2.723446  0.906928  -1.836656
H    -3.452470  -0.461194  -2.716001
H    -2.128005  0.949848  -4.183401
H    -1.448131  -0.566272  -4.088864
H    -0.760657  0.695994  -3.267074
N    -2.942782  2.383526  2.593585
C    -2.915458  3.270793  1.443169
H    -3.321138  2.740993  3.466485
H    -3.527374  2.891840  0.609259
H    -1.892113  3.458717  1.084736
H    -3.337995  4.235598  1.740540
