34
Energy: -18219.397737 eV PBE+vdW (tier 2 basis)
C    -0.892689  -0.457083  0.366218
C    -0.762840  -0.444944  1.870150
O    0.330522  -0.426885  2.444113
H    -0.392187  0.429624  -0.041875
H    -1.930716  -0.475627  0.013747
H    -0.365243  -1.335337  -0.026667
N    -1.934142  -0.468094  2.580376
C    -1.908730  -0.440279  4.032865
C    -3.033320  -1.315435  4.636252
O    -3.881598  -0.837006  5.386736
H    -2.822769  -0.439510  2.093247
H    -0.945167  -0.909032  4.293456
C    -1.944171  0.986835  4.615022
C    -0.971495  1.160616  5.789515
C    0.489767  1.259001  5.318364
C    1.519038  1.060346  6.412260
N    1.336289  2.103682  7.518226
H    -2.968574  1.197579  4.946810
H    -1.688781  1.699827  3.819306
H    -1.096862  0.311540  6.484805
H    -1.266690  2.065960  6.349193
H    0.662174  2.223881  4.812461
H    0.692787  0.499792  4.543086
H    2.550125  1.172072  6.056580
H    1.417324  0.086992  6.909344
H    1.995865  1.970619  8.295129
H    0.378448  2.052394  7.893228
H    1.467409  3.053732  7.145893
N    -3.020323  -2.638910  4.314442
C    -2.068934  -3.378586  3.497445
H    -3.800153  -3.153123  4.714256
H    -2.060216  -4.422678  3.829286
H    -1.052383  -2.984611  3.615115
H    -2.325687  -3.356263  2.428407
