34
Energy: -18220.2778319 eV PBE+vdW (tier 2 basis)
C    2.851139  -2.086115  2.830989
C    2.308655  -0.878152  3.545449
O    3.029231  0.141500  3.722899
H    3.212500  -1.791402  1.837646
H    2.117409  -2.891664  2.724121
H    3.717127  -2.462733  3.391010
N    1.055435  -0.954210  3.997858
C    0.345712  0.053016  4.771296
C    -0.978070  -0.648936  5.165442
O    -1.300439  -1.700418  4.608813
H    0.469415  -1.784901  3.839309
H    0.926773  0.274246  5.681144
C    0.108098  1.376864  3.986537
C    0.986163  2.542150  4.471500
C    1.307740  3.597626  3.403148
C    2.140034  3.109255  2.219573
N    3.428103  2.462685  2.665108
H    -0.950854  1.663910  4.040649
H    0.289350  1.150051  2.926937
H    1.920995  2.135572  4.885634
H    0.493510  3.052926  5.310471
H    1.825416  4.446992  3.876881
H    0.380426  4.015692  2.982928
H    2.391783  3.943179  1.553609
H    1.614989  2.351270  1.625210
H    3.923445  3.049516  3.346080
H    4.061685  2.315793  1.872530
H    3.242901  1.484240  3.120651
N    -1.743983  -0.066568  6.116708
C    -1.482432  1.141922  6.882931
H    -2.612857  -0.563203  6.294139
H    -1.820803  2.050909  6.362943
H    -0.414755  1.241548  7.112505
H    -2.016225  1.076116  7.836676
