34
Energy: -18220.3590317 eV PBE+vdW (tier 2 basis)
C    0.833817  -0.505132  0.504391
C    -0.147531  0.472405  1.085940
O    -0.201400  1.645070  0.628732
H    0.784348  -1.494229  0.971017
H    1.846756  -0.099747  0.624758
H    0.650656  -0.601210  -0.573035
N    -0.925371  0.033878  2.083145
C    -1.810620  0.837565  2.911485
C    -1.678546  0.229091  4.330222
O    -1.341645  -0.948397  4.446912
H    -0.763978  -0.893592  2.489531
H    -1.448982  1.874651  2.897016
C    -3.290643  0.732065  2.466337
C    -3.632696  1.251170  1.060146
C    -4.008196  2.738763  0.952806
C    -2.943359  3.777956  1.289379
N    -1.745357  3.665713  0.387644
H    -3.551671  -0.334267  2.525069
H    -3.924731  1.234196  3.213387
H    -4.506160  0.689395  0.701314
H    -2.827950  0.993393  0.354735
H    -4.862181  2.944982  1.616104
H    -4.380571  2.939205  -0.065412
H    -3.354136  4.789791  1.182620
H    -2.570795  3.678753  2.316644
H    -1.108483  4.459458  0.513642
H    -1.150349  2.740681  0.572256
H    -2.030828  3.664147  -0.598169
N    -1.988520  1.015641  5.388571
C    -2.301527  2.436644  5.389200
H    -1.921144  0.539817  6.283996
H    -3.249939  2.655943  4.876991
H    -2.407603  2.764623  6.427460
H    -1.497135  3.034968  4.936764
