34
Energy: -18219.8517842 eV PBE+vdW (tier 2 basis)
C    -2.008231  0.633466  0.184480
C    -0.716859  -0.054883  0.576979
O    0.256515  -0.118939  -0.157670
H    -2.212834  1.506320  0.822097
H    -2.871628  -0.043748  0.255076
H    -1.909578  0.971505  -0.849929
N    -0.663037  -0.627675  1.840503
C    -1.633517  -0.524276  2.899703
C    -1.733077  0.787518  3.696832
O    -2.792853  0.962435  4.362018
H    0.231106  -1.067736  2.042311
H    -2.632645  -0.581516  2.438581
C    -1.496737  -1.701180  3.898005
C    -2.320266  -2.936737  3.522652
C    -3.848653  -2.751416  3.515027
C    -4.467776  -2.200324  4.807482
N    -4.725911  -0.713684  4.747968
H    -1.769527  -1.356744  4.905968
H    -0.434207  -1.976658  3.969958
H    -2.068807  -3.741778  4.229178
H    -2.013506  -3.301595  2.531470
H    -4.303497  -3.731707  3.320412
H    -4.167076  -2.126425  2.663706
H    -3.820118  -2.373071  5.676396
H    -5.431993  -2.678441  5.015825
H    -5.422057  -0.504816  4.023715
H    -3.832198  -0.072861  4.533992
H    -5.119057  -0.380694  5.635724
N    -0.785950  1.727038  3.723314
C    0.556972  1.764621  3.135108
H    -1.051280  2.527544  4.294016
H    1.076534  2.623391  3.570339
H    0.529721  1.889963  2.047057
H    1.129496  0.864919  3.381420
