34
Energy: -18219.3067456 eV PBE+vdW (tier 2 basis)
C    -0.325047  -0.417287  -0.235214
C    -0.049096  0.216405  1.113881
O    1.057777  0.148563  1.643146
H    -1.286648  -0.141180  -0.682672
H    -0.270228  -1.510674  -0.149598
H    0.481707  -0.113589  -0.912589
N    -1.066028  0.917289  1.723871
C    -2.499940  0.724868  1.585136
C    -3.166358  1.754552  2.517900
O    -2.683270  1.987036  3.630136
H    -0.793023  1.374424  2.593782
H    -2.805829  0.917676  0.544496
C    -2.976381  -0.713053  1.943540
C    -2.887359  -1.149002  3.417997
C    -1.505400  -1.014450  4.079421
C    -1.396767  -1.678698  5.438977
N    -1.417401  -3.202694  5.305308
H    -2.402723  -1.413422  1.318695
H    -4.024705  -0.813199  1.624828
H    -3.237661  -2.199722  3.439037
H    -3.612381  -0.580882  4.019880
H    -1.301996  0.050643  4.254179
H    -0.691298  -1.369977  3.425916
H    -2.232121  -1.423552  6.103761
H    -0.454291  -1.437350  5.943983
H    -1.395782  -3.674883  6.218105
H    -0.607416  -3.525631  4.758807
H    -2.266610  -3.504244  4.807296
N    -4.307758  2.310956  2.053019
C    -5.085692  3.283083  2.807527
H    -4.579478  2.115553  1.096094
H    -6.134451  2.968330  2.875849
H    -5.038764  4.273156  2.335509
H    -4.658751  3.350407  3.812438
