34
Energy: -18219.212246 eV PBE+vdW (tier 2 basis)
C    0.131010  -1.229431  0.510509
C    0.247636  -0.336330  1.731157
O    1.305217  -0.148324  2.317475
H    1.135693  -1.561787  0.238256
H    -0.486547  -2.116575  0.716663
H    -0.323881  -0.705284  -0.341006
N    -0.909653  0.291478  2.161691
C    -2.268330  0.093697  1.687291
C    -2.749317  1.035992  0.552130
O    -3.857208  0.843968  0.054688
H    -0.764910  0.874921  2.983294
H    -2.331688  -0.904287  1.227949
C    -3.270834  0.174630  2.850264
C    -3.150619  -0.945975  3.889901
C    -3.526618  -2.329968  3.335094
C    -3.502135  -3.379179  4.432374
N    -3.874105  -4.754336  3.879719
H    -4.278658  0.188914  2.413138
H    -3.142317  1.142584  3.359817
H    -3.813247  -0.706471  4.735570
H    -2.127144  -0.982994  4.295567
H    -2.824842  -2.618306  2.535075
H    -4.530802  -2.280886  2.881584
H    -2.508434  -3.492737  4.883675
H    -4.226772  -3.169501  5.229077
H    -3.214041  -5.045301  3.145349
H    -3.871703  -5.478541  4.610731
H    -4.812331  -4.735543  3.456195
N    -1.885076  2.009933  0.187287
C    -2.172795  2.971105  -0.864509
H    -0.995206  2.050745  0.673080
H    -1.439664  2.892734  -1.677980
H    -2.159692  3.995848  -0.471193
H    -3.170296  2.750220  -1.257377
