34
Energy: -18219.7133679 eV PBE+vdW (tier 2 basis)
C    -0.759793  1.013437  0.009690
C    -0.456366  0.466200  1.371132
O    0.596405  0.800132  1.979852
H    -1.804814  1.329287  -0.101381
H    -0.598025  0.218049  -0.731874
H    -0.091686  1.853283  -0.196272
N    -1.292867  -0.414935  1.965118
C    -2.740994  -0.565409  1.798414
C    -3.086033  -0.980022  0.337663
O    -2.310437  -1.694548  -0.283759
H    -0.881175  -0.872423  2.773117
H    -3.006227  -1.456617  2.388981
C    -3.455581  0.655956  2.420196
C    -3.075347  0.886780  3.906543
C    -2.637328  2.313420  4.277807
C    -1.331408  2.841969  3.685599
N    -0.102791  2.061134  4.113674
H    -4.544353  0.520566  2.362182
H    -3.225709  1.548618  1.817951
H    -2.294106  0.173040  4.211288
H    -3.936057  0.638575  4.540929
H    -2.584761  2.398399  5.375412
H    -3.417771  3.027511  3.973134
H    -1.184113  3.881737  3.998149
H    -1.330674  2.826306  2.588462
H    0.683533  2.692758  4.296329
H    0.235720  1.384753  3.298339
H    -0.271452  1.533136  4.975816
N    -4.275930  -0.539217  -0.145345
C    -4.783973  -0.938590  -1.451778
H    -4.870486  0.031222  0.442578
H    -5.001471  -0.056893  -2.067475
H    -5.697096  -1.539133  -1.349480
H    -4.013489  -1.540974  -1.941690
