34
Energy: -18218.9370415 eV PBE+vdW (tier 2 basis)
C    -0.060192  0.346570  -0.441688
C    0.139726  0.370424  1.057508
O    1.249781  0.413270  1.572020
H    0.864666  0.697227  -0.907175
H    -0.241615  -0.685486  -0.774742
H    -0.903822  0.951413  -0.792848
N    -0.974346  0.298236  1.882703
C    -2.398368  0.290402  1.571292
C    -2.799777  -0.740256  0.478802
O    -3.414109  -0.381604  -0.526276
H    -0.708628  0.270961  2.862982
H    -2.889283  -0.048870  2.499611
C    -2.934163  1.690517  1.201534
C    -4.459773  1.846380  1.295678
C    -5.032942  1.989030  2.715448
C    -4.634953  3.264558  3.446296
N    -5.128517  4.488692  2.681164
H    -2.632912  1.909477  0.169947
H    -2.408362  2.416376  1.842384
H    -4.936857  0.987607  0.805897
H    -4.772989  2.699461  0.663395
H    -4.700297  1.156176  3.352996
H    -6.132074  1.911270  2.691717
H    -5.071917  3.332535  4.449236
H    -3.547744  3.384596  3.526719
H    -6.156570  4.507177  2.639123
H    -4.784908  4.453364  1.709736
H    -4.810268  5.368449  3.106890
N    -2.469024  -2.040287  0.693046
C    -1.761333  -2.644868  1.813472
H    -2.745723  -2.648906  -0.072230
H    -0.674115  -2.499486  1.753095
H    -1.971036  -3.719628  1.811522
H    -2.114009  -2.244822  2.772918
