34
Energy: -18219.5706271 eV PBE+vdW (tier 2 basis)
C    0.748677  -0.195768  0.011161
C    0.609469  -0.335500  1.507490
O    1.568538  -0.660875  2.223863
H    0.999107  -1.179347  -0.407472
H    -0.151263  0.181377  -0.487762
H    1.590962  0.471686  -0.206020
N    -0.626060  -0.075585  2.024019
C    -1.066824  -0.294781  3.407489
C    -0.466845  0.651734  4.473395
O    -1.190457  1.053316  5.394824
H    -1.342729  0.227388  1.375205
H    -2.132735  -0.034684  3.413146
C    -0.947195  -1.785625  3.820100
C    -1.702059  -2.153480  5.118121
C    -0.834186  -2.493760  6.344060
C    -0.024677  -1.318463  6.868544
N    0.672707  -1.700210  8.171867
H    0.114681  -2.064989  3.875164
H    -1.363525  -2.368576  2.988094
H    -2.319309  -3.040591  4.926948
H    -2.400984  -1.350322  5.392323
H    -0.157912  -3.329257  6.095312
H    -1.506118  -2.852834  7.142337
H    -0.641696  -0.436902  7.082477
H    0.773305  -1.009304  6.182094
H    1.223773  -0.917824  8.548183
H    1.306986  -2.499037  8.035544
H    -0.015280  -1.973490  8.886661
N    0.853229  0.923955  4.368534
C    1.532733  1.853918  5.250994
H    1.367159  0.441907  3.614417
H    0.783667  2.390866  5.842359
H    2.226301  1.338042  5.935099
H    2.116691  2.574950  4.665843
