34
Energy: -18220.2760951 eV PBE+vdW (tier 2 basis)
C    -0.400105  -0.370688  -0.450769
C    -0.192126  -0.052461  1.004128
O    0.888666  -0.256249  1.574717
H    0.364294  0.148870  -1.041194
H    -1.393754  -0.095157  -0.822285
H    -0.248178  -1.447077  -0.601799
N    -1.272289  0.473064  1.678296
C    -1.085694  0.848151  3.065491
C    -1.662565  -0.125275  4.101453
O    -0.894849  -0.585465  4.980673
H    -2.110615  0.705742  1.159740
H    -0.013859  0.686599  3.148218
C    -1.285321  2.326687  3.440764
C    -0.345388  2.724107  4.595232
C    1.166190  2.560772  4.278442
C    1.945693  1.439563  4.975061
N    1.634353  0.041408  4.496062
H    -2.326427  2.554709  3.709555
H    -1.046680  2.929268  2.551367
H    -0.606584  2.161413  5.504638
H    -0.540870  3.776271  4.838281
H    1.684379  3.479266  4.587007
H    1.331665  2.499088  3.190268
H    1.754949  1.442720  6.056145
H    3.020681  1.595231  4.822332
H    2.279194  -0.634577  4.917792
H    1.702090  -0.051644  3.461764
H    0.612789  -0.250969  4.753777
N    -2.962116  -0.454905  4.100173
C    -4.005559  -0.026714  3.178302
H    -3.217626  -1.125973  4.821671
H    -4.053057  -0.668938  2.287563
H    -3.856904  1.014776  2.871975
H    -4.970295  -0.078390  3.693322
