34
Energy: -18220.1057744 eV PBE+vdW (tier 2 basis)
C    0.433541  -1.251006  1.098337
C    -0.356202  -1.846325  2.228050
O    0.012444  -2.886067  2.810848
H    1.437257  -1.028552  1.486187
H    0.002702  -0.326491  0.702135
H    0.562858  -1.983991  0.292802
N    -1.473628  -1.204528  2.686117
C    -2.571055  -0.588299  1.947218
C    -3.794961  -0.740616  2.876345
O    -3.856558  -1.675287  3.703458
H    -1.804284  -1.585271  3.572045
H    -2.380579  0.484451  1.791189
C    -2.862222  -1.221254  0.546953
C    -2.704201  -2.741207  0.364710
C    -3.680750  -3.682085  1.113956
C    -3.042803  -4.700605  2.057741
N    -2.432121  -4.071998  3.288457
H    -2.194577  -0.734401  -0.176711
H    -3.878404  -0.922147  0.249561
H    -1.669042  -3.040865  0.576610
H    -2.815603  -2.917344  -0.713711
H    -4.235091  -4.280046  0.377747
H    -4.448954  -3.117763  1.659745
H    -2.250503  -5.274394  1.560478
H    -3.803937  -5.408550  2.407239
H    -2.375033  -4.748178  4.055995
H    -3.021893  -3.255556  3.591757
H    -1.439780  -3.696031  3.128892
N    -4.798903  0.140819  2.750680
C    -4.843058  1.355400  1.938752
H    -5.579813  -0.036840  3.377583
H    -4.746519  1.137484  0.867989
H    -4.063768  2.069839  2.235862
H    -5.815339  1.830749  2.096193
