34
Energy: -18219.7417574 eV PBE+vdW (tier 2 basis)
C    -0.212146  0.324555  0.114064
C    -0.503627  0.561169  1.562558
O    0.397775  0.969951  2.343537
H    -1.026368  0.649448  -0.545119
H    -0.100603  -0.758198  -0.042399
H    0.716415  0.833995  -0.155429
N    -1.739426  0.332131  2.064217
C    -3.040831  0.300407  1.392806
C    -3.111082  -0.876985  0.374356
O    -2.400290  -1.861885  0.529365
H    -1.759906  0.283055  3.077392
H    -3.745518  0.005438  2.186222
C    -3.473176  1.707200  0.900433
C    -3.126584  2.848864  1.884962
C    -1.784983  3.549718  1.568063
C    -0.991545  4.095067  2.751634
N    -0.493115  3.009292  3.682916
H    -4.561624  1.690661  0.747630
H    -3.025285  1.927808  -0.080462
H    -3.137666  2.448636  2.912222
H    -3.927636  3.599109  1.866822
H    -1.976840  4.408210  0.908449
H    -1.127636  2.893429  0.984084
H    -1.578663  4.801046  3.353522
H    -0.098736  4.619783  2.391821
H    -1.244919  2.682377  4.297134
H    0.246831  3.371673  4.293592
H    -0.084629  2.113008  3.147442
N    -4.022883  -0.737600  -0.621592
C    -4.290889  -1.792233  -1.591198
H    -4.583095  0.104636  -0.668055
H    -4.112879  -1.434023  -2.613062
H    -5.327877  -2.142355  -1.509057
H    -3.614078  -2.624660  -1.377939
