34
Energy: -18220.0446951 eV PBE+vdW (tier 2 basis)
C    -1.106205  0.272586  -0.571691
C    -0.688004  0.266266  0.872245
O    0.525839  0.189991  1.169745
H    -0.583525  1.084003  -1.092601
H    -2.186234  0.387830  -0.714265
H    -0.784067  -0.669771  -1.033538
N    -1.671295  0.345425  1.794487
C    -1.466197  0.248711  3.240583
C    -2.339981  -0.849606  3.892784
O    -1.767150  -1.808756  4.403300
H    -2.621443  0.384867  1.442798
H    -0.472038  -0.191751  3.359951
C    -1.490822  1.615490  3.954894
C    -0.148725  2.354310  3.848974
C    0.975834  1.729322  4.714031
C    2.284689  1.422718  3.993657
N    2.191373  0.168010  3.160347
H    -1.743267  1.459504  5.014989
H    -2.290889  2.239988  3.535835
H    -0.295151  3.397407  4.157215
H    0.155750  2.404217  2.792293
H    0.621692  0.811543  5.213569
H    1.225583  2.413230  5.535934
H    3.104307  1.274669  4.707614
H    2.571016  2.231980  3.310015
H    2.003986  -0.647502  3.755789
H    3.073323  -0.014290  2.668511
H    1.404598  0.209474  2.395554
N    -3.698823  -0.744943  3.873419
C    -4.540746  0.408351  3.583465
H    -4.147026  -1.522100  4.353538
H    -5.546740  0.054286  3.334770
H    -4.178877  0.977907  2.719379
H    -4.616797  1.098736  4.436756
