34
Energy: -18219.2749284 eV PBE+vdW (tier 2 basis)
C    -0.251239  -0.231896  0.031421
C    -0.462987  -0.518754  1.505226
O    0.485816  -0.760631  2.236678
H    0.243157  -1.110904  -0.402232
H    0.453326  0.603352  -0.059934
H    -1.152387  -0.021311  -0.551646
N    -1.754124  -0.601543  2.025924
C    -3.016900  -0.002715  1.591169
C    -3.484234  -0.443660  0.181854
O    -4.099989  0.332395  -0.562076
H    -1.703527  -0.808732  3.022036
H    -3.771937  -0.451010  2.259197
C    -3.148053  1.517333  1.796174
C    -2.214417  2.431473  0.978477
C    -2.925043  3.706545  0.488169
C    -3.795284  3.378027  -0.717051
N    -4.745260  4.526985  -1.043233
H    -3.008972  1.722376  2.866901
H    -4.199070  1.759167  1.578244
H    -1.815786  1.904961  0.102266
H    -1.342858  2.719458  1.578835
H    -2.188188  4.479824  0.221455
H    -3.540575  4.117263  1.307226
H    -4.407191  2.477785  -0.562333
H    -3.197339  3.215996  -1.622143
H    -5.320278  4.317456  -1.869769
H    -4.231317  5.399422  -1.227358
H    -5.382014  4.706823  -0.255573
N    -3.234009  -1.734548  -0.114972
C    -3.624651  -2.367458  -1.362872
H    -2.675292  -2.257870  0.552840
H    -4.123363  -3.323487  -1.163065
H    -2.752498  -2.550101  -2.006401
H    -4.318235  -1.700937  -1.884187
