34
Energy: -18219.9069863 eV PBE+vdW (tier 2 basis)
C    -1.299040  0.869944  -0.053687
C    -1.338546  0.381150  1.374613
O    -1.975621  0.917913  2.262183
H    -1.077962  0.078140  -0.780532
H    -2.254197  1.344744  -0.298259
H    -0.516303  1.637754  -0.141168
N    -0.581000  -0.782131  1.628295
C    -0.226981  -1.095192  3.021967
C    0.959527  -2.074344  2.956039
O    1.201867  -2.725453  1.924306
H    0.210617  -0.924815  0.996993
H    0.124713  -0.170259  3.508170
C    -1.430238  -1.603879  3.893438
C    -2.649514  -2.226607  3.188470
C    -2.655240  -3.740114  2.915990
C    -1.482285  -4.300404  2.126035
N    -1.241534  -3.528071  0.847706
H    -1.796886  -0.724999  4.433460
H    -1.039959  -2.297137  4.654646
H    -2.869795  -1.667401  2.266968
H    -3.520816  -2.028095  3.826858
H    -3.599307  -3.999885  2.412150
H    -2.668646  -4.291124  3.868452
H    -0.539975  -4.234442  2.678195
H    -1.640279  -5.349318  1.848600
H    -0.303074  -3.740962  0.485366
H    -1.953468  -3.725141  0.135986
H    -1.217995  -2.488624  1.048050
N    1.690820  -2.169236  4.082353
C    2.842851  -3.049541  4.230590
H    1.452797  -1.561423  4.859489
H    2.652116  -3.817037  4.991844
H    3.727217  -2.470508  4.522366
H    3.031738  -3.532001  3.267729
