34
Energy: -18220.3094028 eV PBE+vdW (tier 2 basis)
C    -0.999232  -0.144466  -0.327635
C    -0.647662  -0.173994  1.134829
O    0.541369  -0.366332  1.507743
H    -0.716848  -1.107195  -0.773159
H    -0.406443  0.629757  -0.831152
H    -2.062592  0.038272  -0.513928
N    -1.651093  -0.009878  2.003531
C    -1.568912  -0.176652  3.448062
C    -2.951620  -0.740395  3.852332
O    -3.924143  -0.516240  3.130000
H    -2.624403  0.038095  1.681881
H    -0.765908  -0.894997  3.664160
C    -1.329249  1.160198  4.190627
C    -0.000132  1.848104  3.859481
C    1.233040  1.088899  4.371784
C    2.540118  1.489405  3.701729
N    2.550957  1.091232  2.231439
H    -1.393329  0.978126  5.274039
H    -2.162031  1.833718  3.942506
H    -0.008280  2.859469  4.291836
H    0.051109  1.995347  2.768992
H    1.103286  0.003271  4.248764
H    1.354672  1.259524  5.451456
H    3.394470  0.994200  4.175759
H    2.710853  2.571684  3.750359
H    3.379837  0.534781  2.002930
H    2.567288  1.911224  1.618990
H    1.674219  0.493727  1.951462
N    -3.040513  -1.427511  5.014654
C    -1.958300  -1.854018  5.891295
H    -3.984073  -1.732890  5.236050
H    -1.461055  -1.006554  6.384303
H    -1.206440  -2.449271  5.354694
H    -2.383027  -2.488063  6.675061
