34
Energy: -18219.3945095 eV PBE+vdW (tier 2 basis)
C    -1.325993  -0.855166  -0.336606
C    -0.802233  -0.528526  1.043813
O    0.407147  -0.351013  1.252465
H    -0.814805  -1.754196  -0.702265
H    -1.061155  -0.034951  -1.015801
H    -2.408975  -1.018088  -0.379074
N    -1.741245  -0.424699  2.024772
C    -1.550979  -0.148184  3.456723
C    -1.003633  1.244769  3.864314
O    -1.300790  1.674120  4.979021
H    -2.706284  -0.523347  1.732912
H    -2.570160  -0.132293  3.861177
C    -0.799608  -1.260487  4.235411
C    0.726655  -1.127329  4.275409
C    1.376456  -2.244768  5.102617
C    2.882081  -2.058312  5.149227
N    3.544133  -3.157009  5.980879
H    -1.090614  -2.230368  3.804932
H    -1.184902  -1.235819  5.265216
H    0.989273  -0.155944  4.722819
H    1.128360  -1.124963  3.252884
H    1.135397  -3.226548  4.660416
H    0.966688  -2.238942  6.127428
H    3.170880  -1.109768  5.618922
H    3.341754  -2.111743  4.154490
H    3.342025  -4.085072  5.584823
H    3.182392  -3.150785  6.944405
H    4.566035  -3.047420  6.025445
N    -0.210694  1.887598  2.976411
C    0.369513  3.186397  3.272669
H    0.148347  1.343902  2.188964
H    -0.285455  3.714480  3.972789
H    0.461657  3.767741  2.348395
H    1.364836  3.098094  3.735319
