34
Energy: -18219.4199902 eV PBE+vdW (tier 2 basis)
C    -0.655863  -0.142843  -0.384872
C    -0.333986  -0.159228  1.090823
O    0.819851  -0.238674  1.517183
H    -0.073288  0.653973  -0.862792
H    -0.328948  -1.092013  -0.828394
H    -1.719519  0.007280  -0.605044
N    -1.407527  -0.073007  1.943979
C    -1.235952  -0.141901  3.392267
C    -1.207184  -1.610516  3.904596
O    -2.130683  -2.075538  4.573868
H    -2.337330  -0.223780  1.565789
H    -0.248202  0.303721  3.588484
C    -2.323877  0.646135  4.119618
C    -2.231985  2.157165  3.895912
C    -3.403779  2.946116  4.506636
C    -3.472374  2.786757  6.017807
N    -4.630119  3.598238  6.593138
H    -2.235758  0.387401  5.184442
H    -3.312412  0.265867  3.812374
H    -2.210275  2.376440  2.819095
H    -1.282373  2.543131  4.300162
H    -4.350296  2.599579  4.057811
H    -3.294446  4.013633  4.253950
H    -3.650933  1.750488  6.327585
H    -2.566363  3.152090  6.517777
H    -4.525480  4.597729  6.370312
H    -5.526166  3.288100  6.192443
H    -4.694117  3.506765  7.615960
N    -0.090521  -2.281136  3.536598
C    0.125505  -3.685656  3.837075
H    0.583337  -1.778778  2.956086
H    -0.697642  -4.030640  4.470399
H    1.074283  -3.825522  4.371096
H    0.146379  -4.288016  2.918385
