34
Energy: -18219.6972081 eV PBE+vdW (tier 2 basis)
C    -0.242813  -1.044321  2.536896
C    -0.994209  -0.278508  3.594271
O    -0.722709  -0.341332  4.785995
H    0.562032  -1.603314  3.020971
H    -0.891659  -1.747667  1.996947
H    0.188857  -0.361319  1.791362
N    -2.101459  0.513296  3.220055
C    -2.642137  0.692983  1.867689
C    -2.713333  2.226122  1.667240
O    -2.735866  2.946180  2.671216
H    -2.124707  1.440732  3.688294
H    -1.981669  0.228445  1.123710
C    -4.062334  0.090794  1.761249
C    -4.165569  -1.439731  1.984700
C    -4.861811  -1.931311  3.270858
C    -4.034606  -2.012837  4.551716
N    -3.707135  -0.660376  5.127319
H    -4.461381  0.333455  0.767741
H    -4.712269  0.632720  2.467255
H    -3.172027  -1.908656  1.911457
H    -4.736248  -1.859668  1.146622
H    -5.211955  -2.958865  3.094677
H    -5.778756  -1.346204  3.453740
H    -4.567321  -2.578256  5.325524
H    -3.069753  -2.506830  4.377045
H    -3.164700  -0.097003  4.382300
H    -4.550058  -0.146779  5.404908
H    -3.078779  -0.729518  5.937387
N    -2.796432  2.713611  0.411681
C    -2.618995  1.992285  -0.843689
H    -2.861875  3.727403  0.371461
H    -2.783551  2.694464  -1.666028
H    -3.346296  1.178080  -0.958363
H    -1.602852  1.585508  -0.946969
