34
Energy: -18220.3167164 eV PBE+vdW (tier 2 basis)
C    1.194061  0.919779  0.134463
C    0.929137  1.043929  1.606500
O    1.817450  1.512245  2.369232
H    2.079506  0.288862  -0.014762
H    0.350459  0.493752  -0.418212
H    1.430726  1.911282  -0.271770
N    -0.259008  0.634964  2.060396
C    -0.665902  0.654347  3.454589
C    -1.860898  -0.329622  3.519684
O    -2.577391  -0.464588  2.529108
H    -0.979742  0.265843  1.433980
H    0.171753  0.286405  4.069053
C    -1.097390  2.078405  3.899455
C    -1.093319  2.329713  5.417097
C    0.156128  2.998498  6.011344
C    1.493834  2.255262  5.943593
N    2.259548  2.505536  4.670571
H    -2.101702  2.254190  3.490231
H    -0.446922  2.808151  3.394296
H    -1.296673  1.394916  5.963057
H    -1.942097  2.981539  5.664037
H    -0.039320  3.176700  7.078481
H    0.283499  4.005059  5.576630
H    2.141379  2.582277  6.766390
H    1.371979  1.168042  6.033699
H    2.316063  3.513090  4.483344
H    1.877770  2.020987  3.739899
H    3.226095  2.172296  4.762220
N    -2.059175  -0.958467  4.700157
C    -3.168193  -1.876596  4.931443
H    -1.362101  -0.854424  5.427589
H    -3.701661  -1.605856  5.850469
H    -2.811611  -2.911789  5.011877
H    -3.850829  -1.802247  4.080142
