34
Energy: -18220.0218368 eV PBE+vdW (tier 2 basis)
C    1.804161  0.071262  1.447260
C    0.740518  0.750694  2.269778
O    1.054439  1.557039  3.175607
H    1.407211  -0.611749  0.688388
H    2.461166  -0.489680  2.124346
H    2.423045  0.832713  0.956206
N    -0.537645  0.435415  1.985142
C    -1.738559  0.895220  2.707102
C    -2.958464  0.324290  1.942178
O    -3.620091  1.034438  1.192744
H    -0.689521  -0.202561  1.210070
H    -1.704492  0.460124  3.718933
C    -1.855376  2.422940  2.869673
C    -1.484040  3.278300  1.647677
C    -1.054765  4.710861  2.005061
C    0.425052  4.902780  2.322215
N    0.886506  4.140368  3.544731
H    -1.253190  2.693336  3.746189
H    -2.897727  2.630290  3.148243
H    -2.346954  3.309598  0.973241
H    -0.679713  2.798410  1.068060
H    -1.670083  5.108173  2.829635
H    -1.252695  5.376463  1.152350
H    0.654695  5.961104  2.497628
H    1.055489  4.548587  1.496023
H    0.859609  3.066743  3.393719
H    0.308821  4.371214  4.360618
H    1.856396  4.379852  3.778948
N    -3.211315  -1.005621  2.105583
C    -2.659057  -1.917677  3.101842
H    -4.031606  -1.317367  1.591171
H    -3.070253  -1.739135  4.106681
H    -1.565365  -1.850945  3.148339
H    -2.909897  -2.942310  2.808978
