34
Energy: -18219.6509304 eV PBE+vdW (tier 2 basis)
C    -0.281007  0.515154  0.211885
C    -0.570435  -0.302245  1.450576
O    0.269342  -1.051802  1.928027
H    -0.284268  1.590334  0.431774
H    -0.999436  0.335022  -0.597331
H    0.716339  0.231929  -0.133878
N    -1.796656  -0.210548  2.112861
C    -3.099277  0.400922  1.884628
C    -4.225551  -0.634120  1.687359
O    -5.325439  -0.462120  2.284304
H    -1.759750  -0.800101  2.942742
H    -3.373178  0.875172  2.842873
C    -3.182233  1.505498  0.812932
C    -4.519619  2.260946  0.788197
C    -4.809653  3.150019  2.024791
C    -6.145862  2.891649  2.715169
N    -6.121124  1.635487  3.549722
H    -3.006082  1.083768  -0.184381
H    -2.366854  2.217659  1.001194
H    -5.345289  1.551739  0.627486
H    -4.514137  2.896949  -0.105999
H    -4.817155  4.205346  1.721995
H    -3.997090  3.079715  2.767331
H    -6.951567  2.765157  1.981056
H    -6.420354  3.722054  3.377329
H    -7.060977  1.395379  3.882991
H    -5.536392  1.769755  4.381495
H    -5.719580  0.748084  2.992627
N    -4.083175  -1.708633  0.906169
C    -2.957680  -2.140777  0.078233
H    -4.906783  -2.306974  0.907643
H    -3.324759  -2.920440  -0.595870
H    -2.139669  -2.551889  0.681342
H    -2.576794  -1.320218  -0.537763
