34
Energy: -18219.391687 eV PBE+vdW (tier 2 basis)
C    -0.134836  0.560693  3.070671
C    -0.891494  0.933071  4.329636
O    -0.338296  1.316864  5.348361
H    0.920572  0.791787  3.234598
H    -0.490049  1.115317  2.190984
H    -0.227916  -0.512910  2.851373
N    -2.281888  0.856806  4.288149
C    -3.092631  0.154029  3.308632
C    -4.398684  0.934471  3.005804
O    -5.451918  0.341188  2.733540
H    -2.693038  1.008319  5.208628
H    -2.522296  0.148777  2.366390
C    -3.402785  -1.308221  3.692224
C    -3.756989  -2.210505  2.490242
C    -4.912851  -3.190652  2.756343
C    -6.257089  -2.479204  2.736544
N    -7.380314  -3.445816  3.111543
H    -4.215605  -1.303631  4.434593
H    -2.520954  -1.712552  4.206018
H    -2.875699  -2.797554  2.199656
H    -4.017529  -1.596796  1.616584
H    -4.757509  -3.685020  3.730842
H    -4.905746  -3.983384  1.990435
H    -6.507471  -2.092050  1.742103
H    -6.310860  -1.634845  3.432401
H    -8.298483  -2.983316  3.087976
H    -7.240653  -3.820043  4.059538
H    -7.413121  -4.247968  2.467643
N    -4.272750  2.276005  3.037149
C    -5.354052  3.198442  2.736391
H    -3.371823  2.640695  3.334219
H    -6.235237  2.612642  2.458435
H    -5.080101  3.855441  1.900969
H    -5.594262  3.818049  3.610319
