34
Energy: -18219.0949515 eV PBE+vdW (tier 2 basis)
C    -0.172960  0.427593  -0.080722
C    0.006330  0.410838  1.424499
O    1.115928  0.491136  1.949006
H    -1.208780  0.294293  -0.414890
H    0.447770  -0.364905  -0.515662
H    0.205655  1.382519  -0.467279
N    -1.160842  0.324648  2.143687
C    -1.336325  0.211209  3.590799
C    -1.796748  1.485963  4.347350
O    -2.593078  1.329293  5.279878
H    -2.019243  0.289326  1.606439
H    -2.206133  -0.448322  3.726551
C    -0.149870  -0.455131  4.323457
C    -0.549527  -0.957550  5.715374
C    0.660259  -1.497867  6.490419
C    0.244539  -1.966082  7.873179
N    1.450273  -2.481531  8.658626
H    0.693703  0.242962  4.392980
H    0.204313  -1.295156  3.709217
H    -1.311259  -1.748322  5.622121
H    -1.025515  -0.145862  6.285297
H    1.125346  -2.330315  5.935125
H    1.420837  -0.703586  6.578650
H    -0.471440  -2.796736  7.839368
H    -0.186665  -1.157115  8.476024
H    1.190909  -2.805612  9.599927
H    1.898128  -3.265850  8.165166
H    2.158986  -1.742354  8.762021
N    -1.326406  2.718474  4.027812
C    -0.337584  3.147823  3.047233
H    -1.760636  3.441960  4.594639
H    0.486565  2.431392  2.963121
H    0.078220  4.105192  3.380084
H    -0.779350  3.295141  2.050611
