34
Energy: -18219.7567683 eV PBE+vdW (tier 2 basis)
C    0.072033  0.296340  0.149437
C    -0.034522  0.720597  1.581106
O    0.984251  1.136085  2.197353
H    0.943066  0.775193  -0.305467
H    -0.827890  0.509424  -0.437720
H    0.209929  -0.794919  0.130960
N    -1.213073  0.647435  2.237351
C    -2.578296  0.552126  1.714292
C    -2.750988  -0.777852  0.914024
O    -2.077464  -1.753767  1.219523
H    -1.122182  0.725379  3.244801
H    -3.205672  0.400719  2.607228
C    -3.035191  1.867320  1.046931
C    -2.895594  3.151382  1.894030
C    -1.465241  3.741429  2.022701
C    -0.869943  3.646708  3.435951
N    0.615635  3.395063  3.400748
H    -4.104583  1.767799  0.807121
H    -2.514575  2.010111  0.087047
H    -3.326519  2.982705  2.894086
H    -3.539069  3.910283  1.431660
H    -1.475902  4.797084  1.721013
H    -0.798608  3.239206  1.308144
H    -1.300158  2.811812  4.001525
H    -1.053262  4.559628  4.015157
H    1.024296  3.418738  4.341415
H    1.101783  4.104099  2.840688
H    0.814887  2.391289  2.950057
N    -3.690421  -0.772005  -0.064995
C    -4.036575  -1.968076  -0.822630
H    -4.211839  0.075702  -0.249444
H    -3.904149  -1.796047  -1.898154
H    -5.076324  -2.263687  -0.631691
H    -3.370776  -2.774002  -0.500637
