34
Energy: -18219.0005311 eV PBE+vdW (tier 2 basis)
C    -0.497834  1.205065  -0.603823
C    -0.268834  0.800367  0.843937
O    0.773380  1.049562  1.432201
H    -0.781084  0.352640  -1.238733
H    0.434631  1.632979  -0.980343
H    -1.289243  1.963203  -0.688681
N    -1.301313  0.149713  1.490056
C    -2.555964  -0.323330  0.927953
C    -3.693364  -0.107805  1.962532
O    -4.222811  -1.067303  2.522572
H    -1.079109  -0.119875  2.446421
H    -2.772640  0.296102  0.045104
C    -2.480729  -1.811216  0.535273
C    -3.666063  -2.320111  -0.297493
C    -3.688382  -1.885232  -1.772766
C    -2.520208  -2.385643  -2.611674
N    -2.463340  -3.910249  -2.589915
H    -2.436833  -2.393498  1.464835
H    -1.518693  -1.967440  0.019829
H    -4.602469  -1.995988  0.175786
H    -3.715959  -3.422703  -0.219690
H    -4.634807  -2.196004  -2.243933
H    -3.672055  -0.788029  -1.854775
H    -1.548787  -2.049618  -2.229308
H    -2.602258  -2.095623  -3.665553
H    -1.650545  -4.275637  -3.102298
H    -2.411083  -4.244173  -1.616228
H    -3.312454  -4.317344  -3.005201
N    -4.058297  1.175592  2.220450
C    -3.493475  2.407304  1.687832
H    -4.759427  1.253044  2.951856
H    -3.442504  2.383511  0.590628
H    -2.489695  2.614042  2.083660
H    -4.153777  3.235529  1.963039
