34
Energy: -18220.0807682 eV PBE+vdW (tier 2 basis)
C    0.385543  -1.201906  0.898409
C    0.257336  -0.348670  2.141221
O    1.098039  -0.334786  3.026527
H    -0.363474  -0.987083  0.127089
H    0.307917  -2.258357  1.187774
H    1.386931  -1.056016  0.477425
N    -0.892470  0.441054  2.188077
C    -1.327396  1.150330  3.392068
C    -2.529601  2.040366  3.090675
O    -3.286657  2.409304  4.022625
H    -1.650160  0.085136  1.609537
H    -1.680546  0.426249  4.147236
C    -0.239907  2.068984  4.035861
C    0.387787  1.557928  5.338185
C    -0.551306  1.296619  6.526348
C    -1.387931  2.490846  7.010668
N    -2.829398  2.390079  6.575845
H    -0.685802  3.062355  4.203072
H    0.555988  2.224391  3.298096
H    1.143853  2.295389  5.649227
H    0.933201  0.631979  5.119048
H    -1.220366  0.444964  6.315395
H    0.067164  0.956021  7.367217
H    -1.009767  3.442396  6.616419
H    -1.391178  2.562821  8.104349
H    -3.370896  3.197667  6.903573
H    -2.956163  2.335886  5.477906
H    -3.265400  1.553846  6.979420
N    -2.704376  2.446296  1.830361
C    -3.752772  3.362532  1.399051
H    -1.989806  2.166444  1.162584
H    -4.522419  3.406053  2.174024
H    -4.195706  3.002338  0.463996
H    -3.347183  4.370313  1.238923
