34
Energy: -18220.0308344 eV PBE+vdW (tier 2 basis)
C    -0.356303  0.292037  -0.951073
C    0.214189  0.158228  0.444064
O    1.370814  0.419432  0.723585
H    -0.591389  -0.692732  -1.380648
H    0.402412  0.767211  -1.578005
H    -1.272033  0.898838  -0.974396
N    -0.655677  -0.253570  1.463742
C    -1.930927  -0.927663  1.296141
C    -3.016889  -0.316407  2.200005
O    -4.093600  -0.918335  2.440322
H    -0.138346  -0.444617  2.321208
H    -2.287138  -0.683483  0.282518
C    -1.836017  -2.469459  1.349234
C    -1.258307  -3.112705  2.620372
C    -2.170652  -3.268664  3.849990
C    -3.421731  -4.123294  3.610134
N    -4.631920  -3.283930  3.264781
H    -1.184919  -2.751247  0.509926
H    -2.820580  -2.891849  1.094653
H    -0.348306  -2.576497  2.930075
H    -0.903355  -4.117515  2.345295
H    -2.460405  -2.295348  4.275444
H    -1.584834  -3.761825  4.637542
H    -3.682346  -4.717180  4.493011
H    -3.268176  -4.821411  2.777923
H    -5.301296  -3.798537  2.684241
H    -4.352699  -2.339287  2.767389
H    -5.129264  -3.001365  4.115709
N    -2.775860  0.918816  2.638771
C    -3.708360  1.728794  3.407385
H    -1.873418  1.306807  2.365563
H    -3.980032  2.630859  2.845010
H    -3.255239  2.028539  4.360290
H    -4.610456  1.141537  3.598798
