34
Energy: -18219.4919212 eV PBE+vdW (tier 2 basis)
C    -0.562213  1.313177  -0.044605
C    -0.621064  1.392938  1.462518
O    -0.041459  2.285287  2.092962
H    0.490201  1.277717  -0.351975
H    -0.988654  2.234142  -0.461819
H    -1.088785  0.450396  -0.468630
N    -1.358671  0.422756  2.085130
C    -1.539539  0.260864  3.531293
C    -2.400466  1.335706  4.253186
O    -3.261723  0.948764  5.052855
H    -1.887553  -0.205530  1.492474
H    -2.156667  -0.640334  3.637376
C    -0.182352  0.039668  4.247814
C    -0.242139  0.049203  5.783708
C    -1.188253  -0.963793  6.453774
C    -0.939950  -2.418070  6.105200
N    0.473460  -2.834293  6.520476
H    0.506608  0.833032  3.931743
H    0.246093  -0.901682  3.859928
H    -0.553459  1.046020  6.125498
H    0.789189  -0.053507  6.169896
H    -2.225403  -0.730159  6.161543
H    -1.154956  -0.838050  7.548285
H    -0.998931  -2.618336  5.028282
H    -1.622676  -3.098915  6.626603
H    0.595689  -2.733033  7.537064
H    1.166029  -2.221302  6.067900
H    0.687444  -3.807151  6.267782
N    -2.100955  2.622345  3.994295
C    -2.815152  3.735148  4.598486
H    -1.320232  2.797706  3.350532
H    -3.258639  4.374072  3.823945
H    -2.138223  4.346218  5.210621
H    -3.610769  3.334270  5.233750
