34
Energy: -18219.0461821 eV PBE+vdW (tier 2 basis)
C    1.106581  -1.640312  2.201661
C    0.421865  -0.322911  2.497542
O    1.049833  0.687454  2.786322
H    2.062700  -1.648298  2.732729
H    1.324446  -1.688091  1.124800
H    0.528840  -2.532104  2.469367
N    -0.959570  -0.246368  2.396438
C    -1.960178  -1.291437  2.211491
C    -1.828918  -2.462058  3.225503
O    -1.762858  -3.633480  2.837877
H    -1.294996  0.693947  2.583747
H    -2.925521  -0.803578  2.430776
C    -2.004675  -1.811411  0.762832
C    -3.236721  -2.659984  0.426014
C    -3.183573  -3.205385  -1.008186
C    -4.137691  -4.360834  -1.262053
N    -5.576628  -3.949008  -0.957591
H    -1.949645  -0.936265  0.099091
H    -1.107801  -2.418506  0.578285
H    -4.144218  -2.044136  0.576844
H    -3.270404  -3.497300  1.140849
H    -2.177504  -3.602319  -1.211738
H    -3.344670  -2.406760  -1.750669
H    -4.131381  -4.704820  -2.303089
H    -3.930167  -5.212888  -0.602371
H    -5.645182  -3.614538  0.014297
H    -6.235945  -4.728461  -1.078259
H    -5.877016  -3.178746  -1.570101
N    -1.804944  -2.151688  4.546236
C    -1.898444  -0.853097  5.201673
H    -1.676839  -2.966896  5.139152
H    -2.681258  -0.231663  4.748064
H    -2.179389  -1.018566  6.247055
H    -0.950010  -0.299919  5.176977
