34
Energy: -18220.3121269 eV PBE+vdW (tier 2 basis)
C    0.543717  -1.280998  0.729045
C    0.302361  -0.866242  2.160135
O    1.066556  -1.179906  3.077397
H    0.571147  -2.376793  0.678828
H    -0.208564  -0.910450  0.023334
H    1.532444  -0.918675  0.421265
N    -0.823319  -0.111383  2.381419
C    -1.248695  0.328058  3.716208
C    -0.225582  1.349949  4.262808
O    0.596815  1.097786  5.167704
H    -1.440592  0.069081  1.598800
H    -2.183922  0.885569  3.564589
C    -1.548706  -0.892548  4.609980
C    -1.742949  -0.681859  6.129236
C    -1.015458  -1.758005  6.958868
C    0.467521  -1.517161  7.246422
N    1.301160  -1.255726  6.020236
H    -0.751057  -1.620126  4.430454
H    -2.449598  -1.358777  4.188181
H    -2.812615  -0.727771  6.368854
H    -1.408485  0.315361  6.446566
H    -1.145999  -2.741696  6.479914
H    -1.488975  -1.847666  7.947233
H    0.598453  -0.630450  7.880509
H    0.897081  -2.377754  7.773779
H    1.195453  -1.954063  5.273827
H    1.012338  -0.300528  5.579941
H    2.297074  -1.206479  6.255702
N    -0.249183  2.583595  3.725215
C    -1.095680  3.103725  2.659270
H    0.473337  3.197840  4.093075
H    -0.833017  2.675290  1.682617
H    -0.953379  4.187052  2.607608
H    -2.158707  2.920558  2.861621
