34
Energy: -18218.8418958 eV PBE+vdW (tier 2 basis)
C    -0.084611  -0.083026  -0.204581
C    0.105876  0.349696  1.230265
O    1.196359  0.738477  1.649945
H    -0.042906  -1.179995  -0.241280
H    -1.049917  0.201545  -0.642081
H    0.735989  0.326447  -0.801061
N    -0.953859  0.281698  2.114498
C    -2.397197  0.243004  1.921364
C    -2.834241  -0.849205  0.902629
O    -2.242755  -1.918202  0.863420
H    -0.637473  0.388259  3.074724
H    -2.797374  -0.167914  2.863717
C    -3.012382  1.664738  1.819596
C    -2.695659  2.585422  0.622091
C    -1.261994  3.127450  0.422506
C    -0.504902  3.612507  1.645690
N    -1.228836  4.770964  2.332489
H    -2.742078  2.169283  2.766242
H    -4.108840  1.574244  1.885370
H    -3.391400  3.439536  0.688948
H    -2.972450  2.084921  -0.316801
H    -1.297562  3.933874  -0.328436
H    -0.615235  2.363024  -0.022439
H    0.489450  3.989371  1.381091
H    -0.378566  2.832231  2.404893
H    -0.703657  5.113399  3.147611
H    -2.160683  4.479248  2.657187
H    -1.359308  5.560927  1.686175
N    -3.914399  -0.564522  0.121893
C    -4.507836  -1.576238  -0.744822
H    -4.448260  0.277032  0.296427
H    -3.708672  -2.204020  -1.150855
H    -5.207467  -2.223489  -0.197098
H    -5.038899  -1.083507  -1.566031
