34
Energy: -18219.3773739 eV PBE+vdW (tier 2 basis)
C    -0.824512  0.449008  -0.202967
C    -0.474205  0.341836  1.265348
O    0.686399  0.234675  1.666727
H    -1.850443  0.791242  -0.383253
H    -0.702370  -0.541008  -0.663292
H    -0.117643  1.125948  -0.694884
N    -1.539038  0.374884  2.127428
C    -1.406973  0.016072  3.526083
C    -2.684115  -0.757762  3.904666
O    -3.739758  -0.527846  3.314258
H    -2.497499  0.332518  1.780941
H    -0.504714  -0.605783  3.625684
C    -1.271074  1.250382  4.450144
C    -0.020664  2.074454  4.138577
C    0.099974  3.331753  5.011351
C    1.338624  4.118629  4.620407
N    1.475157  5.387701  5.461526
H    -1.251487  0.914900  5.499439
H    -2.176113  1.866624  4.329814
H    -0.038241  2.369068  3.079507
H    0.876290  1.448202  4.257337
H    0.153447  3.051305  6.077122
H    -0.798464  3.959637  4.884918
H    1.308232  4.450598  3.575197
H    2.263424  3.549797  4.777945
H    1.541357  5.157320  6.462302
H    0.652533  5.994396  5.341570
H    2.309882  5.932537  5.206596
N    -2.600126  -1.650412  4.925430
C    -1.402641  -2.118149  5.609134
H    -3.481066  -2.110754  5.134807
H    -0.924684  -1.325145  6.202746
H    -0.662665  -2.532559  4.910417
H    -1.692459  -2.916230  6.299532
