34
Energy: -18220.3114279 eV PBE+vdW (tier 2 basis)
C    -1.629991  -0.785133  -0.106671
C    -1.254409  -0.816425  1.352152
O    -0.275869  -1.445384  1.771689
H    -2.563794  -0.249101  -0.312336
H    -1.711298  -1.813741  -0.477324
H    -0.815407  -0.304081  -0.663758
N    -2.058334  -0.107437  2.205251
C    -1.711330  0.121198  3.605268
C    -2.065050  -1.090976  4.501179
O    -2.831982  -1.039775  5.499990
H    -2.869633  0.364812  1.825460
H    -0.609256  0.154578  3.632573
C    -2.212281  1.490190  4.107477
C    -3.605710  1.992137  3.687039
C    -4.864948  1.358260  4.299676
C    -5.033336  1.612714  5.804063
N    -4.534767  0.455897  6.630370
H    -1.491199  2.233086  3.739969
H    -2.103552  1.506241  5.202477
H    -3.703773  1.958421  2.590395
H    -3.633157  3.069445  3.913879
H    -4.918159  0.277614  4.094262
H    -5.736418  1.795390  3.793804
H    -6.082112  1.783133  6.071165
H    -4.466836  2.498908  6.116712
H    -3.700176  -0.081357  6.115805
H    -5.271465  -0.246417  6.753302
H    -4.242002  0.749872  7.566768
N    -1.445204  -2.216531  4.166375
C    -1.619269  -3.471999  4.882833
H    -0.820379  -2.161440  3.342906
H    -0.952942  -4.216951  4.439889
H    -2.655321  -3.827654  4.808479
H    -1.370425  -3.350839  5.944457
