34
Energy: -18219.9342425 eV PBE+vdW (tier 2 basis)
C    -1.320985  -0.532669  0.301354
C    -1.216961  -0.664726  1.787754
O    -0.461232  -1.518609  2.313231
H    -0.371264  -0.156311  -0.098050
H    -1.480114  -1.536611  -0.112350
H    -2.134753  0.123938  -0.021932
N    -1.985789  0.096457  2.609932
C    -2.462811  1.462558  2.467070
C    -1.546088  2.313409  1.559086
O    -0.324254  2.154810  1.524305
H    -1.937692  -0.220318  3.573177
H    -3.475933  1.463704  2.032859
C    -2.558742  2.102569  3.893539
C    -1.655932  1.576900  5.031611
C    -0.137313  1.849564  5.034962
C    0.816086  1.060861  4.136164
N    0.785588  -0.443918  4.354760
H    -3.594149  1.977841  4.238724
H    -2.406377  3.185878  3.788033
H    -1.858538  0.508802  5.234752
H    -2.045139  2.066359  5.936469
H    0.207157  1.747382  6.077046
H    0.035195  2.906003  4.778371
H    1.839859  1.392127  4.345172
H    0.607818  1.231218  3.072918
H    0.460007  -0.691697  5.295235
H    1.728091  -0.834996  4.255991
H    0.175483  -0.956128  3.588260
N    -2.204130  3.260671  0.853668
C    -1.533527  4.245272  0.015687
H    -3.215340  3.298563  0.921831
H    -1.676227  5.258849  0.412355
H    -0.465407  4.010195  0.004992
H    -1.922846  4.204226  -1.008894
