34
Energy: -18220.1284187 eV PBE+vdW (tier 2 basis)
C    3.065489  0.627087  1.445225
C    2.168211  0.511077  2.644094
O    2.582171  -0.078606  3.679632
H    3.982906  1.155421  1.733933
H    2.595349  1.148540  0.605200
H    3.359893  -0.380542  1.125078
N    0.944511  1.042581  2.545816
C    -0.083145  1.011856  3.572072
C    -1.351220  1.568820  2.877911
O    -1.242584  2.204595  1.830815
H    0.641632  1.546048  1.704851
H    -0.257503  -0.035399  3.865601
C    0.327190  1.864228  4.799619
C    -0.269533  1.480444  6.164560
C    -0.391917  -0.009339  6.570081
C    0.750973  -1.006064  6.290349
N    2.121997  -0.390244  6.184118
H    0.081283  2.915427  4.592902
H    1.423007  1.839095  4.850917
H    -1.280413  1.902399  6.258302
H    0.313714  2.015020  6.930518
H    -1.282581  -0.453904  6.101739
H    -0.606960  -0.020803  7.647194
H    0.609232  -1.525806  5.335818
H    0.778794  -1.766779  7.078360
H    2.848618  -1.072816  6.423077
H    2.240897  0.413756  6.807262
H    2.289366  -0.113495  5.122408
N    -2.520474  1.346353  3.519420
C    -3.800911  1.841038  3.026185
H    -2.523094  0.735086  4.327212
H    -3.600715  2.575456  2.240951
H    -4.359438  2.320386  3.838690
H    -4.404116  1.026535  2.603917
