34
Energy: -18219.8491151 eV PBE+vdW (tier 2 basis)
C    0.286122  -0.365175  1.159029
C    0.051094  -1.304757  2.304622
O    0.972693  -2.051089  2.721175
H    -0.033658  -0.840253  0.219574
H    1.359468  -0.168502  1.085286
H    -0.261827  0.578457  1.259755
N    -1.168623  -1.343989  2.890725
C    -2.469955  -0.992736  2.302307
C    -3.503173  -0.744782  3.439466
O    -4.638034  -1.198779  3.367433
H    -1.213126  -1.955682  3.703115
H    -2.352964  -0.034440  1.772393
C    -2.985749  -2.034444  1.293123
C    -3.007150  -3.508826  1.739838
C    -1.639512  -4.241997  1.678339
C    -1.098755  -4.685989  3.043848
N    0.405958  -4.579335  3.098638
H    -2.400156  -1.945021  0.365053
H    -4.011498  -1.732007  1.047017
H    -3.712168  -4.032933  1.083651
H    -3.447978  -3.587417  2.744976
H    -1.717122  -5.125837  1.031369
H    -0.899906  -3.589634  1.191409
H    -1.380655  -5.717879  3.283796
H    -1.473137  -4.053847  3.859197
H    0.783029  -4.947602  3.978959
H    0.844055  -5.105111  2.333940
H    0.692510  -3.519020  3.004317
N    -3.040321  0.000365  4.479526
C    -3.894750  0.410756  5.586018
H    -2.116194  0.412120  4.407457
H    -4.237034  1.447681  5.463917
H    -3.352956  0.321467  6.534711
H    -4.770422  -0.245053  5.601388
