34
Energy: -18219.8401082 eV PBE+vdW (tier 2 basis)
C    -0.384753  1.474098  -0.176722
C    -0.368047  0.083340  0.389345
O    0.600277  -0.692467  0.187876
H    -0.882731  1.474538  -1.158783
H    0.649098  1.795723  -0.334850
H    -0.909509  2.189919  0.465650
N    -1.425509  -0.337967  1.124184
C    -2.807606  0.155022  1.063490
C    -3.209233  1.167963  2.167906
O    -4.326549  1.667153  2.118698
H    -1.295098  -1.253013  1.550048
H    -2.933467  0.705528  0.119450
C    -3.790288  -1.029416  1.077771
C    -3.824032  -1.960585  -0.147164
C    -2.595834  -2.878900  -0.372836
C    -1.644089  -2.386220  -1.470064
N    -0.206782  -2.754970  -1.180554
H    -4.785217  -0.581647  1.200265
H    -3.614032  -1.624182  1.991308
H    -4.020995  -1.371912  -1.057499
H    -4.706756  -2.601445  -0.025871
H    -2.934479  -3.889356  -0.638918
H    -2.047119  -2.999937  0.574880
H    -1.654620  -1.293975  -1.563994
H    -1.913840  -2.803471  -2.446998
H    0.205375  -2.023567  -0.474092
H    0.372437  -2.707049  -2.026439
H    -0.127116  -3.706778  -0.806475
N    -2.274819  1.435305  3.113500
C    -2.514294  2.361329  4.211514
H    -1.384862  0.953696  3.061684
H    -1.756976  3.155204  4.221694
H    -2.498723  1.838196  5.176474
H    -3.502648  2.807196  4.063341
