34
Energy: -18219.9122324 eV PBE+vdW (tier 2 basis)
C    -0.329220  -0.576514  -1.192360
C    0.135330  -0.737507  0.236315
O    1.243132  -1.171577  0.537970
H    0.556126  -0.488403  -1.828477
H    -0.974424  0.299361  -1.336868
H    -0.885227  -1.466364  -1.519683
N    -0.730232  -0.366427  1.247836
C    -2.150070  -0.078700  1.218821
C    -2.553655  0.311542  2.643607
O    -2.052964  -0.241783  3.651294
H    -0.282847  -0.329705  2.158315
H    -2.346659  0.794565  0.573216
C    -3.064572  -1.242466  0.695988
C    -2.581861  -2.698576  0.791777
C    -2.359104  -3.349095  2.174713
C    -0.901905  -3.357808  2.673121
N    -0.713808  -2.487064  3.891417
H    -3.254185  -1.044503  -0.367805
H    -4.045580  -1.148298  1.187069
H    -1.672846  -2.837077  0.189190
H    -3.353111  -3.285045  0.272978
H    -2.686180  -4.394299  2.109985
H    -3.017796  -2.891020  2.929125
H    -0.206989  -2.976107  1.916027
H    -0.573353  -4.365884  2.949464
H    0.281987  -2.327193  4.081260
H    -1.119959  -2.923823  4.725946
H    -1.213837  -1.531443  3.752035
N    -3.494529  1.255705  2.748572
C    -4.067911  1.715467  4.007965
H    -3.815558  1.695444  1.892005
H    -5.157839  1.594498  3.992997
H    -3.825900  2.772710  4.172397
H    -3.645099  1.120283  4.821025
