34
Energy: -18220.2079109 eV PBE+vdW (tier 2 basis)
C    0.527741  0.136016  0.601334
C    0.149110  0.335185  2.041092
O    0.945501  0.766739  2.890256
H    1.581235  -0.159477  0.560540
H    0.435345  1.091277  0.064470
H    -0.087354  -0.615186  0.093269
N    -1.129221  0.039663  2.442173
C    -2.366631  0.148204  1.694933
C    -2.407278  1.420934  0.821984
O    -1.892482  2.499685  1.178747
H    -1.232712  0.081311  3.452189
H    -2.488124  -0.719968  1.025381
C    -3.560264  0.129685  2.698030
C    -3.393084  0.804138  4.075980
C    -3.189160  2.337938  4.169121
C    -1.823594  2.859045  4.634707
N    -0.748332  2.864141  3.571977
H    -3.805511  -0.924665  2.887406
H    -4.435884  0.555150  2.187597
H    -2.620174  0.289134  4.672483
H    -4.319985  0.558973  4.612434
H    -3.473336  2.836566  3.231959
H    -3.893821  2.720196  4.920523
H    -1.445080  2.284890  5.490153
H    -1.937346  3.897601  4.965443
H    -0.185215  3.717150  3.623593
H    -0.072604  2.055140  3.616412
H    -1.188339  2.793164  2.597740
N    -3.066799  1.287920  -0.338762
C    -3.303936  2.378408  -1.276659
H    -3.429733  0.369890  -0.574717
H    -2.800560  3.272633  -0.899941
H    -4.378737  2.578766  -1.370415
H    -2.899841  2.123269  -2.263701
