34
Energy: -18220.195531 eV PBE+vdW (tier 2 basis)
C    1.888365  -0.387536  1.138358
C    1.194906  -0.082456  2.438131
O    1.737165  0.670590  3.294829
H    2.841833  -0.884184  1.361639
H    2.127952  0.550540  0.621836
H    1.300298  -1.028037  0.473023
N    0.009668  -0.658887  2.642513
C    -0.805427  -0.577469  3.845073
C    -2.025429  -1.478274  3.518681
O    -2.213470  -1.850263  2.358378
H    -0.452335  -1.223436  1.916708
H    -0.241452  -1.019244  4.682839
C    -1.208064  0.878391  4.226889
C    -0.555728  1.376809  5.529258
C    -0.398978  2.907644  5.627994
C    0.988699  3.435019  5.281098
N    1.387326  3.161013  3.852067
H    -2.301217  0.957326  4.308914
H    -0.943538  1.519099  3.374284
H    0.432160  0.905435  5.641702
H    -1.151742  1.028834  6.382589
H    -0.584491  3.238269  6.659545
H    -1.162009  3.420915  5.019879
H    1.756232  2.957710  5.903774
H    1.047707  4.519632  5.436805
H    2.303111  3.574941  3.646073
H    0.713902  3.576822  3.199511
H    1.472135  2.085249  3.626908
N    -2.851650  -1.825174  4.531605
C    -2.742799  -1.513906  5.948124
H    -3.644491  -2.384546  4.228937
H    -1.695241  -1.505509  6.272076
H    -3.254146  -2.295558  6.519488
H    -3.203480  -0.547485  6.202309
