34
Energy: -18219.7962046 eV PBE+vdW (tier 2 basis)
C    -0.706515  1.621808  -0.540412
C    -0.025301  1.420262  0.776870
O    1.167424  1.780527  0.952663
H    -0.039987  2.180301  -1.201493
H    -0.942921  0.649903  -0.995503
H    -1.664312  2.149266  -0.433430
N    -0.681872  0.814394  1.801951
C    -2.121007  0.809582  2.137746
C    -3.010719  0.274342  0.977065
O    -3.768925  1.011863  0.356263
H    -0.067393  0.617316  2.587632
H    -2.197202  0.088036  2.964680
C    -2.636617  2.178794  2.630720
C    -1.625878  2.997380  3.459550
C    -0.848532  4.025769  2.608868
C    0.538501  4.421564  3.100823
N    1.511514  3.257527  3.087473
H    -3.542914  1.984388  3.219085
H    -2.977781  2.755801  1.759625
H    -0.939198  2.314042  3.989713
H    -2.156844  3.531142  4.258485
H    -1.434309  4.954308  2.549459
H    -0.762402  3.686641  1.568451
H    0.969443  5.186056  2.443796
H    0.522016  4.821923  4.122800
H    1.400194  2.610906  2.195691
H    2.480265  3.592735  3.115820
H    1.380710  2.664600  3.912634
N    -2.872902  -1.046741  0.715904
C    -3.632923  -1.704609  -0.341018
H    -2.238772  -1.602091  1.277545
H    -4.709204  -1.559240  -0.188320
H    -3.406626  -2.774437  -0.323589
H    -3.370932  -1.296493  -1.325914
