34
Energy: -18219.482711 eV PBE+vdW (tier 2 basis)
C    -1.550925  -0.914703  0.678337
C    -0.858039  -0.524416  1.963987
O    0.324670  -0.762897  2.184094
H    -1.480400  -2.002738  0.555735
H    -1.013784  -0.460206  -0.163026
H    -2.605589  -0.616945  0.633208
N    -1.648394  0.113032  2.898648
C    -1.099318  0.557348  4.169784
C    -1.948795  0.071179  5.359896
O    -2.477117  0.873921  6.147291
H    -2.626427  0.274181  2.689106
H    -0.113933  0.063800  4.220052
C    -0.852370  2.071467  4.227086
C    -2.071386  2.964389  3.911500
C    -2.157163  4.209010  4.813178
C    -2.658491  3.833495  6.199583
N    -2.517060  5.008050  7.165976
H    -0.040990  2.298874  3.522706
H    -0.458291  2.294361  5.229789
H    -3.009257  2.399768  4.017127
H    -2.029613  3.299745  2.867708
H    -2.829155  4.957481  4.363890
H    -1.158071  4.673840  4.881092
H    -2.116774  2.984074  6.633314
H    -3.722497  3.568720  6.197839
H    -2.874048  4.770362  8.100581
H    -3.030509  5.834506  6.830840
H    -1.530052  5.280038  7.265956
N    -2.089977  -1.264433  5.523570
C    -1.493042  -2.352668  4.759212
H    -2.685010  -1.512496  6.309321
H    -1.349918  -3.210200  5.425545
H    -0.513118  -2.067937  4.360692
H    -2.131790  -2.663790  3.920333
