34
Energy: -18219.2347239 eV PBE+vdW (tier 2 basis)
C    -0.192500  0.897185  1.109184
C    0.307796  0.174313  2.344799
O    1.442504  0.314988  2.781849
H    0.572739  1.617361  0.809104
H    -0.357943  0.199248  0.275114
H    -1.138653  1.424642  1.291201
N    -0.589057  -0.654865  3.000055
C    -1.886599  -1.124768  2.544927
C    -3.117709  -0.506989  3.263226
O    -4.239357  -0.943411  3.013178
H    -0.179573  -1.108430  3.815009
H    -2.005448  -0.817257  1.494988
C    -1.984408  -2.656106  2.613016
C    -1.048023  -3.366986  1.632420
C    -1.111087  -4.892987  1.774493
C    -0.130073  -5.653759  0.897062
N    -0.428568  -5.417120  -0.582323
H    -3.032665  -2.924082  2.422548
H    -1.758994  -2.984009  3.641886
H    -0.011145  -3.024733  1.787417
H    -1.333410  -3.051736  0.609906
H    -2.135761  -5.261410  1.598858
H    -0.873151  -5.176972  2.810858
H    0.905886  -5.324053  1.047552
H    -0.182152  -6.738689  1.045929
H    0.247448  -5.893094  -1.193596
H    -1.370117  -5.754965  -0.824889
H    -0.400433  -4.409731  -0.794545
N    -2.847426  0.512512  4.109722
C    -3.881064  1.237657  4.829649
H    -1.874705  0.777257  4.225193
H    -4.846095  0.787739  4.575413
H    -3.890851  2.296735  4.539989
H    -3.724487  1.166480  5.913860
