34
Energy: -18219.5469597 eV PBE+vdW (tier 2 basis)
C    -1.326930  -0.114371  -0.603279
C    -0.695983  0.106161  0.731492
O    0.555423  -0.078489  0.845414
H    -0.840931  0.537387  -1.340371
H    -1.129198  -1.149625  -0.912431
H    -2.406855  0.062863  -0.610298
N    -1.470622  0.511643  1.748787
C    -1.239042  0.532020  3.213275
C    0.124025  1.075018  3.636956
O    1.155356  0.989654  2.912791
H    -2.448868  0.636541  1.505111
H    -1.978029  1.256990  3.582208
C    -1.605779  -0.833734  3.860772
C    -0.819391  -2.083412  3.437673
C    0.621339  -2.224582  3.952784
C    0.786955  -2.141306  5.483566
N    0.090399  -3.126763  6.302147
H    -2.671021  -0.990880  3.633104
H    -1.559835  -0.702481  4.951635
H    -0.828714  -2.181873  2.341297
H    -1.406602  -2.943579  3.795292
H    0.999320  -3.200710  3.611707
H    1.283286  -1.478647  3.488310
H    1.859094  -2.216821  5.714832
H    0.489650  -1.140295  5.842182
H    -0.916375  -3.135377  6.143568
H    0.924457  0.377100  1.833076
H    0.433245  -4.070836  6.125917
N    0.235853  1.648539  4.835077
C    -0.771519  1.864580  5.868636
H    1.191978  1.923565  5.056574
H    -1.746033  2.106830  5.430977
H    -0.458293  2.716290  6.479789
H    -0.875031  0.985917  6.519544
