34
Energy: -18219.6348952 eV PBE+vdW (tier 2 basis)
C    1.975709  0.440798  2.212413
C    0.862309  -0.487044  2.579709
O    1.075377  -1.508641  3.278736
H    2.772059  -0.129936  1.719439
H    1.658829  1.266772  1.567101
H    2.400737  0.852699  3.137831
N    -0.390062  -0.200735  2.147676
C    -1.579296  -0.872791  2.698956
C    -1.602586  -2.315473  2.165860
O    -0.673939  -3.085677  2.624554
H    -0.536841  0.619100  1.567443
H    -1.373532  -1.020867  3.773750
C    -2.823865  0.009995  2.604570
C    -3.950936  -0.479910  3.523792
C    -5.196802  0.415900  3.519634
C    -5.945289  0.506576  2.186714
N    -6.294210  -0.830701  1.675508
H    -3.164524  0.115587  1.566568
H    -2.514472  1.015232  2.933050
H    -3.562017  -0.532065  4.552594
H    -4.243685  -1.506349  3.256934
H    -4.926444  1.435016  3.837192
H    -5.887316  0.038788  4.290384
H    -6.820647  1.164078  2.329486
H    -5.318142  0.997993  1.426115
H    -6.927463  -1.297620  2.328562
H    0.115973  -2.454745  3.072981
H    -6.817120  -0.743490  0.802901
N    -2.441282  -2.847357  1.299663
C    -3.521863  -2.260106  0.499373
H    -2.226512  -3.827496  1.112167
H    -3.889456  -3.049688  -0.162119
H    -3.136954  -1.446491  -0.126537
H    -4.368850  -1.900987  1.107681
