34
Energy: -18219.7554788 eV PBE+vdW (tier 2 basis)
C    0.297778  -0.955602  -0.361991
C    -0.144423  0.402570  0.105292
O    0.354370  1.443401  -0.396908
H    -0.535166  -1.635880  -0.574845
H    0.901094  -1.433844  0.422446
H    0.923330  -0.830482  -1.249445
N    -1.042259  0.545516  1.113988
C    -2.161884  -0.314639  1.552305
C    -1.798653  -1.822481  1.580668
O    -2.277836  -2.613639  0.772981
H    -1.153493  1.527199  1.366237
H    -2.356540  -0.020217  2.595011
C    -3.459563  -0.050552  0.751369
C    -3.321250  -0.010049  -0.781242
C    -2.922269  1.376500  -1.339773
C    -2.046077  1.310266  -2.599596
N    -0.922111  2.317886  -2.519266
H    -3.901086  0.893692  1.106584
H    -4.164297  -0.843544  1.031838
H    -4.276547  -0.317347  -1.225705
H    -2.602791  -0.777334  -1.099670
H    -2.368733  1.930845  -0.569437
H    -3.820815  1.974979  -1.542239
H    -2.605072  1.495439  -3.523667
H    -1.554725  0.333673  -2.691879
H    -1.278283  3.273201  -2.404393
H    -0.333969  2.303486  -3.359994
H    -0.311872  2.061309  -1.659567
N    -0.931586  -2.166988  2.565577
C    -0.467402  -3.531245  2.771954
H    -0.612848  -1.447328  3.205072
H    -0.727226  -3.880482  3.779192
H    0.620758  -3.600802  2.641072
H    -0.961534  -4.169422  2.033303
