34
Energy: -18220.4242749 eV PBE+vdW (tier 2 basis)
C    1.036254  0.060562  1.262941
C    0.120804  0.530629  2.365666
O    0.513210  1.033010  3.411799
H    1.862240  -0.508423  1.703971
H    1.474886  0.939578  0.771393
H    0.534200  -0.552217  0.504972
N    -1.241841  0.358536  2.146299
C    -2.172696  0.991710  3.064349
C    -2.372924  0.175080  4.349081
O    -2.778920  0.732396  5.402886
H    -1.563014  0.139080  1.208430
H    -1.699989  1.929804  3.397186
C    -3.512131  1.292642  2.362574
C    -4.516540  2.138756  3.157764
C    -4.062539  3.586818  3.477129
C    -3.967285  3.942759  4.958218
N    -2.798781  3.282142  5.639823
H    -3.992705  0.342897  2.081344
H    -3.271261  1.814265  1.422518
H    -5.437844  2.183215  2.563041
H    -4.796231  1.614289  4.082532
H    -4.780177  4.296728  3.044741
H    -3.105246  3.821084  2.982517
H    -4.866354  3.618033  5.497626
H    -3.865748  5.026839  5.094795
H    -2.808050  3.468982  6.647929
H    -1.910047  3.645474  5.278296
H    -2.793566  2.157613  5.496537
N    -2.145738  -1.132756  4.278658
C    -2.274572  -2.058302  5.395141
H    -1.751506  -1.463488  3.401153
H    -2.849320  -2.938400  5.084582
H    -2.795776  -1.553241  6.212536
H    -1.284526  -2.379703  5.743897
