34
Energy: -18220.063044 eV PBE+vdW (tier 2 basis)
C    0.887128  -1.646312  0.955625
C    0.610095  -0.636833  2.050894
O    1.499712  -0.011524  2.601501
H    1.885666  -2.060097  1.125336
H    0.905994  -1.127283  -0.013046
H    0.159200  -2.464585  0.896068
N    -0.714397  -0.435151  2.453494
C    -1.945355  -0.843908  1.786335
C    -2.229670  -2.357190  1.961864
O    -2.944423  -3.007827  1.160181
H    -0.786342  0.350673  3.095594
H    -2.748790  -0.353560  2.361717
C    -2.099396  -0.388303  0.318027
C    -3.566958  -0.132144  -0.075162
C    -3.898980  -0.380701  -1.553975
C    -3.617505  -1.797248  -2.051946
N    -4.190600  -2.833860  -1.118992
H    -1.636462  -1.136367  -0.339785
H    -1.516351  0.532048  0.187225
H    -3.833096  0.906501  0.164959
H    -4.233272  -0.743267  0.554026
H    -3.325004  0.301153  -2.198756
H    -4.958187  -0.137711  -1.730823
H    -2.543514  -2.011279  -2.109515
H    -4.045752  -1.957269  -3.048422
H    -3.674803  -2.815569  -0.152024
H    -4.086255  -3.778031  -1.505425
H    -5.192512  -2.678480  -0.960227
N    -1.701740  -2.913934  3.052210
C    -1.880049  -4.301866  3.449951
H    -1.094497  -2.308914  3.602199
H    -0.929518  -4.846793  3.382572
H    -2.611179  -4.768313  2.784534
H    -2.244515  -4.350992  4.482971
