34
Energy: -18219.8292735 eV PBE+vdW (tier 2 basis)
C    0.798068  -0.206198  1.615139
C    0.117839  0.986767  2.207134
O    0.752616  2.042630  2.451684
H    1.699445  -0.405092  2.209019
H    0.170372  -1.102767  1.602451
H    1.117580  0.026625  0.592343
N    -1.191759  0.936474  2.567019
C    -2.315618  0.241170  1.961892
C    -2.127572  0.046989  0.441506
O    -1.427536  0.807699  -0.232116
H    -1.462562  1.745849  3.115844
H    -2.440472  -0.747069  2.428323
C    -3.615396  1.068745  2.246298
C    -3.508456  2.594703  2.466694
C    -3.161458  3.546829  1.302724
C    -1.731725  3.680524  0.773919
N    -0.713034  4.117501  1.814805
H    -4.079920  0.655593  3.151852
H    -4.326406  0.881579  1.429599
H    -2.887317  2.822940  3.352696
H    -4.513094  2.892771  2.801034
H    -3.767086  3.271686  0.425489
H    -3.516527  4.549720  1.591381
H    -1.360539  2.740318  0.347302
H    -1.728387  4.442349  -0.014305
H    -0.019322  4.741348  1.389676
H    -1.145989  4.639151  2.584478
H    -0.129781  3.259833  2.209120
N    -2.799765  -0.988392  -0.116124
C    -3.621083  -2.004730  0.534568
H    -2.678461  -1.051218  -1.123103
H    -3.984956  -2.690268  -0.236358
H    -4.497944  -1.574771  1.037130
H    -3.045437  -2.596204  1.260092
