34
Energy: -18219.5018709 eV PBE+vdW (tier 2 basis)
C    0.638760  0.292183  -0.367646
C    0.146925  -0.158561  0.992090
O    0.694805  -1.049828  1.638098
H    0.416874  -0.497225  -1.098212
H    0.180463  1.225827  -0.716389
H    1.728151  0.405283  -0.335410
N    -0.963294  0.493775  1.464609
C    -1.654074  0.068371  2.669662
C    -3.015819  0.777785  2.679745
O    -3.132852  1.918449  2.216725
H    -1.445651  1.187808  0.900359
H    -1.783884  -1.025555  2.626956
C    -0.865761  0.358240  3.975843
C    -0.806605  1.818761  4.446903
C    -0.173257  2.799916  3.449697
C    0.000727  4.205832  3.994548
N    1.006907  4.220975  5.146441
H    0.145168  -0.044212  3.823893
H    -1.319111  -0.239382  4.779814
H    -0.242602  1.802238  5.400727
H    -1.816525  2.179634  4.698730
H    -0.832504  2.893893  2.575987
H    0.788298  2.417166  3.068779
H    0.389917  4.905889  3.246101
H    -0.932404  4.610503  4.407190
H    1.092485  5.149028  5.579535
H    0.716449  3.549597  5.872067
H    1.938728  3.932624  4.819043
N    -4.021238  0.093386  3.272039
C    -5.372815  0.615780  3.407605
H    -3.845477  -0.867132  3.545422
H    -6.076333  0.050645  2.782316
H    -5.366036  1.658655  3.077018
H    -5.704046  0.564915  4.452382
