34
Energy: -18219.9947033 eV PBE+vdW (tier 2 basis)
C    -0.348313  -1.404416  0.754427
C    -0.360311  -0.660791  2.070618
O    0.485585  -0.825061  2.936941
H    -1.263176  -1.282631  0.162120
H    0.500509  -1.042758  0.158546
H    -0.177331  -2.468650  0.951272
N    -1.388790  0.274380  2.206989
C    -1.656638  0.928121  3.488717
C    -2.794049  1.938554  3.381682
O    -3.355061  2.356410  4.424298
H    -2.217119  0.038245  1.665433
H    -2.009559  0.180268  4.218500
C    -0.419073  1.670455  4.091115
C    0.116519  1.074665  5.405444
C    -0.871753  0.875077  6.566257
C    -1.301443  2.096236  7.371170
N    -2.055812  3.122285  6.548818
H    -0.667246  2.737778  4.204285
H    0.387465  1.641445  3.350733
H    0.964556  1.690381  5.745544
H    0.536342  0.092033  5.154226
H    -0.400920  0.202052  7.297884
H    -1.772853  0.338566  6.230389
H    -0.444161  2.610480  7.824191
H    -1.977632  1.793080  8.179027
H    -2.690137  3.674700  7.134552
H    -2.630463  2.681341  5.727571
H    -1.407100  3.781555  6.107432
N    -3.138357  2.376030  2.165351
C    -4.171386  3.374700  1.918475
H    -2.561435  2.067430  1.387146
H    -4.835875  3.415128  2.785623
H    -3.728431  4.367081  1.758773
H    -4.747144  3.094302  1.030059
