34
Energy: -18219.641256 eV PBE+vdW (tier 2 basis)
C    -0.055443  -0.990395  0.905659
C    -0.236487  0.174318  1.848550
O    0.773443  0.833259  2.187554
H    0.791375  -1.596200  1.246735
H    0.201390  -0.592463  -0.085468
H    -0.942069  -1.626464  0.807158
N    -1.518156  0.384313  2.250396
C    -2.140413  1.475631  3.018373
C    -3.132884  2.222219  2.090608
O    -2.800659  2.493338  0.940704
H    -2.185740  -0.241635  1.811894
H    -2.649933  1.028139  3.884950
C    -1.050156  2.440872  3.465978
C    -1.311923  3.634657  4.368966
C    -0.015846  4.474740  4.404823
C    1.297134  3.697176  4.584069
N    1.819707  3.028205  3.318959
H    -0.616246  2.815650  2.527933
H    -0.307901  1.813733  3.970122
H    -1.579892  3.308591  5.385183
H    -2.131801  4.269521  4.004918
H    -0.059861  5.198974  5.229949
H    0.055050  5.081679  3.486576
H    1.211434  2.904610  5.338663
H    2.090971  4.381129  4.907502
H    1.863799  3.706549  2.549037
H    1.255663  2.177373  2.951401
H    2.777248  2.689732  3.469981
N    -4.326513  2.593515  2.624612
C    -4.863411  2.304469  3.949662
H    -4.915149  3.108430  1.975512
H    -4.951142  1.224806  4.135398
H    -5.869684  2.730132  4.009031
H    -4.265130  2.759245  4.751254
