34
Energy: -18219.9029253 eV PBE+vdW (tier 2 basis)
C    -1.857122  -0.489200  -0.558937
C    -0.973541  -0.007692  0.574531
O    -0.117634  0.841970  0.395453
H    -2.717145  -1.098239  -0.264926
H    -1.234207  -1.088530  -1.237252
H    -2.198713  0.383882  -1.125258
N    -1.065810  -0.624570  1.828086
C    -2.185286  -1.317467  2.462125
C    -2.567302  -2.624536  1.746146
O    -3.727733  -3.099958  1.786791
H    -0.410175  -0.188611  2.474597
H    -1.765043  -1.699746  3.409509
C    -3.356796  -0.411948  2.914134
C    -4.101991  0.467531  1.898268
C    -5.206786  -0.158783  1.030873
C    -6.356594  -0.792111  1.822561
N    -6.154911  -2.279246  2.008176
H    -2.912608  0.268573  3.654621
H    -4.054449  -1.031446  3.500661
H    -3.379392  0.970447  1.241050
H    -4.567057  1.285062  2.470525
H    -4.804875  -0.894486  0.317662
H    -5.634072  0.639588  0.409205
H    -7.321580  -0.656348  1.322051
H    -6.439507  -0.352722  2.824412
H    -6.636325  -2.631238  2.841514
H    -5.088445  -2.544074  2.051404
H    -6.528966  -2.796052  1.205221
N    -1.556082  -3.277462  1.170002
C    -1.667941  -4.572086  0.515346
H    -0.659551  -2.795828  1.170843
H    -0.862328  -5.230935  0.858988
H    -1.598157  -4.464497  -0.575512
H    -2.633191  -5.016471  0.771921
