34
Energy: -18219.9257217 eV PBE+vdW (tier 2 basis)
C    -0.386995  0.228635  0.058956
C    -0.426223  -1.075441  0.800087
O    0.473382  -1.937966  0.641129
H    -0.879806  0.114393  -0.919149
H    0.659991  0.481486  -0.136710
H    -0.878086  1.046372  0.597116
N    -1.455579  -1.320788  1.646924
C    -2.833599  -0.813290  1.558828
C    -3.260768  0.125312  2.718677
O    -4.430235  0.483248  2.784994
H    -1.353568  -2.187670  2.171669
H    -2.909158  -0.198151  0.650272
C    -3.811466  -1.997709  1.448502
C    -3.919936  -2.692591  0.079412
C    -2.635702  -3.236900  -0.577812
C    -1.915967  -4.323736  0.228020
N    -0.430805  -4.308495  -0.045492
H    -4.802182  -1.600135  1.706097
H    -3.572785  -2.720356  2.248739
H    -4.371190  -1.988682  -0.635155
H    -4.648030  -3.511941  0.179162
H    -1.942343  -2.406849  -0.773525
H    -2.894974  -3.640179  -1.567359
H    -2.298458  -5.324660  -0.003794
H    -2.021111  -4.178000  1.309944
H    0.051077  -5.078562  0.431616
H    0.002530  -3.357280  0.296270
H    -0.237930  -4.402914  -1.049299
N    -2.278082  0.507802  3.570835
C    -2.512913  1.419464  4.681218
H    -1.342359  0.151733  3.415272
H    -1.943528  2.349144  4.552480
H    -2.227718  0.953439  5.632780
H    -3.581382  1.654965  4.701423
