34
Energy: -18220.4330794 eV PBE+vdW (tier 2 basis)
C    -0.387934  1.670756  -0.106878
C    -0.408120  1.547545  1.390383
O    0.479374  2.126171  2.071854
H    -0.420621  2.732530  -0.380896
H    -1.214471  1.143661  -0.594160
H    0.564182  1.270603  -0.478845
N    -1.387309  0.809823  1.926962
C    -1.506127  0.388340  3.314164
C    -2.073742  -1.056477  3.228302
O    -2.697649  -1.398322  2.224393
H    -2.008038  0.264118  1.318309
H    -0.501125  0.377304  3.761722
C    -2.491204  1.268846  4.121602
C    -2.160638  2.767129  4.236879
C    -1.309278  3.189257  5.446108
C    0.118930  2.663093  5.540354
N    0.959705  3.109180  4.376888
H    -2.607756  0.832343  5.126269
H    -3.471378  1.160522  3.635444
H    -3.110315  3.311872  4.328235
H    -1.721453  3.132143  3.296040
H    -1.815889  2.876147  6.371852
H    -1.279113  4.290386  5.493848
H    0.161182  1.566832  5.550750
H    0.596149  3.021162  6.461144
H    1.948984  2.882757  4.523575
H    0.899391  4.126056  4.252577
H    0.655853  2.627675  3.418249
N    -1.870266  -1.839858  4.309609
C    -2.394537  -3.195915  4.420114
H    -1.314306  -1.477682  5.075495
H    -2.954101  -3.415698  3.506480
H    -3.065567  -3.283110  5.283907
H    -1.576813  -3.920185  4.523270
