34
Energy: -18219.5190558 eV PBE+vdW (tier 2 basis)
C    0.758185  0.540833  0.590902
C    0.210458  -0.184580  1.801704
O    0.920400  -0.582627  2.720698
H    1.414455  1.351535  0.927793
H    -0.016916  0.947484  -0.070318
H    1.378182  -0.158950  0.015602
N    -1.150353  -0.375752  1.818334
C    -1.783437  -1.184112  2.842802
C    -3.153310  -1.612879  2.299341
O    -3.837069  -0.868980  1.578677
H    -1.731040  -0.118384  1.025760
H    -1.160714  -2.079403  3.001839
C    -1.871502  -0.476862  4.233134
C    -2.199349  1.019937  4.213893
C    -3.636763  1.346362  3.783129
C    -3.847784  2.834952  3.591640
N    -5.231751  3.077234  2.990592
H    -0.885479  -0.592586  4.699749
H    -2.589453  -1.025291  4.862903
H    -1.493349  1.521783  3.534535
H    -2.008355  1.429321  5.217078
H    -4.348127  0.959390  4.532490
H    -3.851065  0.828258  2.833083
H    -3.132466  3.265245  2.879152
H    -3.809295  3.415146  4.522380
H    -5.967511  2.740030  3.625797
H    -5.328029  2.549959  2.110800
H    -5.410581  4.070775  2.794777
N    -3.567239  -2.839410  2.678398
C    -4.851836  -3.393971  2.273114
H    -2.931158  -3.421477  3.210537
H    -5.683335  -2.839113  2.727915
H    -4.902490  -4.437441  2.596851
H    -4.963369  -3.348055  1.182879
