34
Energy: -18220.4188222 eV PBE+vdW (tier 2 basis)
C    -0.057272  -1.631618  -0.406784
C    0.100302  -0.806176  0.845731
O    1.147900  -0.178871  1.073528
H    -1.028991  -2.130024  -0.494998
H    0.737267  -2.388030  -0.434845
H    0.090782  -0.978901  -1.276470
N    -0.966695  -0.786103  1.685552
C    -1.129547  -0.039415  2.947769
C    -0.392839  1.324274  2.920227
O    0.551093  1.611766  3.675440
H    -1.766086  -1.346667  1.408991
H    -2.198841  0.226119  2.953923
C    -0.950214  -0.889737  4.230938
C    0.423553  -1.177823  4.856995
C    1.471371  -1.923411  3.996426
C    2.827027  -1.226391  3.942113
N    2.719803  0.094616  3.235817
H    -1.468037  -1.842032  4.033862
H    -1.549904  -0.389428  5.005895
H    0.223124  -1.775328  5.756770
H    0.838394  -0.234109  5.232125
H    1.112357  -2.089276  2.972546
H    1.649887  -2.926523  4.405901
H    3.565954  -1.828886  3.399461
H    3.216109  -1.032865  4.950188
H    1.982604  0.721751  3.663495
H    2.330542  -0.041396  2.268677
H    3.613963  0.590549  3.195002
N    -0.910143  2.222604  2.063935
C    -0.341436  3.551975  1.879889
H    -1.681586  1.942727  1.469000
H    0.595622  3.506292  1.307838
H    -0.134395  4.004870  2.855546
H    -1.062210  4.172274  1.339361
