34
Energy: -18219.8579024 eV PBE+vdW (tier 2 basis)
C    -0.134521  0.756255  2.497629
C    -0.776980  -0.171220  3.507102
O    -0.284970  -0.422619  4.595681
H    0.143693  0.222200  1.578189
H    0.771307  1.168110  2.949227
H    -0.797374  1.586702  2.216447
N    -1.994539  -0.748798  3.162987
C    -2.667155  -0.723666  1.873334
C    -4.177891  -0.684856  2.136665
O    -4.941472  -1.655669  1.906860
H    -2.329410  -1.396589  3.872337
H    -2.424620  0.243927  1.410475
C    -2.220096  -1.823291  0.866463
C    -1.604796  -3.104942  1.446583
C    -2.521992  -4.138835  2.118406
C    -3.543036  -4.795351  1.179638
N    -4.904373  -4.157564  1.303023
H    -1.449567  -1.369077  0.228809
H    -3.056745  -2.041258  0.184886
H    -0.821460  -2.829313  2.166378
H    -1.075466  -3.613804  0.626371
H    -3.043682  -3.714325  2.991564
H    -1.884510  -4.934607  2.526035
H    -3.664400  -5.864167  1.387714
H    -3.239142  -4.694198  0.130291
H    -4.828685  -3.074430  1.460790
H    -5.492539  -4.346272  0.484940
H    -5.401901  -4.523892  2.121785
N    -4.692723  0.441287  2.650191
C    -4.002279  1.681575  2.990886
H    -5.692138  0.392531  2.832014
H    -4.755474  2.421436  3.275316
H    -3.449843  2.079434  2.129672
H    -3.310531  1.539288  3.830005
