34
Energy: -18219.264115 eV PBE+vdW (tier 2 basis)
C    -0.280917  -0.413061  -0.947296
C    -0.097045  -0.484183  0.522872
O    1.146714  -0.735860  0.896837
H    -1.182434  0.138747  -1.226651
H    -0.354565  -1.434764  -1.348816
H    0.602013  0.052354  -1.399621
N    -1.040990  -0.332283  1.402259
C    -2.472491  -0.068249  1.216318
C    -2.902354  0.322085  2.662058
O    -2.098516  0.127257  3.585337
H    -0.885393  -0.335028  2.447529
H    -2.593667  0.798376  0.549191
C    -3.273980  -1.269559  0.664191
C    -3.432753  -2.484551  1.586829
C    -2.156587  -3.268995  1.911306
C    -2.427956  -4.615380  2.618851
N    -3.048116  -4.572779  3.935087
H    -2.824612  -1.575637  -0.292771
H    -4.270807  -0.882765  0.401181
H    -4.143153  -3.164885  1.090496
H    -3.925145  -2.174032  2.521913
H    -1.490709  -2.675035  2.559253
H    -1.598865  -3.473923  0.979825
H    -1.472935  -5.153486  2.713141
H    -3.062003  -5.238825  1.968826
H    -2.510908  -4.022459  4.603896
H    1.246232  -0.816356  1.865773
H    -4.000547  -4.213786  3.916308
N    -4.132205  0.828678  2.808307
C    -4.700162  1.206845  4.099601
H    -4.706446  0.952032  1.980988
H    -5.579235  0.590988  4.326301
H    -4.992432  2.263564  4.088963
H    -3.939758  1.049197  4.868896
