34
Energy: -18219.7929175 eV PBE+vdW (tier 2 basis)
C    -1.888122  1.754386  0.422343
C    -0.840772  1.369631  1.423277
O    0.079255  2.175835  1.714863
H    -1.371291  2.069576  -0.493930
H    -2.430639  2.634897  0.791964
H    -2.600914  0.962944  0.179889
N    -0.865221  0.146124  2.010076
C    -2.019751  -0.743629  2.245865
C    -2.582499  -1.408656  0.952434
O    -3.776221  -1.664904  0.861189
H    -0.047349  -0.027704  2.588561
H    -1.602026  -1.577791  2.832654
C    -3.144227  -0.100989  3.071152
C    -2.780768  0.407787  4.477937
C    -2.030315  1.764932  4.544980
C    -0.555039  1.653128  4.949530
N    0.285584  2.705078  4.266158
H    -3.922008  -0.869920  3.159038
H    -3.614201  0.710146  2.494312
H    -2.217026  -0.363351  5.028507
H    -3.723256  0.515897  5.028781
H    -2.108562  2.267651  3.570118
H    -2.533472  2.431695  5.257832
H    -0.121062  0.689557  4.656789
H    -0.419831  1.754184  6.032819
H    0.291226  2.504716  3.184385
H    -0.093577  3.645558  4.424361
H    1.252918  2.702968  4.608170
N    -1.654109  -1.708297  0.008322
C    -1.985638  -2.397259  -1.230544
H    -0.690306  -1.444486  0.176961
H    -3.060563  -2.601815  -1.223406
H    -1.440652  -3.347075  -1.305332
H    -1.742967  -1.775840  -2.102534
