34
Energy: -18220.0724456 eV PBE+vdW (tier 2 basis)
C    0.315216  1.136282  0.098319
C    0.130396  1.034325  1.585371
O    0.896023  1.649886  2.364211
H    -0.424585  0.564284  -0.472359
H    1.320361  0.778243  -0.158709
H    0.261694  2.191476  -0.197219
N    -0.877329  0.261273  2.039126
C    -1.107744  0.068585  3.470956
C    -1.698273  -1.298648  3.871282
O    -1.161523  -1.897143  4.801168
H    -1.462352  -0.207831  1.358318
H    -0.108941  0.010436  3.918242
C    -1.869289  1.256100  4.102713
C    -1.851843  1.278499  5.635429
C    -0.471936  1.303035  6.315050
C    0.456779  2.461607  5.930228
N    1.466739  2.087002  4.869950
H    -2.913734  1.254337  3.760649
H    -1.431387  2.182043  3.698020
H    -2.392915  0.405423  6.026845
H    -2.424277  2.159000  5.964216
H    0.044415  0.339420  6.172797
H    -0.639728  1.371095  7.398235
H    1.036609  2.800472  6.796700
H    -0.097044  3.326101  5.541979
H    2.131997  2.853838  4.716728
H    1.062661  1.846350  3.882804
H    2.015970  1.275775  5.177093
N    -2.813272  -1.781663  3.256184
C    -3.610093  -1.226985  2.172063
H    -3.088143  -2.692878  3.615013
H    -3.628159  -0.131786  2.205237
H    -4.646191  -1.565427  2.282898
H    -3.261504  -1.556207  1.178738
