34
Energy: -18219.5952189 eV PBE+vdW (tier 2 basis)
C    -0.482367  -1.644743  0.624856
C    -0.437154  -1.204711  2.067547
O    0.031128  -1.938259  2.956304
H    0.520302  -1.961847  0.314184
H    -0.844861  -0.868449  -0.057833
H    -1.137999  -2.521851  0.547468
N    -0.930346  0.033121  2.326899
C    -1.155203  0.559832  3.660483
C    -2.506691  1.306133  3.597811
O    -2.888173  1.782096  2.530227
H    -1.430125  0.551507  1.602220
H    -1.209898  -0.294372  4.349012
C    -0.061725  1.573273  4.097212
C    1.390920  1.080092  4.028661
C    1.933700  0.280286  5.229431
C    1.145092  -0.987544  5.541475
N    2.029881  -2.017332  6.236362
H    -0.295331  1.947292  5.106801
H    -0.156613  2.440466  3.427929
H    2.041587  1.959246  3.924518
H    1.532448  0.493888  3.109506
H    1.988751  0.924213  6.121401
H    2.973832  0.006215  4.981341
H    0.764251  -1.474930  4.623876
H    0.306172  -0.809185  6.225236
H    2.803575  -2.291550  5.616010
H    1.501138  -2.869452  6.464040
H    2.443648  -1.654676  7.106057
N    -3.205226  1.450207  4.753465
C    -2.928014  0.849595  6.048081
H    -4.063227  1.983799  4.647303
H    -1.997353  1.231218  6.494744
H    -2.878460  -0.247813  5.991405
H    -3.745202  1.106987  6.728726
