34
Energy: -18219.9007286 eV PBE+vdW (tier 2 basis)
C    -1.896535  0.580312  -1.471342
C    -0.778729  -0.323226  -0.992160
O    -0.091450  -0.973735  -1.764864
H    -1.512300  1.606499  -1.562204
H    -2.776363  0.602543  -0.817426
H    -2.193284  0.244415  -2.468686
N    -0.503093  -0.389085  0.367740
C    -1.181842  0.205849  1.512141
C    -2.674075  -0.198756  1.575006
O    -3.604228  0.646804  1.626433
H    0.305402  -0.973934  0.559241
H    -0.712858  -0.259828  2.395561
C    -0.987737  1.726302  1.630228
C    -1.311814  2.279246  3.028690
C    -1.761499  3.748972  3.053261
C    -2.965433  4.076723  2.171743
N    -4.091896  3.096233  2.383156
H    -1.596750  2.211720  0.855700
H    0.056273  1.944360  1.371281
H    -0.429738  2.181997  3.676478
H    -2.083120  1.657907  3.511407
H    -0.943966  4.406598  2.722690
H    -1.979448  4.042402  4.091700
H    -2.722877  4.025291  1.103747
H    -3.344835  5.083829  2.381284
H    -4.920853  3.361622  1.840674
H    -4.372740  3.059972  3.369569
H    -3.803928  2.087778  2.071968
N    -2.983157  -1.502269  1.560023
C    -2.099004  -2.663830  1.518737
H    -3.984690  -1.681004  1.563203
H    -2.669093  -3.533464  1.859795
H    -1.247090  -2.536352  2.196938
H    -1.725793  -2.856368  0.505133
