34
Energy: -18219.0066624 eV PBE+vdW (tier 2 basis)
C    0.243896  0.019694  0.689764
C    -0.222321  0.411940  2.072887
O    0.511689  0.963401  2.888975
H    -0.412252  0.390210  -0.107961
H    1.254312  0.410673  0.547318
H    0.266343  -1.074404  0.590187
N    -1.518441  0.092732  2.444519
C    -2.689878  -0.185429  1.612398
C    -2.530020  -1.449926  0.722219
O    -2.617150  -1.375223  -0.501002
H    -1.696756  0.345384  3.412571
H    -3.495048  -0.407749  2.330276
C    -3.136645  1.001394  0.731576
C    -2.965732  2.366684  1.402494
C    -3.435258  3.520786  0.504281
C    -2.847744  4.871530  0.881998
N    -3.151423  5.211996  2.339935
H    -4.185215  0.842516  0.440546
H    -2.568814  0.976571  -0.208704
H    -1.900064  2.505927  1.651299
H    -3.516038  2.375843  2.362428
H    -4.534883  3.577518  0.469892
H    -3.116752  3.337088  -0.533166
H    -1.753049  4.876879  0.804128
H    -3.250975  5.697431  0.284195
H    -2.778389  4.477916  2.959190
H    -4.165703  5.268662  2.503559
H    -2.733140  6.108513  2.620064
N    -2.299896  -2.628082  1.361214
C    -2.196209  -2.895356  2.788377
H    -2.193905  -3.411606  0.723339
H    -2.324593  -3.970984  2.947627
H    -2.989832  -2.385891  3.351575
H    -1.224058  -2.593242  3.201579
