34
Energy: -18219.6277906 eV PBE+vdW (tier 2 basis)
C    -1.386967  -0.744831  -0.082355
C    -0.932987  -0.333075  1.299388
O    0.228784  -0.050601  1.572611
H    -2.476487  -0.770213  -0.202731
H    -0.985583  -1.743083  -0.302560
H    -0.956072  -0.054585  -0.816365
N    -1.917887  -0.277332  2.268427
C    -1.577631  -0.028411  3.667425
C    -1.053615  1.413869  3.897572
O    -0.320285  1.673483  4.859238
H    -2.840372  -0.637452  2.051735
H    -2.533672  -0.075597  4.214525
C    -0.618396  -1.094429  4.258913
C    -0.998296  -1.654998  5.640318
C    -0.866105  -0.737667  6.869927
C    0.493444  -0.082994  7.069716
N    1.628430  -1.100144  6.987665
H    0.401253  -0.682548  4.241464
H    -0.608631  -1.941126  3.561010
H    -0.409458  -2.575936  5.806098
H    -2.037910  -2.015556  5.612365
H    -1.153796  -1.304997  7.769065
H    -1.571580  0.102651  6.799320
H    0.582284  0.393749  8.052570
H    0.675709  0.655259  6.277326
H    1.525525  -1.850612  7.683182
H    2.540202  -0.650129  7.135122
H    1.641791  -1.537454  6.056063
N    -1.521451  2.347861  3.049427
C    -1.122581  3.744321  3.115852
H    -2.035625  2.020759  2.239012
H    -1.939048  4.375280  2.748301
H    -0.222315  3.933455  2.513468
H    -0.905029  4.001894  4.157011
