34
Energy: -18219.1010778 eV PBE+vdW (tier 2 basis)
C    0.353279  0.267871  0.073209
C    0.181323  0.383651  1.574038
O    1.045078  0.899784  2.288307
H    -0.381359  -0.383666  -0.414688
H    0.276032  1.272282  -0.365447
H    1.362267  -0.101686  -0.140385
N    -1.007232  -0.090695  2.056541
C    -1.481488  -0.147722  3.440857
C    -2.478145  0.934621  3.934109
O    -3.120918  0.656298  4.946855
H    -1.638210  -0.492910  1.373150
H    -2.102610  -1.053120  3.482965
C    -0.368038  -0.335980  4.501374
C    0.185025  0.963469  5.110272
C    1.638820  0.842223  5.585422
C    1.808935  -0.180518  6.695126
N    3.275013  -0.254840  7.119894
H    0.437996  -0.916014  4.030274
H    -0.802779  -0.958311  5.295587
H    -0.460353  1.297194  5.936308
H    0.185825  1.756099  4.354681
H    1.984904  1.826602  5.942166
H    2.258987  0.569422  4.714803
H    1.535831  -1.196861  6.386927
H    1.242702  0.077271  7.599143
H    3.432577  -0.942962  7.867838
H    3.600999  0.661539  7.456353
H    3.867983  -0.511953  6.318763
N    -2.647987  2.124412  3.296374
C    -1.932425  2.753995  2.191749
H    -3.371032  2.678774  3.747183
H    -0.844851  2.689012  2.315846
H    -2.209028  2.330169  1.216705
H    -2.201882  3.815304  2.184269
