34
Energy: -18219.247154 eV PBE+vdW (tier 2 basis)
C    -0.637141  0.035016  1.640955
C    -1.823829  -0.647599  2.276913
O    -1.829974  -0.976854  3.465437
H    -0.017544  0.472707  2.428542
H    -0.899346  0.798076  0.898768
H    -0.038283  -0.722648  1.115183
N    -2.912509  -0.964881  1.476071
C    -3.467969  -0.088366  0.433830
C    -2.604749  -0.034136  -0.863432
O    -2.562745  0.985841  -1.544557
H    -3.592723  -1.517463  1.993149
H    -4.404658  -0.572283  0.111735
C    -3.799647  1.329314  0.936324
C    -5.171112  1.514618  1.602631
C    -5.540803  0.673085  2.842497
C    -4.566822  0.669988  4.016220
N    -4.148222  2.084276  4.404584
H    -3.748783  1.994259  0.062902
H    -2.979602  1.661013  1.598357
H    -5.953984  1.327465  0.852850
H    -5.290144  2.586682  1.841547
H    -5.670714  -0.384357  2.567121
H    -6.533779  0.996666  3.192443
H    -3.628950  0.130066  3.821109
H    -5.021767  0.234833  4.914161
H    -3.479315  2.067211  5.185370
H    -4.953678  2.660015  4.684051
H    -3.692174  2.553250  3.609909
N    -1.990226  -1.199208  -1.174334
C    -1.192604  -1.377306  -2.377170
H    -2.068530  -1.963116  -0.511409
H    -1.274715  -0.464340  -2.974937
H    -1.563546  -2.226960  -2.964023
H    -0.136111  -1.549462  -2.130426
