34
Energy: -18218.9386049 eV PBE+vdW (tier 2 basis)
C    -0.113748  1.128677  0.534951
C    -0.079772  0.361342  1.851774
O    0.792298  0.554843  2.686641
H    -0.119399  0.450615  -0.332875
H    0.781324  1.754656  0.495095
H    -0.999812  1.775970  0.465682
N    -1.086100  -0.552464  2.070159
C    -2.132744  -0.959419  1.144434
C    -3.444852  -1.228808  1.931184
O    -3.914358  -2.362265  2.003117
H    -0.992012  -1.069862  2.941765
H    -2.320150  -0.106885  0.473589
C    -1.740079  -2.204633  0.328513
C    -2.595243  -2.444082  -0.923135
C    -2.290672  -1.510113  -2.111488
C    -0.953950  -1.842761  -2.754992
N    -0.657768  -0.897254  -3.916525
H    -1.839258  -3.077487  0.986576
H    -0.670921  -2.121161  0.078621
H    -3.657049  -2.341171  -0.662777
H    -2.479590  -3.487938  -1.252427
H    -2.289899  -0.457745  -1.779184
H    -3.090743  -1.607817  -2.862931
H    -0.938605  -2.855548  -3.176666
H    -0.109574  -1.739595  -2.062810
H    0.234139  -1.119803  -4.378939
H    -0.609209  0.078025  -3.590538
H    -1.402257  -0.945442  -4.625892
N    -4.035556  -0.159638  2.530965
C    -3.592492  1.226227  2.572577
H    -4.855248  -0.411023  3.076208
H    -4.422037  1.841935  2.934498
H    -3.329196  1.592717  1.570738
H    -2.730680  1.374088  3.237796
