34
Energy: -18219.3926799 eV PBE+vdW (tier 2 basis)
C    0.181919  0.711062  0.467537
C    -0.148167  -0.193898  1.632086
O    0.708132  -0.797517  2.273214
H    0.715724  0.127268  -0.292733
H    0.867644  1.494289  0.813222
H    -0.696091  1.180291  0.007766
N    -1.487732  -0.318630  1.931397
C    -1.932208  -1.132937  3.051753
C    -3.079117  -2.058330  2.591812
O    -4.233979  -1.903217  3.005321
H    -2.172826  0.208280  1.401191
H    -1.043639  -1.731222  3.314994
C    -2.332013  -0.269500  4.260754
C    -2.229334  -0.959891  5.630405
C    -3.128920  -2.191226  5.824455
C    -3.247026  -2.646069  7.268598
N    -4.048119  -1.624140  8.073375
H    -3.353309  0.107207  4.105418
H    -1.655194  0.594674  4.274227
H    -2.465559  -0.181389  6.382701
H    -1.182459  -1.243605  5.824679
H    -2.728217  -3.047882  5.264004
H    -4.127312  -2.020427  5.389468
H    -2.275165  -2.729667  7.772623
H    -3.783846  -3.596411  7.371139
H    -4.103782  -1.864746  9.070971
H    -5.006334  -1.548305  7.705544
H    -3.612718  -0.693992  7.988294
N    -2.763200  -3.049977  1.718742
C    -1.487147  -3.328745  1.072638
H    -3.574866  -3.570917  1.397186
H    -1.442980  -4.395382  0.826756
H    -0.646641  -3.100017  1.736871
H    -1.358782  -2.749594  0.146507
