34
Energy: -18218.6148803 eV PBE+vdW (tier 2 basis)
C    -1.196182  0.048709  0.325335
C    -1.021505  0.633675  1.711867
O    -0.451079  1.699182  1.903537
H    -0.787882  0.762465  -0.394503
H    -0.651334  -0.900627  0.230883
H    -2.250036  -0.138436  0.078147
N    -1.535071  -0.065101  2.794648
C    -2.171002  -1.381039  2.844569
C    -1.190946  -2.489546  2.339095
O    -0.101922  -2.537783  2.899866
H    -1.155580  0.286902  3.668170
H    -2.200867  -1.626019  3.917847
C    -3.641568  -1.331190  2.381871
C    -4.422066  -0.245180  3.134270
C    -5.896636  -0.161291  2.720092
C    -6.595608  1.108403  3.182628
N    -6.527694  1.248231  4.702112
H    -4.107563  -2.312510  2.554028
H    -3.719278  -1.126869  1.305868
H    -3.923170  0.720685  2.952473
H    -4.332021  -0.447883  4.218570
H    -6.458284  -1.047410  3.058202
H    -5.977415  -0.161242  1.622328
H    -7.660322  1.129315  2.921837
H    -6.113982  2.010127  2.783550
H    -6.964816  2.120521  5.026842
H    -5.546418  1.245463  5.015591
H    -7.001845  0.462549  5.167886
N    -1.512921  -3.400777  1.372249
C    -2.622166  -3.504007  0.434963
H    -0.749629  -4.059463  1.240150
H    -3.565212  -3.789402  0.921268
H    -2.775408  -2.579815  -0.137691
H    -2.376093  -4.292097  -0.283652
