34
Energy: -18220.2240952 eV PBE+vdW (tier 2 basis)
C    0.900574  -0.528660  1.084824
C    -0.014952  0.119046  2.095409
O    0.363529  0.958601  2.904247
H    1.772394  -0.938518  1.608417
H    1.270741  0.245614  0.400642
H    0.423913  -1.323366  0.498544
N    -1.332904  -0.303015  2.069339
C    -2.326725  0.333503  2.918077
C    -3.095560  -0.703898  3.749019
O    -4.343544  -0.860259  3.666308
H    -1.623146  -0.970208  1.363876
H    -1.720091  0.932992  3.619767
C    -3.243954  1.306179  2.164180
C    -3.984269  0.707921  0.953557
C    -5.340128  1.363275  0.645031
C    -6.344054  1.346893  1.796371
N    -6.455143  -0.024070  2.412441
H    -2.625576  2.153081  1.837859
H    -3.947233  1.721761  2.900387
H    -4.134928  -0.374512  1.095611
H    -3.357364  0.792910  0.055994
H    -5.786527  0.873782  -0.234357
H    -5.201802  2.417457  0.362662
H    -7.340223  1.653242  1.455759
H    -6.048564  2.017394  2.612022
H    -5.506634  -0.329820  2.880292
H    -7.177024  -0.045380  3.140383
H    -6.710851  -0.726754  1.709907
N    -2.407866  -1.463039  4.612018
C    -0.983833  -1.439261  4.930851
H    -2.984195  -2.142801  5.103288
H    -0.422844  -2.142740  4.300832
H    -0.860533  -1.728247  5.979717
H    -0.562455  -0.437700  4.796269
