34
Energy: -18219.4548766 eV PBE+vdW (tier 2 basis)
C    0.359828  1.024438  0.462365
C    0.010834  -0.160951  1.334567
O    0.827339  -1.018016  1.654586
H    0.832468  0.658252  -0.456867
H    1.102969  1.641201  0.983755
H    -0.501388  1.650330  0.198892
N    -1.308040  -0.235236  1.743504
C    -1.733750  -1.270680  2.670438
C    -3.152178  -1.792121  2.347592
O    -3.925286  -2.138010  3.243882
H    -1.910918  0.567541  1.595434
H    -1.027042  -2.100128  2.491949
C    -1.606900  -0.849910  4.146826
C    -1.506799  -2.055754  5.086877
C    -1.560747  -1.650431  6.565477
C    -1.505306  -2.878588  7.455585
N    -1.614311  -2.490069  8.930161
H    -2.473842  -0.230848  4.423367
H    -0.704087  -0.229499  4.240886
H    -0.569576  -2.598510  4.884072
H    -2.342935  -2.735591  4.871213
H    -2.497984  -1.099106  6.752183
H    -0.725512  -0.971090  6.807148
H    -0.561585  -3.429434  7.357070
H    -2.336826  -3.567949  7.262934
H    -1.580320  -3.309517  9.551125
H    -2.497806  -1.993383  9.108862
H    -0.848266  -1.857250  9.197840
N    -3.445712  -1.862995  1.025873
C    -4.695515  -2.399188  0.515867
H    -2.730378  -1.563052  0.372009
H    -5.350171  -2.597444  1.370137
H    -4.529994  -3.337175  -0.031576
H    -5.183796  -1.679005  -0.153082
