34
Energy: -18220.008179 eV PBE+vdW (tier 2 basis)
C    0.714788  -0.773255  1.979641
C    -0.157987  -1.797606  2.650722
O    0.324829  -2.899123  3.026847
H    0.497454  0.247735  2.314748
H    0.579791  -0.807677  0.887793
H    1.758538  -1.018411  2.195032
N    -1.467554  -1.549466  2.825387
C    -2.335007  -0.589680  2.152241
C    -3.238121  0.001890  3.260335
O    -3.616488  -0.742081  4.165237
H    -1.970304  -2.127763  3.502118
H    -1.718969  0.176153  1.662864
C    -3.258624  -1.298453  1.128085
C    -2.633427  -2.046989  -0.063675
C    -1.679913  -3.234875  0.198418
C    -2.178831  -4.278694  1.207318
N    -1.024167  -4.871114  1.979041
H    -3.928715  -0.531071  0.712391
H    -3.919516  -1.967201  1.701908
H    -2.090174  -1.335275  -0.703382
H    -3.474646  -2.402386  -0.677534
H    -0.704576  -2.858531  0.529923
H    -1.484246  -3.729356  -0.763798
H    -2.723648  -5.096595  0.721164
H    -2.843072  -3.840537  1.959993
H    -1.344545  -5.573842  2.654185
H    -0.472941  -4.075189  2.524726
H    -0.356927  -5.334396  1.351685
N    -3.589553  1.298799  3.121587
C    -4.494459  1.980144  4.039233
H    -3.196789  1.827640  2.351076
H    -5.372493  2.362604  3.503803
H    -3.985270  2.814116  4.538318
H    -4.817760  1.255500  4.792184
