34
Energy: -18218.8256055 eV PBE+vdW (tier 2 basis)
C    -2.645826  2.208704  -1.823132
C    -1.886986  2.124476  -0.518621
O    -0.780208  2.590392  -0.345490
H    -2.685524  1.224784  -2.314054
H    -3.678153  2.564911  -1.697755
H    -2.109347  2.894889  -2.483455
N    -2.529524  1.480917  0.564628
C    -3.694747  0.621863  0.488365
C    -4.959889  1.430294  0.746303
O    -6.154727  0.970201  0.449952
H    -1.878729  1.291205  1.325883
H    -3.809923  0.219876  -0.533363
C    -3.528032  -0.583716  1.453007
C    -4.708191  -1.565002  1.565253
C    -5.671805  -1.289031  2.726634
C    -6.950640  -2.128796  2.653870
N    -7.773527  -1.921411  3.839538
H    -3.278946  -0.195299  2.453032
H    -2.634484  -1.106118  1.085616
H    -4.296559  -2.576660  1.688579
H    -5.251252  -1.634049  0.599032
H    -5.946890  -0.221170  2.776849
H    -5.164906  -1.506594  3.677936
H    -7.470165  -1.915278  1.692636
H    -6.675122  -3.193457  2.617028
H    -8.274219  -1.033830  3.804592
H    -6.111522  0.028062  0.187817
H    -8.474392  -2.653780  3.938250
N    -4.867175  2.630437  1.238909
C    -5.959217  3.547224  1.558342
H    -3.892241  2.923437  1.376266
H    -6.916598  3.091378  1.296739
H    -5.824387  4.477307  0.994055
H    -5.936250  3.772508  2.631289
