34
Energy: -18219.4850783 eV PBE+vdW (tier 2 basis)
C    0.087571  -0.640221  -0.010729
C    0.096764  -0.407288  1.480865
O    1.133337  -0.417308  2.149259
H    0.746265  0.097410  -0.485195
H    -0.908808  -0.573151  -0.463156
H    0.510686  -1.631093  -0.217368
N    -1.123560  -0.167534  2.063684
C    -1.242955  0.040850  3.502314
C    -1.336439  -1.313530  4.268324
O    -2.399563  -1.694174  4.766726
H    -1.965148  -0.353385  1.528412
H    -0.312429  0.546937  3.803115
C    -2.460065  0.902754  3.836074
C    -2.462622  1.346433  5.308643
C    -3.861844  1.602063  5.884953
C    -4.671448  2.673636  5.172876
N    -3.951587  4.018626  5.254721
H    -3.362485  0.301000  3.643619
H    -2.472614  1.764735  3.149449
H    -1.796006  2.218760  5.449489
H    -2.018803  0.554473  5.925071
H    -3.800504  1.841043  6.959238
H    -4.444423  0.670934  5.818690
H    -5.659448  2.828045  5.621791
H    -4.797860  2.468324  4.102870
H    -4.439450  4.755925  4.730635
H    -2.997331  3.927992  4.877162
H    -3.863465  4.326568  6.232694
N    -0.165914  -1.985455  4.316168
C    -0.038521  -3.312008  4.896162
H    0.615185  -1.584842  3.791149
H    0.864455  -3.366391  5.515841
H    0.019783  -4.086210  4.117790
H    -0.918798  -3.505417  5.516872
