34
Energy: -18218.9724231 eV PBE+vdW (tier 2 basis)
C    -0.799696  -1.407977  0.212633
C    -0.583840  -0.934922  1.634079
O    0.266661  -1.420575  2.373330
H    -1.459447  -0.758516  -0.376110
H    -1.236069  -2.415198  0.244240
H    0.170677  -1.489929  -0.289393
N    -1.411965  0.089208  2.047809
C    -1.489638  0.470046  3.454088
C    -2.914944  0.670221  4.011012
O    -3.174422  0.231553  5.126679
H    -2.145209  0.375936  1.412727
H    -1.111040  -0.394584  4.015860
C    -0.604427  1.677370  3.846187
C    0.893171  1.394662  3.661874
C    1.818665  2.311253  4.478153
C    1.720467  3.770865  4.068534
N    2.687513  4.618141  4.894171
H    -0.816445  1.881780  4.908755
H    -0.916589  2.569476  3.277983
H    1.167523  1.442563  2.597249
H    1.102033  0.360063  3.964001
H    2.858609  1.966933  4.351291
H    1.571984  2.212812  5.549291
H    0.725463  4.197945  4.242314
H    1.996002  3.931253  3.018480
H    2.653725  5.613689  4.637189
H    3.655243  4.289899  4.768658
H    2.469499  4.541843  5.897418
N    -3.850112  1.374281  3.299952
C    -3.757384  2.059699  2.022510
H    -4.747475  1.402118  3.776611
H    -4.465379  2.896463  2.015926
H    -4.010631  1.411022  1.166385
H    -2.758033  2.483236  1.864189
