34
Energy: -18220.3349719 eV PBE+vdW (tier 2 basis)
C    0.173674  -0.064932  -0.179684
C    0.218567  -0.640238  1.215819
O    0.912719  -1.643681  1.446493
H    -0.027147  -0.878261  -0.886655
H    1.165853  0.338547  -0.421483
H    -0.572380  0.725500  -0.317702
N    -0.551969  0.008795  2.130038
C    -0.772272  -0.192762  3.569377
C    0.411564  0.330617  4.411502
O    1.594842  0.204768  4.057864
H    -1.031282  0.819846  1.756869
H    -1.613605  0.482129  3.778964
C    -1.314510  -1.583541  4.005785
C    -0.442068  -2.847640  3.985447
C    0.720849  -2.904781  5.007477
C    2.077965  -3.269875  4.412789
N    2.553675  -2.228147  3.442680
H    -2.193344  -1.766310  3.370545
H    -1.712927  -1.449271  5.024116
H    -0.074246  -3.013874  2.967005
H    -1.122537  -3.685965  4.187959
H    0.505641  -3.662355  5.773042
H    0.816607  -1.960403  5.562560
H    2.031482  -4.223030  3.869999
H    2.836983  -3.363373  5.199549
H    3.502240  -2.415890  3.107909
H    2.495253  -1.267468  3.854274
H    1.897057  -2.122723  2.607877
N    0.104814  0.943161  5.577238
C    -1.205073  1.294787  6.118194
H    0.923817  1.267961  6.085251
H    -1.824664  0.409159  6.308379
H    -1.749654  1.984383  5.458243
H    -1.051590  1.802672  7.074806
