34
Energy: -18218.7677514 eV PBE+vdW (tier 2 basis)
C    0.308902  -0.965604  0.477225
C    0.097910  0.014530  1.613196
O    1.049057  0.562087  2.161464
H    1.224324  -0.679726  -0.050408
H    -0.522285  -1.053357  -0.230988
H    0.456571  -1.960859  0.916981
N    -1.181337  0.266643  2.078513
C    -2.496207  -0.038812  1.540817
C    -2.638482  -1.532693  1.131815
O    -2.059096  -2.407771  1.757083
H    -1.158955  0.844646  2.914138
H    -3.183884  0.027883  2.400400
C    -2.971803  1.057562  0.546932
C    -2.061781  1.285000  -0.663131
C    -2.404906  2.571115  -1.429659
C    -1.384621  2.822504  -2.528047
N    -1.661536  4.141513  -3.246395
H    -3.019007  1.992661  1.127681
H    -4.010502  0.868559  0.228275
H    -2.098984  0.422545  -1.345943
H    -1.023686  1.362094  -0.308061
H    -2.406109  3.419866  -0.724871
H    -3.417886  2.505710  -1.860719
H    -1.398128  2.046271  -3.303209
H    -0.364358  2.903471  -2.132359
H    -0.979327  4.322853  -3.995250
H    -1.621766  4.931366  -2.587245
H    -2.600423  4.142286  -3.668146
N    -3.472466  -1.797527  0.081053
C    -3.827775  -3.166343  -0.270817
H    -4.048573  -1.051762  -0.287457
H    -4.053853  -3.224931  -1.341409
H    -4.694976  -3.526081  0.301770
H    -2.975660  -3.813626  -0.041637
