34
Energy: -18219.3567027 eV PBE+vdW (tier 2 basis)
C    -0.122396  -1.335034  0.440521
C    0.061957  -0.956659  1.895774
O    1.096564  -1.196586  2.519553
H    0.772510  -1.045919  -0.121982
H    -1.010162  -0.887516  -0.022438
H    -0.208590  -2.427743  0.373225
N    -1.006862  -0.336985  2.482435
C    -1.041356  -0.010694  3.893410
C    -2.485413  0.406141  4.212403
O    -3.197687  0.904883  3.336974
H    -1.854877  -0.113676  1.966032
H    -0.748770  -0.901248  4.469650
C    -0.043828  1.117136  4.273684
C    -0.227054  2.396929  3.455931
C    0.938037  3.374322  3.662668
C    0.778787  4.601994  2.783722
N    1.962908  5.552555  2.958140
H    0.961094  0.704916  4.106161
H    -0.136225  1.332376  5.348935
H    -1.179446  2.888038  3.707480
H    -0.289048  2.129610  2.389746
H    1.885027  2.862799  3.420399
H    0.994185  3.677057  4.722163
H    -0.117326  5.185234  3.029765
H    0.749985  4.349299  1.716439
H    1.878261  6.390925  2.367937
H    2.845052  5.081269  2.714545
H    2.042388  5.860926  3.936788
N    -2.913520  0.255433  5.493003
C    -2.264599  -0.477390  6.574059
H    -3.877275  0.546096  5.630022
H    -1.290598  -0.045351  6.839452
H    -2.125871  -1.540511  6.331136
H    -2.903977  -0.415167  7.460088
