34
Energy: -18218.9142197 eV PBE+vdW (tier 2 basis)
C    -1.065719  0.388492  -0.784188
C    -0.303196  0.152591  0.501028
O    0.876049  0.448432  0.647924
H    -0.361578  0.754298  -1.535316
H    -1.544866  -0.529097  -1.152589
H    -1.858995  1.137322  -0.645915
N    -0.996297  -0.435371  1.547780
C    -2.427526  -0.641596  1.646368
C    -3.332268  0.614418  1.748094
O    -4.458208  0.551316  1.249086
H    -0.434617  -0.500809  2.392649
H    -2.780051  -1.114497  0.717777
C    -2.726829  -1.613675  2.807792
C    -4.179543  -2.102573  2.829222
C    -4.537080  -2.993843  4.030476
C    -3.818327  -4.333954  4.000895
N    -4.278496  -5.215053  5.160059
H    -2.482809  -1.125316  3.767192
H    -2.026263  -2.456817  2.692321
H    -4.406289  -2.638579  1.894254
H    -4.859077  -1.240653  2.834828
H    -5.625732  -3.167667  4.022650
H    -4.300902  -2.465729  4.969869
H    -2.731038  -4.242323  4.108125
H    -4.034298  -4.900200  3.086068
H    -3.809584  -6.130952  5.161409
H    -4.086644  -4.760595  6.063494
H    -5.293709  -5.379455  5.111980
N    -2.904463  1.735931  2.389399
C    -1.667508  2.023531  3.108712
H    -3.596607  2.479001  2.349861
H    -1.813390  2.957793  3.660877
H    -0.805402  2.152075  2.441843
H    -1.431927  1.245909  3.847502
