34
Energy: -18220.4318904 eV PBE+vdW (tier 2 basis)
C    -0.410600  -0.361237  0.277581
C    -0.099366  0.288471  1.600978
O    1.049844  0.607688  1.929425
H    0.235788  -1.237272  0.148896
H    -0.159933  0.346482  -0.523471
H    -1.458754  -0.662592  0.167819
N    -1.160171  0.512099  2.436470
C    -1.054807  1.312705  3.657304
C    -0.435908  0.527720  4.844672
O    -0.999275  0.408820  5.968042
H    -2.078900  0.201226  2.143772
H    -0.332785  2.116883  3.436465
C    -2.400004  1.948800  4.012601
C    -3.587607  0.968602  4.166870
C    -4.621798  1.387241  5.228597
C    -4.358329  0.852405  6.633071
N    -3.046273  1.319332  7.205741
H    -2.640616  2.694331  3.242214
H    -2.244797  2.532180  4.930596
H    -3.227085  -0.044242  4.405792
H    -4.107711  0.882550  3.202977
H    -5.614483  1.005207  4.951740
H    -4.726911  2.484205  5.251668
H    -4.310148  -0.244360  6.627471
H    -5.156356  1.154221  7.322921
H    -3.022287  2.341038  7.289238
H    -2.178874  0.983571  6.582277
H    -2.904648  0.938063  8.147315
N    0.764836  0.014165  4.612746
C    1.517211  -0.742923  5.603400
H    1.159185  0.197300  3.672320
H    2.456159  -1.068866  5.148070
H    0.951463  -1.623236  5.933589
H    1.738940  -0.124577  6.482833
