34
Energy: -18219.3017576 eV PBE+vdW (tier 2 basis)
C    0.503037  2.604960  2.959596
C    0.294750  1.128148  2.695295
O    1.202323  0.311256  2.705704
H    1.552257  2.758067  3.223440
H    0.275448  3.202461  2.064357
H    -0.135114  2.974915  3.773756
N    -1.008240  0.710212  2.442362
C    -2.189823  1.536746  2.270314
C    -2.788273  2.091143  3.587176
O    -3.463304  3.127358  3.562614
H    -1.065142  -0.273149  2.187219
H    -1.922888  2.445678  1.705091
C    -3.225491  0.719478  1.461196
C    -4.654586  1.270736  1.330131
C    -4.813501  2.721611  0.842821
C    -4.151201  3.005685  -0.492370
N    -4.307235  4.488869  -0.817789
H    -3.312105  -0.272499  1.931716
H    -2.787708  0.536304  0.466605
H    -5.157936  1.220479  2.304784
H    -5.211770  0.592050  0.666716
H    -4.390004  3.380601  1.620740
H    -5.891021  2.941771  0.767060
H    -3.070393  2.817320  -0.484543
H    -4.596787  2.457003  -1.332210
H    -5.302699  4.743853  -0.877358
H    -3.894617  5.059581  -0.066017
H    -3.857920  4.749964  -1.705274
N    -2.533335  1.364852  4.693485
C    -3.002628  1.728407  6.020644
H    -1.896585  0.580228  4.587336
H    -2.159042  1.966802  6.681956
H    -3.579934  0.907409  6.464493
H    -3.643254  2.610525  5.925064
