34
Energy: -18219.8974469 eV PBE+vdW (tier 2 basis)
C    -0.064657  0.312174  0.343807
C    -0.246787  0.051316  1.812653
O    0.735698  -0.040255  2.590857
H    0.972501  0.609974  0.167595
H    -0.264309  -0.595376  -0.244715
H    -0.743521  1.096030  -0.014352
N    -1.491454  -0.104509  2.313887
C    -2.705648  -0.616093  1.695353
C    -3.851327  0.011014  2.524874
O    -3.680429  0.146941  3.739654
H    -1.620935  0.026814  3.321749
H    -2.749999  -0.327522  0.635921
C    -2.814498  -2.154551  1.864712
C    -1.801078  -3.074400  1.161778
C    -0.316032  -3.132902  1.581817
C    0.045454  -3.407150  3.042992
N    -0.002783  -2.190256  3.946666
H    -3.812861  -2.444987  1.503042
H    -2.844546  -2.360481  2.948652
H    -1.820298  -2.868844  0.080067
H    -2.205578  -4.093383  1.262700
H    0.253634  -2.261837  1.237398
H    0.120851  -3.974810  1.023878
H    1.080151  -3.764987  3.094679
H    -0.597391  -4.175413  3.492703
H    0.543427  -2.354522  4.799024
H    -0.963449  -1.986699  4.241438
H    0.383765  -1.275068  3.461797
N    -4.984330  0.317050  1.863125
C    -6.173793  0.847409  2.519077
H    -5.002418  0.198410  0.856271
H    -5.971297  0.902989  3.592395
H    -6.405763  1.852198  2.144542
H    -7.034780  0.190121  2.345226
