34
Energy: -18219.7617336 eV PBE+vdW (tier 2 basis)
C    -0.330877  0.116065  0.782479
C    -0.994928  -0.538743  1.956281
O    -0.451166  -1.504114  2.553800
H    0.710578  -0.211019  0.733401
H    -0.840908  -0.198057  -0.140341
H    -0.393363  1.211214  0.804330
N    -2.222178  -0.126859  2.365904
C    -2.824715  1.219336  2.275906
C    -2.996570  1.688615  0.803846
O    -2.344418  2.629841  0.362709
H    -2.619800  -0.741527  3.071000
H    -3.831958  1.101462  2.703986
C    -2.055385  2.269490  3.093564
C    -2.073430  2.112557  4.624734
C    -1.438912  0.853422  5.250391
C    0.048693  0.668069  4.935043
N    0.415818  -0.795692  4.907131
H    -2.494894  3.246795  2.853285
H    -1.027843  2.339099  2.707635
H    -3.112723  2.163632  4.983263
H    -1.579116  2.999785  5.048992
H    -1.989008  -0.042142  4.927568
H    -1.571455  0.901335  6.340922
H    0.687327  1.171340  5.669882
H    0.312109  1.053838  3.942812
H    1.432386  -0.931384  4.873023
H    -0.005494  -1.235096  3.998011
H    0.063950  -1.290454  5.734153
N    -3.890087  0.999075  0.046202
C    -4.784857  -0.078261  0.447378
H    -3.969135  1.355116  -0.902270
H    -4.239548  -0.999765  0.692634
H    -5.413487  0.206172  1.303537
H    -5.454590  -0.296777  -0.389604
