34
Energy: -18219.3358272 eV PBE+vdW (tier 2 basis)
C    0.319311  -0.361865  0.272029
C    0.132260  -0.182433  1.763031
O    1.069250  -0.204479  2.560820
H    1.216615  0.178919  -0.047121
H    0.489951  -1.427973  0.067866
H    -0.543589  -0.031200  -0.318549
N    -1.163778  0.011917  2.173892
C    -1.544184  -0.085700  3.570297
C    -2.905431  -0.804202  3.611134
O    -3.692744  -0.680194  2.671489
H    -1.941370  -0.116883  1.526678
H    -0.758257  -0.653151  4.090203
C    -1.693610  1.301543  4.240838
C    -0.365706  2.058405  4.334347
C    -0.494326  3.499755  4.858114
C    -1.137373  4.417357  3.830389
N    -1.215506  5.847684  4.359680
H    -2.120510  1.174526  5.248976
H    -2.440936  1.857114  3.651149
H    0.135532  2.066740  3.355807
H    0.319265  1.514294  4.998194
H    0.510784  3.880682  5.103077
H    -1.083532  3.512092  5.791224
H    -0.555573  4.468577  2.901594
H    -2.166795  4.131868  3.583742
H    -0.276835  6.201469  4.591097
H    -1.776624  5.887661  5.221588
H    -1.637453  6.492059  3.677593
N    -3.205758  -1.519260  4.725661
C    -2.321509  -1.858467  5.833224
H    -4.120917  -1.959086  4.692365
H    -1.435507  -2.416978  5.500481
H    -2.875628  -2.493647  6.531029
H    -1.992037  -0.968450  6.387903
