34
Energy: -18219.3695048 eV PBE+vdW (tier 2 basis)
C    0.373840  1.076691  0.392569
C    -0.209555  0.047131  1.333972
O    -0.036505  -1.162751  1.153335
H    1.398388  1.294992  0.726731
H    -0.186614  2.019498  0.372679
H    0.428591  0.660284  -0.617724
N    -0.952928  0.571910  2.362836
C    -1.246717  -0.049000  3.653231
C    -0.003495  0.081616  4.579370
O    1.127979  0.083306  4.109124
H    -0.940037  1.585910  2.401315
H    -2.086223  0.524710  4.075965
C    -1.658236  -1.530318  3.574392
C    -2.909141  -1.801687  2.724169
C    -2.942421  -3.246841  2.188786
C    -2.046185  -3.363001  0.962468
N    -1.699697  -4.815930  0.653473
H    -1.833739  -1.885255  4.600739
H    -0.795670  -2.088701  3.191593
H    -2.951996  -1.099534  1.878004
H    -3.816022  -1.618946  3.316033
H    -3.971156  -3.547514  1.939501
H    -2.594628  -3.929500  2.983822
H    -1.093885  -2.824708  1.089039
H    -2.533009  -2.972117  0.060619
H    -1.107417  -4.885883  -0.184449
H    -2.541028  -5.387487  0.497856
H    -1.181047  -5.235899  1.436245
N    -0.240060  0.157813  5.920365
C    -1.515262  0.300360  6.608933
H    0.609059  0.230425  6.473171
H    -2.183004  -0.555139  6.433021
H    -2.041796  1.224969  6.329654
H    -1.320929  0.343829  7.685045
