34
Energy: -18219.5190882 eV PBE+vdW (tier 2 basis)
C    -1.773303  -2.751534  1.328934
C    -1.528387  -1.432231  2.031886
O    -0.455138  -0.839460  1.979970
H    -1.083310  -3.499517  1.739662
H    -1.529905  -2.639708  0.265283
H    -2.799905  -3.124951  1.430511
N    -2.598466  -0.922094  2.729732
C    -2.441269  0.233343  3.599426
C    -3.606603  0.211067  4.598740
O    -4.713610  -0.244329  4.276020
H    -3.424681  -1.489386  2.897203
H    -1.478169  0.132127  4.125574
C    -2.380263  1.582103  2.828880
C    -3.714376  2.180454  2.366568
C    -4.536470  1.275492  1.435603
C    -5.869951  1.916007  1.099291
N    -6.761694  0.910058  0.374774
H    -1.698504  1.429056  1.981395
H    -1.891703  2.321154  3.480074
H    -3.504417  3.135775  1.860779
H    -4.330995  2.426539  3.246151
H    -3.969580  1.056925  0.516246
H    -4.722520  0.323259  1.954975
H    -5.786571  2.787504  0.437696
H    -6.423134  2.206325  2.001626
H    -6.912141  0.083268  0.969983
H    -7.681224  1.301947  0.132526
H    -6.314971  0.585172  -0.493415
N    -3.342827  0.765299  5.802456
C    -4.324493  0.877355  6.870525
H    -2.387191  1.044790  5.995178
H    -5.289722  0.542780  6.479265
H    -4.408177  1.916859  7.211875
H    -4.049109  0.243411  7.723489
