34
Energy: -18220.0950999 eV PBE+vdW (tier 2 basis)
C    0.351031  -1.003638  0.817756
C    0.068024  -0.391979  2.164708
O    0.994808  -0.288886  2.996158
H    1.039808  -1.846654  0.933253
H    0.853774  -0.241740  0.204891
H    -0.549483  -1.333013  0.286994
N    -1.214317  -0.011290  2.377271
C    -1.759834  0.935648  3.353536
C    -1.512740  2.380495  2.830779
O    -0.479722  2.643133  2.224525
H    -1.817243  -0.149245  1.572684
H    -2.836747  0.716834  3.396904
C    -1.182545  0.826930  4.773727
C    -1.262184  -0.572502  5.402545
C    -0.335557  -0.756548  6.617817
C    1.083273  -1.219116  6.298897
N    1.841449  -0.251947  5.424770
H    -1.737563  1.537263  5.404616
H    -0.156434  1.212141  4.740523
H    -1.035023  -1.343428  4.651038
H    -2.298796  -0.760926  5.714530
H    -0.749460  -1.526678  7.284271
H    -0.303422  0.164978  7.222650
H    1.071166  -2.169476  5.749591
H    1.663737  -1.362913  7.218591
H    2.808838  -0.564191  5.286344
H    1.879770  0.682234  5.846266
H    1.389930  -0.180197  4.428841
N    -2.459760  3.311889  3.120302
C    -3.755405  3.121190  3.759401
H    -2.228042  4.241517  2.781681
H    -4.254466  4.093178  3.816913
H    -3.662763  2.740474  4.786572
H    -4.408368  2.448280  3.185227
