34
Energy: -18219.052692 eV PBE+vdW (tier 2 basis)
C    0.025161  -0.601187  0.473154
C    -0.404452  -0.871349  1.899456
O    0.399651  -0.974200  2.815636
H    -0.649238  -1.013419  -0.286086
H    0.102881  0.483838  0.316649
H    1.026206  -1.022984  0.341437
N    -1.760924  -1.026276  2.172837
C    -2.935002  -0.779322  1.337768
C    -3.201538  -1.858103  0.250576
O    -4.008903  -1.636462  -0.652908
H    -1.917505  -1.177493  3.165378
H    -3.786747  -0.897823  2.028605
C    -2.982669  0.654249  0.748908
C    -4.364994  1.180364  0.330517
C    -5.416535  1.322418  1.445136
C    -5.011534  2.335993  2.502907
N    -6.139453  2.541429  3.512543
H    -2.344735  0.699150  -0.142680
H    -2.510485  1.321785  1.487327
H    -4.775585  0.504806  -0.429061
H    -4.231378  2.161221  -0.152563
H    -5.610860  0.344998  1.917811
H    -6.364520  1.639828  0.980226
H    -4.138375  2.023427  3.088109
H    -4.807426  3.325105  2.073309
H    -6.991735  2.874519  3.040803
H    -6.378372  1.656004  3.979694
H    -5.891982  3.226140  4.239629
N    -2.538996  -3.025013  0.416836
C    -2.693567  -4.158723  -0.479332
H    -1.889017  -3.084690  1.193784
H    -3.412847  -3.880133  -1.255739
H    -3.069868  -5.036269  0.062437
H    -1.736160  -4.416203  -0.950802
