34
Energy: -18218.4367912 eV PBE+vdW (tier 2 basis)
C    -0.013096  -0.563329  0.794908
C    -0.400294  -1.032804  2.182251
O    0.048468  -2.060978  2.666675
H    0.764229  -1.233374  0.419267
H    -0.873234  -0.603963  0.112901
H    0.378407  0.463762  0.795912
N    -1.287222  -0.264463  2.918973
C    -2.019149  0.952973  2.590242
C    -2.904764  0.780578  1.315952
O    -3.794569  -0.055789  1.388057
H    -1.585243  -0.751639  3.759444
H    -2.805146  1.007128  3.358173
C    -1.162440  2.224532  2.813412
C    -1.987102  3.507897  2.994116
C    -1.240677  4.696703  3.620232
C    0.009981  5.169437  2.888662
N    1.194294  4.244267  3.159775
H    -0.429873  2.320242  1.991248
H    -0.600495  2.012064  3.740464
H    -2.842058  3.281874  3.648434
H    -2.428365  3.821320  2.037317
H    -0.986795  4.483997  4.673265
H    -1.918214  5.561793  3.659796
H    0.329368  6.166334  3.213748
H    -0.121148  5.182207  1.798884
H    2.028475  4.514885  2.622906
H    0.941444  3.272005  2.914357
H    1.443548  4.252727  4.157843
N    -2.776245  1.547990  0.183023
C    -1.722053  2.409343  -0.327592
H    -3.500139  1.293708  -0.484922
H    -1.720155  3.408360  0.136290
H    -0.725496  1.961178  -0.229757
H    -1.900296  2.558275  -1.397512
