34
Energy: -18220.3835784 eV PBE+vdW (tier 2 basis)
C    0.780823  0.324388  0.178826
C    0.612222  0.426807  1.672450
O    1.477685  0.917569  2.407502
H    1.718199  -0.200869  -0.039566
H    0.875259  1.338541  -0.230524
H    -0.047742  -0.186095  -0.325402
N    -0.563321  -0.049032  2.190019
C    -0.912886  0.132484  3.601014
C    -0.221548  -0.967320  4.439056
O    -0.835652  -1.946852  4.940388
H    -1.238527  -0.486903  1.573125
H    -0.463308  1.092946  3.899514
C    -2.433499  0.214517  3.766087
C    -2.935591  0.959108  5.016439
C    -2.920934  0.244671  6.378565
C    -3.806459  -1.005556  6.453776
N    -3.023681  -2.270671  6.197044
H    -2.877785  -0.791283  3.682509
H    -2.806084  0.773865  2.896070
H    -3.974208  1.266616  4.820149
H    -2.370201  1.897828  5.115660
H    -3.295213  0.956760  7.126437
H    -1.897843  -0.000996  6.702692
H    -4.607145  -0.965991  5.704654
H    -4.280700  -1.108271  7.436032
H    -3.614300  -3.017168  5.818664
H    -2.616046  -2.625126  7.068361
H    -2.155795  -2.089608  5.522119
N    1.094686  -0.816664  4.555299
C    1.970795  -1.778192  5.207407
H    1.500995  -0.058200  3.980750
H    2.845552  -1.251089  5.601191
H    2.308589  -2.549472  4.500956
H    1.437233  -2.267516  6.027893
