34
Energy: -18220.1631394 eV PBE+vdW (tier 2 basis)
C    1.490356  -0.576111  1.371427
C    0.923269  -0.599364  2.762516
O    1.673456  -0.844272  3.742632
H    2.335435  0.122271  1.333697
H    1.886694  -1.573877  1.140469
H    0.753497  -0.299783  0.610187
N    -0.392324  -0.346128  2.887329
C    -1.176868  -0.622884  4.080513
C    -2.340837  -1.527340  3.591104
O    -2.711522  -1.444135  2.420993
H    -0.971524  -0.351519  2.041803
H    -0.524152  -1.172973  4.773013
C    -1.793530  0.625238  4.774109
C    -0.987340  1.936369  4.826654
C    0.497582  1.877092  5.225641
C    0.834167  0.988919  6.432596
N    2.039924  0.144369  6.109932
H    -2.080567  0.313286  5.790410
H    -2.741794  0.861886  4.270242
H    -1.527060  2.608398  5.509811
H    -1.029931  2.423217  3.842882
H    0.851893  2.899712  5.411513
H    1.073662  1.518974  4.362591
H    0.027305  0.283319  6.661477
H    1.041438  1.561055  7.343817
H    2.236734  -0.553560  6.834668
H    1.858056  -0.349339  5.143411
H    2.880393  0.723439  6.004993
N    -2.908844  -2.322177  4.524489
C    -4.062870  -3.170023  4.250611
H    -2.505648  -2.345078  5.453886
H    -3.808619  -4.228785  4.386571
H    -4.361587  -3.004829  3.211456
H    -4.898862  -2.911358  4.912517
