34
Energy: -18219.5539878 eV PBE+vdW (tier 2 basis)
C    0.268942  1.134474  -0.019713
C    0.162494  0.666787  1.415919
O    1.137401  0.227569  2.040719
H    1.228547  1.639538  -0.174501
H    0.261512  0.250158  -0.672298
H    -0.554494  1.789864  -0.327264
N    -1.074314  0.775018  1.974620
C    -1.498383  0.071215  3.175929
C    -2.999916  -0.235217  2.942049
O    -3.651827  0.440669  2.144753
H    -1.878476  1.055680  1.404516
H    -0.927697  -0.868913  3.249341
C    -1.316513  0.866337  4.493802
C    0.108062  0.819966  5.097542
C    0.858686  2.160910  5.164456
C    1.241313  2.686358  3.791604
N    2.118170  3.928904  3.924148
H    -2.019394  0.455705  5.231057
H    -1.654930  1.899028  4.316820
H    0.723896  0.103687  4.536147
H    0.048975  0.444775  6.127182
H    1.775043  2.008261  5.759508
H    0.248243  2.907496  5.700999
H    1.810172  1.949639  3.208890
H    0.372291  2.991154  3.195194
H    1.635791  4.674923  4.443661
H    2.386611  4.304483  3.005370
H    2.982415  3.708031  4.437015
N    -3.511277  -1.246634  3.680311
C    -4.910352  -1.646310  3.621020
H    -2.879263  -1.792063  4.255504
H    -5.010092  -2.662925  3.219079
H    -5.430998  -0.949084  2.958177
H    -5.367327  -1.607752  4.618004
