34
Energy: -18219.7483615 eV PBE+vdW (tier 2 basis)
C    -0.980919  0.457003  0.694609
C    -0.883345  0.730412  2.175517
O    -0.269188  1.684729  2.620905
H    -2.019043  0.550314  0.347114
H    -0.621051  -0.543117  0.424571
H    -0.373591  1.205621  0.179727
N    -1.496397  -0.136551  3.102305
C    -2.602793  -1.083275  2.953497
C    -2.846283  -1.787987  4.289128
O    -3.972231  -2.289282  4.541491
H    -1.511677  0.361710  3.993129
H    -3.544844  -0.549006  2.729858
C    -2.385963  -2.204602  1.887142
C    -3.280445  -2.150556  0.638651
C    -4.673320  -2.802685  0.709855
C    -5.780600  -2.077894  1.487965
N    -5.928799  -2.557439  2.907486
H    -2.510787  -3.185859  2.369277
H    -1.331360  -2.170295  1.589798
H    -2.742481  -2.664908  -0.170362
H    -3.393218  -1.111883  0.294310
H    -5.037101  -2.890303  -0.323345
H    -4.589185  -3.842814  1.068384
H    -6.750961  -2.231947  1.001011
H    -5.606088  -0.995299  1.535039
H    -5.030385  -2.380772  3.556773
H    -6.122647  -3.564850  2.924833
H    -6.723524  -2.096244  3.363962
N    -1.817301  -1.897742  5.127080
C    -1.864803  -2.602239  6.402883
H    -0.931671  -1.509689  4.807294
H    -1.423985  -3.603645  6.310360
H    -2.907511  -2.698937  6.716795
H    -1.306537  -2.033126  7.153698
