34
Energy: -18219.6874564 eV PBE+vdW (tier 2 basis)
C    0.614488  0.061353  0.831757
C    0.220399  -0.231156  2.261404
O    1.065445  -0.407863  3.153899
H    1.056600  -0.847687  0.401891
H    -0.225928  0.372366  0.201113
H    1.391117  0.834911  0.815461
N    -1.115062  -0.274070  2.507450
C    -1.706253  -0.811251  3.722652
C    -3.047555  -1.442439  3.271190
O    -3.589989  -1.056679  2.235754
H    -1.792037  -0.221825  1.741374
H    -1.029129  -1.585341  4.119843
C    -1.971458  0.230276  4.836880
C    -0.701350  0.851176  5.449055
C    -0.182875  2.105212  4.711085
C    1.332656  2.212115  4.673864
N    1.919246  2.142246  6.082709
H    -2.533327  -0.277556  5.633301
H    -2.636976  1.015352  4.446859
H    0.077648  0.069391  5.446033
H    -0.913094  1.106948  6.499043
H    -0.629720  3.017072  5.137341
H    -0.498141  2.083050  3.659353
H    1.757788  1.357948  4.127229
H    1.687036  3.155444  4.241937
H    2.946356  2.164883  6.066485
H    1.590011  2.918050  6.672153
H    1.628452  1.262077  6.531422
N    -3.560593  -2.384237  4.096433
C    -4.833450  -3.047802  3.849613
H    -3.003534  -2.690317  4.885857
H    -5.500018  -2.939260  4.714386
H    -4.685638  -4.115395  3.640851
H    -5.294099  -2.575778  2.976920
