34
Energy: -18219.1618794 eV PBE+vdW (tier 2 basis)
C    0.225126  -0.870807  1.215553
C    -0.712905  0.067516  1.946432
O    -0.382610  1.210928  2.236548
H    1.020744  -1.158100  1.917038
H    0.703193  -0.319437  0.398305
H    -0.229406  -1.789302  0.831598
N    -1.949193  -0.415112  2.362346
C    -2.740014  -1.502747  1.782952
C    -2.183588  -2.926775  2.060943
O    -2.434037  -3.853444  1.293785
H    -2.467336  0.304727  2.860518
H    -3.698482  -1.476939  2.328103
C    -3.051340  -1.335541  0.284971
C    -3.779085  -0.027904  -0.031131
C    -4.020521  0.137333  -1.538956
C    -4.696486  1.461741  -1.848785
N    -4.912251  1.621423  -3.352902
H    -3.645196  -2.205146  -0.026448
H    -2.115493  -1.387236  -0.291589
H    -3.190026  0.828493  0.334215
H    -4.744724  0.003412  0.500161
H    -4.639946  -0.696867  -1.908906
H    -3.053976  0.081299  -2.067768
H    -4.092787  2.323347  -1.536813
H    -5.689976  1.545439  -1.390566
H    -5.372159  2.511820  -3.586094
H    -5.495905  0.857647  -3.721449
H    -4.014337  1.588556  -3.855427
N    -1.481314  -3.043585  3.212949
C    -0.922407  -4.302426  3.674080
H    -1.309092  -2.194299  3.740702
H    -1.285877  -4.543610  4.681287
H    0.175425  -4.265610  3.691780
H    -1.241445  -5.086349  2.980044
