34
Energy: -18219.947324 eV PBE+vdW (tier 2 basis)
C    -2.706832  0.628955  0.215137
C    -1.873517  0.372410  1.448022
O    -0.966074  1.124274  1.808196
H    -3.093659  1.654044  0.256024
H    -3.542690  -0.068720  0.089620
H    -2.058856  0.565595  -0.668925
N    -2.181201  -0.757015  2.157908
C    -1.486489  -1.171328  3.370732
C    -0.991084  0.014572  4.229505
O    0.195087  0.093499  4.627587
H    -2.950581  -1.335023  1.839558
H    -2.256656  -1.640820  4.006527
C    -0.400568  -2.255578  3.164642
C    0.438115  -2.340114  1.869032
C    1.174630  -1.154859  1.193755
C    1.916858  -0.088477  2.011802
N    2.347335  -0.552684  3.380093
H    -0.911209  -3.227010  3.227799
H    0.241765  -2.228713  4.054819
H    -0.201086  -2.758196  1.078794
H    1.172522  -3.137505  2.065761
H    0.469453  -0.591259  0.572308
H    1.883704  -1.615468  0.491820
H    1.259802  0.768115  2.197085
H    2.805750  0.256967  1.472487
H    3.066729  0.064550  3.769397
H    2.719309  -1.506809  3.378208
H    1.452414  -0.458681  4.006607
N    -1.895449  0.880266  4.712956
C    -3.318735  0.983334  4.430582
H    -1.479213  1.616335  5.277613
H    -3.795272  1.520008  5.257145
H    -3.782178  -0.007378  4.365559
H    -3.512550  1.532098  3.498207
