34
Energy: -18219.5005935 eV PBE+vdW (tier 2 basis)
C    0.471860  -0.750077  0.078574
C    0.114341  -0.871640  1.540590
O    0.790850  -1.634005  2.268287
H    0.452129  -1.749071  -0.373995
H    -0.188119  -0.086420  -0.491058
H    1.502965  -0.381602  0.000354
N    -0.930957  -0.099002  1.942886
C    -1.583087  0.062993  3.257800
C    -1.492577  1.473453  3.892245
O    -2.483125  1.879664  4.491787
H    -1.353819  0.449727  1.201333
H    -2.663340  -0.064436  3.099955
C    -1.068430  -1.013778  4.205689
C    -1.557882  -1.147664  5.637193
C    -0.911941  -2.421161  6.223991
C    0.591463  -2.601580  5.966273
N    0.944535  -3.124325  4.574618
H    0.012441  -0.854590  4.258432
H    -1.245630  -1.970260  3.689665
H    -2.650961  -1.227905  5.702509
H    -1.274310  -0.267345  6.231468
H    -1.443578  -3.316280  5.857801
H    -1.038685  -2.436637  7.315432
H    1.149871  -1.664781  6.091510
H    1.007049  -3.336044  6.666461
H    0.403490  -3.972180  4.366577
H    0.782472  -2.444288  3.759902
H    1.936333  -3.388187  4.537754
N    -0.339255  2.198699  3.833402
C    0.955280  1.896994  3.238368
H    -0.440019  3.103578  4.285808
H    1.278138  0.870371  3.450753
H    1.697633  2.568856  3.682038
H    0.968875  2.051176  2.149623
