34
Energy: -18219.7245048 eV PBE+vdW (tier 2 basis)
C    -0.710060  0.539045  -0.067159
C    -0.585153  0.043273  1.356554
O    0.323880  -0.699512  1.720968
H    0.265134  0.915841  -0.396450
H    -1.466296  1.320877  -0.203820
H    -0.962460  -0.310973  -0.714927
N    -1.551168  0.494026  2.228784
C    -1.675176  0.081470  3.625122
C    -0.369903  0.233908  4.450094
O    -0.138623  -0.513981  5.407156
H    -2.293175  1.070807  1.849024
H    -2.345059  0.829890  4.079637
C    -2.385852  -1.273702  3.849582
C    -1.909002  -2.526937  3.093685
C    -0.523324  -3.114384  3.414893
C    -0.245248  -3.439590  4.869314
N    -1.278715  -4.420925  5.428238
H    -3.440187  -1.122862  3.575334
H    -2.379387  -1.434354  4.938947
H    -1.926668  -2.330069  2.012815
H    -2.690057  -3.298688  3.229709
H    0.246842  -2.393117  3.106645
H    -0.363759  -4.007896  2.789149
H    -0.295965  -2.536603  5.493737
H    0.729099  -3.923533  5.003931
H    -2.223206  -4.022054  5.348767
H    -1.105245  -4.629664  6.419006
H    -1.274609  -5.307826  4.907499
N    0.392244  1.301118  4.141257
C    1.640547  1.602440  4.822765
H    0.170417  1.806883  3.291465
H    2.496697  1.129035  4.320476
H    1.581775  1.224683  5.847964
H    1.793551  2.686881  4.844707
