34
Energy: -18219.5608536 eV PBE+vdW (tier 2 basis)
C    -0.728654  -0.536290  -0.160159
C    -0.432805  -0.156287  1.269910
O    0.682645  0.227464  1.638418
H    -0.531178  0.332428  -0.800770
H    -0.036423  -1.329554  -0.467568
H    -1.759177  -0.872529  -0.324007
N    -1.477367  -0.249181  2.149943
C    -1.339017  0.137111  3.552633
C    -0.732249  -1.035532  4.382617
O    -1.408868  -1.678857  5.194782
H    -2.345074  -0.677334  1.846261
H    -0.614709  0.967902  3.556576
C    -2.690208  0.591127  4.112092
C    -2.620565  1.538491  5.321768
C    -1.843679  1.006280  6.539732
C    -2.196122  1.693057  7.846012
N    -3.586649  1.247330  8.296691
H    -3.270676  -0.304485  4.380622
H    -3.232200  1.115921  3.313124
H    -3.669458  1.765645  5.595817
H    -2.190730  2.505576  5.017445
H    -0.763141  1.143382  6.390501
H    -1.974120  -0.085235  6.634403
H    -1.516444  1.423810  8.662947
H    -2.240625  2.787264  7.765958
H    -4.276631  1.448171  7.558508
H    -3.599585  0.230630  8.457718
H    -3.892071  1.715758  9.159013
N    0.573270  -1.251523  4.118894
C    1.322964  -2.364981  4.675485
H    0.975822  -0.702207  3.350612
H    0.737524  -2.809501  5.486156
H    2.286284  -2.016255  5.067911
H    1.512909  -3.134848  3.914422
