34
Energy: -18220.1305523 eV PBE+vdW (tier 2 basis)
C    0.566797  -0.382451  0.979060
C    -0.439014  0.616854  1.492029
O    -1.287302  1.141750  0.775895
H    1.228509  -0.782945  1.756307
H    1.177666  0.099370  0.205095
H    0.032400  -1.210049  0.497038
N    -0.341024  0.935498  2.838204
C    -1.353735  1.778819  3.428706
C    -0.980274  3.179314  3.909878
O    -1.934449  3.997517  4.022518
H    0.242521  0.352264  3.426877
H    -1.984597  2.002818  2.551147
C    -2.216865  1.066199  4.495663
C    -3.323538  0.192482  3.894914
C    -4.320516  0.906972  2.963715
C    -5.006622  2.161663  3.520454
N    -4.311610  3.444913  3.126169
H    -2.652839  1.822614  5.164352
H    -1.568503  0.451346  5.138187
H    -3.877280  -0.273103  4.723872
H    -2.878373  -0.638770  3.328468
H    -5.113592  0.188964  2.714933
H    -3.845896  1.142623  1.996669
H    -5.056204  2.155038  4.616889
H    -6.033357  2.237435  3.143455
H    -4.237293  3.504274  2.103911
H    -3.280819  3.591435  3.537134
H    -4.860134  4.257204  3.430135
N    0.258146  3.577112  4.214217
C    1.508629  2.821640  4.261023
H    0.300967  4.556467  4.488302
H    1.844060  2.528563  3.260206
H    1.416425  1.932558  4.896477
H    2.269019  3.468421  4.708328
