34
Energy: -18219.8096624 eV PBE+vdW (tier 2 basis)
C    -1.681163  -0.614874  -0.492151
C    -1.897478  -0.178684  0.938231
O    -2.105399  0.970567  1.273275
H    -2.245993  0.043059  -1.159473
H    -0.615305  -0.498560  -0.738036
H    -1.953544  -1.661944  -0.677967
N    -1.855981  -1.231359  1.888281
C    -1.627713  -0.891141  3.308979
C    -1.177829  -2.195001  3.982998
O    -1.448760  -3.287335  3.454648
H    -1.264707  -2.016579  1.602844
H    -0.823678  -0.140105  3.349844
C    -2.861740  -0.258760  4.010250
C    -3.904645  -1.152388  4.703319
C    -4.984537  -1.869175  3.869661
C    -4.618521  -3.221019  3.261545
N    -3.964170  -3.093954  1.905899
H    -3.341771  0.409220  3.283196
H    -2.459922  0.413871  4.779916
H    -4.447784  -0.484840  5.386996
H    -3.412000  -1.888736  5.359050
H    -5.389846  -1.196576  3.094621
H    -5.833251  -2.070102  4.538854
H    -5.506801  -3.847530  3.118212
H    -3.903834  -3.764456  3.889107
H    -4.655955  -2.864338  1.183995
H    -3.500429  -3.971958  1.647095
H    -3.203679  -2.334308  1.898675
N    -0.518136  -2.117428  5.155818
C    -0.128686  -0.933417  5.912559
H    -0.296310  -3.026019  5.555921
H    0.134917  -0.107522  5.242737
H    -0.924611  -0.600442  6.593572
H    0.758298  -1.173595  6.507592
