34
Energy: -18220.2791166 eV PBE+vdW (tier 2 basis)
C    -0.938883  -2.537314  0.195700
C    -1.211317  -2.122205  1.621831
O    -0.984419  -2.836833  2.590106
H    -1.277455  -3.569439  0.052645
H    0.146902  -2.528250  0.028964
H    -1.411420  -1.888096  -0.551436
N    -1.765304  -0.861583  1.794102
C    -1.780694  -0.270476  3.127435
C    -2.458442  -1.213982  4.131627
O    -3.601141  -1.703421  3.952345
H    -1.665547  -0.205409  1.024579
H    -0.738152  -0.139738  3.468109
C    -2.421791  1.138706  3.128689
C    -3.952329  1.314258  3.108053
C    -4.726174  1.167030  1.783953
C    -4.865166  -0.215261  1.148355
N    -5.337831  -1.243898  2.134504
H    -1.968211  1.709537  2.300916
H    -2.059817  1.628190  4.043717
H    -4.136774  2.346377  3.438787
H    -4.407386  0.691207  3.892563
H    -4.280617  1.820646  1.018086
H    -5.737894  1.570366  1.950811
H    -3.908602  -0.595423  0.776199
H    -5.575905  -0.177049  0.313646
H    -6.197357  -0.945798  2.608036
H    -4.539422  -1.427676  2.905958
H    -5.538485  -2.135751  1.671726
N    -1.809892  -1.399592  5.284047
C    -2.304851  -2.272301  6.340950
H    -0.837017  -1.116147  5.320700
H    -2.140749  -3.327935  6.084004
H    -3.377345  -2.106877  6.481759
H    -1.776853  -2.037535  7.269810
