34
Energy: -18219.4769004 eV PBE+vdW (tier 2 basis)
C    -0.494833  -0.053807  0.008010
C    -0.390879  0.144885  1.502873
O    0.684124  0.096743  2.104238
H    0.337289  0.457334  -0.488186
H    -1.448361  0.286423  -0.412835
H    -0.388682  -1.126572  -0.205190
N    -1.576943  0.408281  2.147325
C    -1.736781  0.229264  3.583578
C    -3.004059  -0.639081  3.756624
O    -3.878363  -0.619848  2.888447
H    -2.454895  0.220900  1.652991
H    -0.840238  -0.285092  3.959481
C    -1.940294  1.558957  4.359540
C    -0.666245  2.280415  4.829825
C    0.359071  2.700705  3.763246
C    -0.186970  3.507191  2.601690
N    -0.835740  4.806826  3.085947
H    -2.544186  1.359068  5.256571
H    -2.578131  2.202692  3.729826
H    -0.134680  1.632303  5.541647
H    -0.973505  3.150986  5.438818
H    0.807257  1.802354  3.306467
H    1.185824  3.249579  4.242637
H    -0.969576  2.967779  2.053438
H    0.599666  3.805411  1.899153
H    -1.608224  4.599778  3.733374
H    -1.212024  5.364932  2.309200
H    -0.155594  5.386410  3.595829
N    -3.117564  -1.363066  4.896640
C    -2.113842  -1.556729  5.935007
H    -3.983536  -1.890149  4.962904
H    -2.501080  -2.285211  6.653483
H    -1.899843  -0.629986  6.487076
H    -1.173747  -1.955250  5.529377
