34
Energy: -18219.0738886 eV PBE+vdW (tier 2 basis)
C    -0.097091  -1.117093  0.531091
C    -0.315426  -0.445421  1.863362
O    0.618984  -0.140760  2.612407
H    0.962537  -1.043985  0.272894
H    -0.362799  -2.181042  0.614024
H    -0.717548  -0.709366  -0.276601
N    -1.605796  -0.198158  2.278014
C    -2.830777  -0.003587  1.494607
C    -3.190715  -1.227865  0.608624
O    -3.221361  -1.135001  -0.615660
H    -1.628359  0.141667  3.235519
H    -3.625471  0.082119  2.251557
C    -2.844532  1.285550  0.641308
C    -2.130123  2.492013  1.283665
C    -0.660051  2.668171  0.823344
C    0.357022  2.898448  1.927396
N    0.032392  4.165793  2.716942
H    -3.895012  1.533012  0.441026
H    -2.411869  1.065205  -0.344022
H    -2.177296  2.392567  2.384423
H    -2.694668  3.402671  1.041666
H    -0.589392  3.470524  0.071867
H    -0.314164  1.766411  0.301235
H    1.371304  3.040110  1.535740
H    0.380322  2.067425  2.648506
H    0.685996  4.302372  3.498478
H    -0.919692  4.109244  3.104301
H    0.073456  5.000783  2.117312
N    -3.470268  -2.390951  1.255114
C    -3.498284  -2.660626  2.685014
H    -3.690336  -3.155514  0.623208
H    -2.490680  -2.762667  3.111742
H    -4.034203  -1.874012  3.233272
H    -4.040780  -3.597002  2.849258
