34
Energy: -18219.2446576 eV PBE+vdW (tier 2 basis)
C    -0.307386  2.640872  0.982021
C    0.201059  1.297878  1.465232
O    1.348526  1.116070  1.846763
H    0.482193  3.378076  1.146872
H    -1.216137  2.956975  1.512530
H    -0.539713  2.613431  -0.092530
N    -0.705832  0.246656  1.481154
C    -2.074826  0.230402  0.996844
C    -3.147650  0.480654  2.091918
O    -4.348443  0.463453  1.803067
H    -0.283511  -0.634438  1.766548
H    -2.194732  1.058478  0.282153
C    -2.358993  -1.094458  0.251514
C    -3.583102  -1.028588  -0.667946
C    -3.959315  -2.400162  -1.245346
C    -5.213823  -2.286483  -2.093339
N    -5.635703  -3.651363  -2.636123
H    -2.493283  -1.898867  0.993814
H    -1.461785  -1.345637  -0.334529
H    -3.382897  -0.324462  -1.491778
H    -4.425184  -0.618806  -0.091753
H    -4.136512  -3.105599  -0.415734
H    -3.130132  -2.807715  -1.848970
H    -5.072872  -1.642952  -2.970682
H    -6.069324  -1.911844  -1.517498
H    -6.485507  -3.592637  -3.213287
H    -5.822596  -4.307167  -1.865191
H    -4.889242  -4.062806  -3.213019
N    -2.665292  0.718614  3.331086
C    -3.514568  1.007828  4.473330
H    -1.656136  0.708069  3.442814
H    -3.415242  0.231976  5.244235
H    -4.551826  1.036541  4.124459
H    -3.254416  1.979171  4.913323
