34
Energy: -18219.8460824 eV PBE+vdW (tier 2 basis)
C    -0.020674  -0.760011  0.030894
C    -0.044711  -0.127800  1.401369
O    0.966794  0.483846  1.811667
H    -0.969190  -1.222090  -0.264042
H    0.765527  -1.526025  0.014975
H    0.255120  0.000859  -0.709520
N    -1.195446  -0.275633  2.092959
C    -1.560403  0.021193  3.492311
C    -3.048604  0.421957  3.678831
O    -3.573892  0.093226  4.736328
H    -1.893900  -0.840099  1.617294
H    -1.521870  -0.937689  4.031349
C    -0.642337  0.977421  4.267289
C    -0.616180  2.431620  3.786726
C    0.468569  3.288421  4.460358
C    1.897549  2.769433  4.322440
N    2.252645  2.494458  2.880958
H    0.362113  0.537053  4.277231
H    -1.003839  0.941841  5.305437
H    -1.587415  2.905785  3.987476
H    -0.491727  2.471837  2.693775
H    0.415882  4.316741  4.069808
H    0.271210  3.369662  5.539717
H    2.048357  1.822394  4.853646
H    2.620167  3.495104  4.714069
H    3.234914  2.213826  2.786970
H    1.651439  1.695240  2.470963
H    2.116473  3.329906  2.300642
N    -3.761620  1.053312  2.694275
C    -3.329148  1.919002  1.603302
H    -4.727361  1.182952  2.992757
H    -3.322282  2.977622  1.904901
H    -4.015841  1.807843  0.755183
H    -2.326751  1.651649  1.264182
