34
Energy: -18218.6768836 eV PBE+vdW (tier 2 basis)
C    0.778783  0.889426  0.369458
C    0.494660  0.996273  1.848625
O    1.138818  1.687948  2.615616
H    0.258166  1.708916  -0.147219
H    0.446738  -0.055909  -0.078105
H    1.852700  1.018529  0.205331
N    -0.638936  0.273522  2.265685
C    -0.983688  0.123025  3.678631
C    -2.301094  -0.591265  3.752273
O    -3.216973  -0.374307  2.838601
H    -0.827578  -0.539546  1.683184
H    -0.217639  -0.470734  4.203782
C    -1.136227  1.451546  4.500864
C    -2.270030  2.436152  4.174206
C    -2.188546  3.209517  2.838884
C    -3.051292  2.690462  1.684265
N    -4.470274  2.828480  1.950317
H    -0.164194  1.950650  4.419359
H    -1.239202  1.132445  5.549489
H    -2.238704  3.169362  4.992198
H    -3.257191  1.956344  4.290825
H    -1.140772  3.275568  2.513884
H    -2.519699  4.241247  3.018458
H    -2.714600  1.654703  1.387192
H    -2.821659  3.285541  0.788673
H    -5.043358  2.653033  1.127946
H    -4.809845  2.238595  2.707402
H    -2.893374  0.320395  2.198369
N    -2.651833  -1.401794  4.721288
C    -1.861076  -1.828819  5.876183
H    -3.615849  -1.736106  4.674649
H    -0.792041  -1.752719  5.661708
H    -2.105436  -2.872910  6.095506
H    -2.101825  -1.209966  6.749480
