34
Energy: -18218.8994197 eV PBE+vdW (tier 2 basis)
C    0.062409  0.007582  0.764209
C    -0.723885  -0.487474  1.961635
O    -0.199435  -0.810565  3.013081
H    0.038998  -0.714667  -0.064839
H    1.103153  0.125919  1.076382
H    -0.304254  0.972834  0.391575
N    -2.108636  -0.593021  1.841823
C    -2.982731  -0.259530  0.732789
C    -2.635314  -1.061493  -0.493778
O    -2.409678  -0.492711  -1.661539
H    -2.552452  -0.894027  2.705708
H    -4.002099  -0.642293  1.025273
C    -3.199382  1.245690  0.443531
C    -4.605631  1.552611  -0.109219
C    -5.675185  1.842942  0.962834
C    -5.789828  0.858993  2.130207
N    -5.887777  -0.547685  1.682307
H    -2.413629  1.656834  -0.218805
H    -3.031052  1.774551  1.391361
H    -4.941409  0.720619  -0.750562
H    -4.553914  2.427174  -0.771784
H    -6.649677  1.919617  0.455982
H    -5.487312  2.837623  1.394107
H    -6.648262  1.165420  2.750289
H    -4.904191  0.936438  2.781374
H    -2.434625  0.480930  -1.560614
H    -6.658100  -0.651986  1.017763
H    -6.125201  -1.146758  2.475028
N    -2.552222  -2.371259  -0.500774
C    -2.822540  -3.276975  0.617269
H    -2.271599  -2.788775  -1.387838
H    -3.026470  -4.267734  0.201928
H    -3.703195  -2.938121  1.172608
H    -1.959636  -3.331532  1.291845
