34
Energy: -18219.5743937 eV PBE+vdW (tier 2 basis)
C    -0.409316  -1.994210  1.087683
C    -0.290689  -0.962618  2.182173
O    0.801804  -0.673986  2.694998
H    0.234835  -1.696766  0.250997
H    -0.025957  -2.950405  1.465676
H    -1.431632  -2.140245  0.721223
N    -1.450898  -0.359738  2.571437
C    -1.598387  0.605025  3.669373
C    -1.028625  2.017644  3.360972
O    -1.714747  3.016060  3.591461
H    -2.295824  -0.596039  2.064607
H    -2.677931  0.781071  3.758861
C    -1.098131  0.021213  5.013954
C    -1.669867  0.670249  6.287491
C    -1.324134  2.143475  6.581219
C    0.142532  2.518072  6.454542
N    1.017333  1.631730  7.342926
H    0.004156  0.008074  5.006876
H    -1.392772  -1.037704  5.030086
H    -1.370546  0.038084  7.142679
H    -2.766862  0.595360  6.270580
H    -1.689546  2.407336  7.586600
H    -1.850830  2.801297  5.875189
H    0.332913  3.550101  6.770553
H    0.527032  2.383266  5.435398
H    2.009296  1.895280  7.290321
H    0.935245  0.647928  7.050942
H    0.722828  1.688767  8.326942
N    0.250088  2.058181  2.910880
C    0.876690  3.295971  2.472798
H    0.711092  1.153879  2.740170
H    0.396224  4.140153  2.979019
H    1.946491  3.277159  2.712756
H    0.766940  3.441903  1.388558
