34
Energy: -18220.0141877 eV PBE+vdW (tier 2 basis)
C    0.411103  -0.268232  0.939941
C    -0.015169  0.392090  2.221204
O    0.797625  0.683161  3.119339
H    0.892102  -1.232248  1.149982
H    1.178616  0.369259  0.481144
H    -0.404234  -0.409034  0.223164
N    -1.325011  0.722276  2.415026
C    -2.579962  0.125917  1.966864
C    -3.624434  0.746817  2.917729
O    -3.308948  0.972116  4.104035
H    -1.459169  1.333676  3.219172
H    -2.789544  0.416407  0.924991
C    -2.684096  -1.433077  2.061559
C    -3.046146  -2.065867  3.428574
C    -1.925751  -2.609566  4.339938
C    -0.671376  -1.776082  4.548983
N    -0.889842  -0.373849  5.080996
H    -1.764569  -1.874314  1.650818
H    -3.474049  -1.712183  1.350529
H    -3.697763  -2.925616  3.222917
H    -3.676446  -1.376692  4.005241
H    -2.372912  -2.866730  5.311903
H    -1.556665  -3.561900  3.928697
H    -0.122895  -1.648681  3.611038
H    0.011976  -2.275690  5.245434
H    -0.152968  0.239335  4.628555
H    -1.822174  0.028828  4.808373
H    -0.807168  -0.329270  6.100665
N    -4.849922  0.949519  2.419995
C    -5.976078  1.448023  3.202144
H    -4.990370  0.787926  1.427876
H    -5.663487  1.522495  4.246978
H    -6.826115  0.760137  3.120809
H    -6.280450  2.440243  2.846583
