34
Energy: -18219.6697308 eV PBE+vdW (tier 2 basis)
C    0.511769  1.191614  2.021349
C    -0.589599  0.825612  2.963553
O    -0.448867  1.037247  4.201091
H    0.670113  2.279047  2.051266
H    1.429753  0.735371  2.415946
H    0.355681  0.830444  1.003918
N    -1.753517  0.271292  2.542862
C    -2.455686  0.303521  1.251875
C    -1.859752  -0.705323  0.234732
O    -0.660655  -0.960284  0.214931
H    -2.302694  -0.089682  3.317610
H    -3.476231  -0.024071  1.498967
C    -2.557772  1.717526  0.639317
C    -3.376645  2.768781  1.414844
C    -2.761631  3.325464  2.723154
C    -3.330294  2.698193  4.004166
N    -2.290720  2.613139  5.093097
H    -3.020781  1.604004  -0.351543
H    -1.547690  2.102493  0.439326
H    -4.390238  2.383107  1.613240
H    -3.522965  3.613524  0.728958
H    -2.929021  4.409947  2.769150
H    -1.670225  3.198889  2.695323
H    -3.672342  1.670693  3.837767
H    -4.184664  3.270769  4.384829
H    -2.697806  2.299573  5.980696
H    -1.854501  3.525928  5.264350
H    -1.494433  1.889906  4.789138
N    -2.736064  -1.256146  -0.648183
C    -4.187319  -1.140153  -0.692738
H    -2.290084  -1.885516  -1.309832
H    -4.664239  -1.525321  0.220728
H    -4.520560  -0.106768  -0.864416
H    -4.552421  -1.741842  -1.530472
