34
Energy: -18220.3463751 eV PBE+vdW (tier 2 basis)
C    -0.888089  0.330533  -0.455443
C    -0.649789  0.977165  0.886333
O    0.038405  2.006062  0.991580
H    -1.560174  -0.534093  -0.421642
H    0.077063  0.015330  -0.872747
H    -1.301879  1.082327  -1.138828
N    -1.231328  0.371016  1.952441
C    -1.223806  0.796918  3.362612
C    -1.174287  2.332690  3.519488
O    -0.229143  2.919758  4.078136
H    -1.777650  -0.460663  1.753818
H    -2.226989  0.517111  3.723871
C    -0.264093  -0.011322  4.272602
C    1.235352  0.302166  4.399218
C    2.097515  0.270126  3.114443
C    2.922464  1.535093  2.898900
N    2.032419  2.719786  2.655019
H    -0.391315  -1.064215  3.973862
H    -0.686026  0.055202  5.286465
H    1.636307  -0.436890  5.106232
H    1.345131  1.267728  4.908030
H    1.488675  0.081262  2.220925
H    2.809739  -0.564439  3.159650
H    3.585113  1.438369  2.029903
H    3.540472  1.760709  3.777698
H    2.560783  3.587230  2.529991
H    1.311809  2.846998  3.421706
H    1.413774  2.544446  1.824030
N    -2.257286  3.025851  3.113075
C    -3.457316  2.554491  2.437779
H    -2.161877  4.029198  3.250358
H    -3.809145  1.607408  2.864558
H    -3.296992  2.421639  1.358452
H    -4.250297  3.294785  2.582470
