34
Energy: -18218.917186 eV PBE+vdW (tier 2 basis)
C    0.280173  -0.094094  2.155700
C    -0.609488  -0.686018  3.225526
O    -0.187791  -1.405683  4.130461
H    0.139205  -0.598949  1.187772
H    1.320001  -0.235450  2.461346
H    0.080079  0.972951  1.995630
N    -1.955644  -0.390701  3.172152
C    -2.743853  0.047480  2.029251
C    -3.213226  1.525790  1.993130
O    -3.244889  2.076533  0.895853
H    -2.458705  -0.737811  3.984232
H    -2.099103  0.006358  1.142000
C    -3.935350  -0.914482  1.809227
C    -3.622410  -2.154777  0.948573
C    -2.388534  -3.011833  1.292075
C    -2.338923  -3.667351  2.663375
N    -3.493696  -4.651134  2.842652
H    -4.744312  -0.369940  1.303589
H    -4.341325  -1.199056  2.795930
H    -3.484298  -1.820168  -0.089712
H    -4.529269  -2.785949  0.905335
H    -1.472593  -2.410107  1.220781
H    -2.271979  -3.789059  0.518417
H    -2.411064  -2.952749  3.490349
H    -1.420302  -4.247979  2.805412
H    -4.399159  -4.175421  2.730385
H    -3.477132  -5.090621  3.772043
H    -3.452958  -5.400080  2.137850
N    -3.597546  2.165302  3.131715
C    -3.716990  1.674792  4.496718
H    -3.869011  3.128956  2.957343
H    -2.742395  1.548722  4.987789
H    -4.274005  0.727724  4.545087
H    -4.293549  2.406772  5.071504
