34
Energy: -18220.4092295 eV PBE+vdW (tier 2 basis)
C    1.169428  1.722844  1.260124
C    0.622970  0.819001  2.339730
O    1.255607  0.600256  3.378527
H    0.527153  1.805815  0.376014
H    1.321437  2.722861  1.685649
H    2.153648  1.347638  0.954089
N    -0.605385  0.269404  2.074323
C    -1.370964  -0.645123  2.934625
C    -2.036668  0.157909  4.074270
O    -1.447775  0.522340  5.111404
H    -1.037186  0.534928  1.197376
H    -2.187742  -1.017928  2.300220
C    -0.514927  -1.856866  3.371913
C    -0.921727  -2.614156  4.657721
C    0.276480  -2.865953  5.594665
C    0.639872  -1.748922  6.574571
N    0.863254  -0.404843  5.938840
H    0.516847  -1.506508  3.463215
H    -0.503111  -2.551313  2.521888
H    -1.353361  -3.585380  4.386229
H    -1.715040  -2.086830  5.208069
H    1.159438  -3.132783  4.992583
H    0.074387  -3.743992  6.224965
H    -0.164865  -1.600474  7.306683
H    1.549983  -2.017353  7.124895
H    1.466723  -0.403357  5.100553
H    1.263080  0.257544  6.610074
H    -0.068725  0.010494  5.574070
N    -3.322018  0.488331  3.868891
C    -4.085082  1.302815  4.809160
H    -3.778443  0.175202  3.020543
H    -3.620320  2.288970  4.931315
H    -4.128677  0.816629  5.791469
H    -5.100290  1.425801  4.422336
