34
Energy: -18219.595839 eV PBE+vdW (tier 2 basis)
C    -0.111962  -0.285727  -0.078323
C    -0.049041  -0.168807  1.424634
O    1.007721  -0.249735  2.055708
H    0.497525  0.515031  -0.516090
H    0.341241  -1.237740  -0.380013
H    -1.127564  -0.222725  -0.486583
N    -1.241901  0.045636  2.068942
C    -1.312596  0.228295  3.512417
C    -1.318811  -1.114963  4.318375
O    -2.285468  -1.420355  5.033466
H    -2.105053  -0.047921  1.544959
H    -0.405388  0.784888  3.796838
C    -2.563897  0.987902  3.926983
C    -2.740799  2.451512  3.541457
C    -4.120923  2.975198  3.982281
C    -4.492398  2.725822  5.445277
N    -4.956046  1.291907  5.710043
H    -2.539748  0.905342  5.024940
H    -3.430620  0.395537  3.578796
H    -2.642924  2.596560  2.456477
H    -1.949335  3.059040  4.006110
H    -4.913717  2.563273  3.334166
H    -4.168080  4.063847  3.836951
H    -3.647347  2.897776  6.124325
H    -5.325084  3.363969  5.762918
H    -5.782283  1.063522  5.142795
H    -5.206389  1.154871  6.697553
H    -4.215045  0.605223  5.467084
N    -0.203403  -1.847459  4.163602
C    0.003994  -3.140027  4.795401
H    0.519980  -1.454348  3.552048
H    0.855828  -3.100724  5.487119
H    0.200684  -3.910693  4.039013
H    -0.898761  -3.404314  5.353926
