34
Energy: -18219.2895421 eV PBE+vdW (tier 2 basis)
C    -0.498002  -1.257523  1.654145
C    -0.549709  -0.193447  2.717763
O    0.463563  0.046421  3.429503
H    -0.859577  -0.920455  0.674474
H    0.530509  -1.619839  1.568335
H    -1.150785  -2.090950  1.949898
N    -1.685367  0.498254  2.954905
C    -2.746598  0.896525  2.018460
C    -3.286507  -0.352976  1.261196
O    -3.574026  -1.325777  1.950976
H    -1.606548  1.085089  3.783798
H    -3.618048  1.129272  2.649371
C    -2.342126  2.226070  1.321712
C    -0.878627  2.328351  0.834484
C    0.037724  3.009416  1.871451
C    1.543385  2.873357  1.671382
N    2.038397  1.451930  1.873145
H    -2.517101  3.031561  2.051765
H    -3.043997  2.435633  0.507965
H    -0.842622  2.906185  -0.100179
H    -0.503888  1.326579  0.571767
H    -0.199251  2.661263  2.886446
H    -0.175654  4.088734  1.875556
H    2.071610  3.487305  2.409776
H    1.867354  3.193175  0.672680
H    1.975428  0.910413  1.005020
H    1.453808  0.893208  2.613323
H    3.023430  1.442214  2.156956
N    -3.496366  -0.377130  -0.086939
C    -3.254328  0.571697  -1.166464
H    -3.958486  -1.244092  -0.350773
H    -3.949045  1.423319  -1.149047
H    -2.223406  0.944719  -1.169885
H    -3.407778  0.041388  -2.111857
