34
Energy: -18219.504432 eV PBE+vdW (tier 2 basis)
C    -0.184585  1.213780  -0.136628
C    0.038237  0.035453  0.735582
O    1.309317  -0.315986  0.885578
H    0.773876  1.636456  -0.448084
H    -0.777629  1.975827  0.385785
H    -0.753895  0.915833  -1.029693
N    -0.906465  -0.640467  1.331295
C    -2.351682  -0.384760  1.175186
C    -2.903893  0.872730  1.900493
O    -4.003418  1.282391  1.557729
H    -0.626561  -1.555495  1.841538
H    -2.544749  -0.187282  0.111409
C    -3.164150  -1.633155  1.576764
C    -3.354092  -1.902097  3.080709
C    -2.125229  -2.066928  3.990818
C    -1.200008  -3.255802  3.727927
N    -0.398548  -3.122458  2.468196
H    -2.742698  -2.503874  1.051316
H    -4.160860  -1.485267  1.141206
H    -3.974786  -2.807215  3.168410
H    -3.969980  -1.089038  3.493302
H    -2.500352  -2.182660  5.018670
H    -1.522000  -1.144338  4.017960
H    -1.777252  -4.192711  3.716658
H    -0.489141  -3.334247  4.560092
H    0.521611  -3.542187  2.613675
H    1.401296  -1.109121  1.450306
H    -0.824105  -3.683461  1.726977
N    -2.134050  1.434461  2.868758
C    -2.588011  2.573406  3.658830
H    -1.280594  0.965832  3.147993
H    -1.787891  3.317582  3.745983
H    -2.901250  2.261382  4.664389
H    -3.446278  3.018546  3.146713
