34
Energy: -18220.1327938 eV PBE+vdW (tier 2 basis)
C    0.267344  -0.123752  0.043552
C    -0.043916  -0.188739  1.519073
O    0.760557  0.287799  2.351006
H    1.200502  -0.668459  -0.149779
H    0.446141  0.923668  -0.231255
H    -0.520389  -0.532896  -0.598682
N    -1.222327  -0.764173  1.851314
C    -1.870260  -0.953165  3.161625
C    -2.938431  0.120008  3.519283
O    -3.626726  -0.065201  4.515593
H    -1.758629  -1.119092  1.065882
H    -2.445647  -1.886565  3.062843
C    -0.924135  -1.100884  4.361493
C    0.090311  -2.240273  4.243260
C    1.180264  -2.215258  5.327887
C    1.967667  -0.912474  5.444946
N    2.550290  -0.481982  4.118301
H    -1.578937  -1.263225  5.228122
H    -0.430553  -0.135084  4.526617
H    0.562677  -2.236226  3.247783
H    -0.428965  -3.207441  4.306982
H    1.879278  -3.050435  5.164321
H    0.733216  -2.390978  6.317780
H    2.798470  -1.018717  6.152614
H    1.341432  -0.078063  5.781145
H    3.151404  0.342037  4.228976
H    1.782321  -0.220282  3.404968
H    3.125630  -1.227348  3.709814
N    -3.036055  1.194217  2.698765
C    -3.989142  2.270136  2.930160
H    -2.398179  1.267520  1.916258
H    -4.605655  2.437526  2.038499
H    -3.474997  3.204266  3.192530
H    -4.633233  1.973014  3.763298
