34
Energy: -18219.0628833 eV PBE+vdW (tier 2 basis)
C    -1.209610  -2.789061  0.099142
C    -0.481983  -1.967660  1.133062
O    0.358572  -2.398848  1.887843
H    -2.239362  -2.999357  0.425188
H    -0.688839  -3.745117  -0.000138
H    -1.255427  -2.296617  -0.881750
N    -0.777839  -0.565170  1.186089
C    -2.047876  0.033992  0.779239
C    -1.712866  1.030752  -0.337402
O    -0.482722  1.040815  -0.752843
H    -0.382080  -0.172950  2.043301
H    -2.659356  -0.744553  0.297786
C    -2.871192  0.615384  1.952444
C    -2.162630  1.626654  2.863666
C    -1.696162  2.916354  2.184245
C    -1.205057  3.987269  3.165763
N    -0.762675  5.174084  2.430875
H    -3.207512  -0.246188  2.546417
H    -3.793329  1.063839  1.546990
H    -1.318220  1.146435  3.386611
H    -2.873513  1.874684  3.666586
H    -2.513722  3.360946  1.594009
H    -0.874864  2.712747  1.474416
H    -0.432522  3.552817  3.829205
H    -2.042451  4.279378  3.815972
H    -0.041868  0.355090  -0.141298
H    0.205566  5.079420  2.124167
H    -0.796328  6.002767  3.022491
N    -2.595032  1.809510  -0.904261
C    -2.304090  2.801812  -1.944379
H    -3.534898  1.793375  -0.516616
H    -3.176484  2.890307  -2.598342
H    -1.437725  2.478542  -2.526852
H    -2.091826  3.773218  -1.478145
