34
Energy: -18219.1055599 eV PBE+vdW (tier 2 basis)
C    -0.129848  0.003385  -0.107951
C    0.012826  -0.034297  1.402291
O    1.097438  -0.102969  1.961673
H    -0.576369  0.947640  -0.451267
H    -0.752776  -0.820024  -0.485103
H    0.870441  -0.084680  -0.538985
N    -1.149355  0.027249  2.151939
C    -2.527662  0.020544  1.683710
C    -3.336703  0.953991  2.616146
O    -4.138527  0.498330  3.438224
H    -0.989549  -0.056835  3.153706
H    -2.535896  0.443988  0.667564
C    -3.111088  -1.405106  1.646979
C    -4.361499  -1.621855  0.779060
C    -5.626723  -0.863697  1.217646
C    -6.917792  -1.443456  0.667051
N    -7.220992  -2.775500  1.351113
H    -3.313995  -1.717430  2.681487
H    -2.319140  -2.062019  1.262666
H    -4.544365  -2.714357  0.780351
H    -4.140230  -1.375585  -0.272086
H    -5.584152  0.181285  0.880066
H    -5.675262  -0.792344  2.316528
H    -6.871715  -1.660784  -0.408197
H    -7.785372  -0.802450  0.862717
H    -8.060353  -3.230752  0.970837
H    -6.424779  -3.419312  1.236289
H    -7.359073  -2.636116  2.361515
N    -3.108911  2.287970  2.503742
C    -2.127202  2.973356  1.673101
H    -3.592951  2.837578  3.208497
H    -2.360274  4.042751  1.676121
H    -2.178303  2.629831  0.631929
H    -1.100832  2.833833  2.039276
