34
Energy: -18219.2206437 eV PBE+vdW (tier 2 basis)
C    0.397560  0.939757  0.398684
C    0.254071  -0.027037  1.555395
O    1.202422  -0.652811  2.008121
H    1.463808  1.140969  0.266902
H    -0.137936  1.884450  0.550338
H    0.014200  0.490178  -0.528085
N    -1.005134  -0.228570  2.102477
C    -2.292468  0.379138  1.784701
C    -2.625627  0.298296  0.273627
O    -2.876925  1.315878  -0.387665
H    -0.980479  -0.890685  2.872878
H    -3.037371  -0.257193  2.292444
C    -2.446062  1.813882  2.342605
C    -3.846531  2.190602  2.857209
C    -4.994800  2.325841  1.839720
C    -4.768529  3.314568  0.705661
N    -4.438677  4.706639  1.238687
H    -2.091539  2.523812  1.579688
H    -1.753505  1.893129  3.190385
H    -3.756635  3.124794  3.441743
H    -4.163784  1.449204  3.606387
H    -5.923480  2.573324  2.378782
H    -5.188283  1.362932  1.345700
H    -5.660007  3.434436  0.079380
H    -3.919936  3.002152  0.081715
H    -5.194232  5.077660  1.830200
H    -4.279548  5.371333  0.471355
H    -3.584721  4.676193  1.811707
N    -2.643753  -0.927902  -0.297733
C    -2.384329  -2.232911  0.299554
H    -2.830204  -0.899757  -1.296463
H    -2.816310  -2.998625  -0.352920
H    -2.867100  -2.324775  1.280282
H    -1.310742  -2.430966  0.416018
