34
Energy: -18219.8007489 eV PBE+vdW (tier 2 basis)
C    -0.970644  0.889384  -1.720505
C    -0.467246  1.419851  -0.414795
O    0.262125  2.444036  -0.367292
H    -0.671428  1.572270  -2.518835
H    -2.061902  0.761488  -1.720008
H    -0.547554  -0.106467  -1.912502
N    -0.771086  0.780855  0.746548
C    -1.969272  -0.002407  1.113628
C    -2.226663  -1.201293  0.152337
O    -3.188422  -1.211046  -0.607769
H    -0.259174  1.161055  1.538435
H    -1.717658  -0.424636  2.097956
C    -3.240379  0.861117  1.260828
C    -3.006662  2.273724  1.834413
C    -2.868794  3.350353  0.735712
C    -2.043119  4.584752  1.077831
N    -0.583430  4.253858  1.326904
H    -3.933783  0.300004  1.900865
H    -3.736754  0.919880  0.282073
H    -2.125330  2.264165  2.499811
H    -3.845090  2.544597  2.489245
H    -3.870773  3.711908  0.463129
H    -2.471251  2.915058  -0.190230
H    -2.416784  5.105307  1.969065
H    -2.056221  5.292524  0.240868
H    -0.001131  5.094035  1.245772
H    -0.186670  3.494405  0.625815
H    -0.449209  3.892809  2.276184
N    -1.304740  -2.192242  0.235457
C    -1.365544  -3.402511  -0.572447
H    -0.556539  -2.104397  0.913918
H    -1.550559  -4.284020  0.055027
H    -0.428056  -3.547078  -1.124086
H    -2.191559  -3.293091  -1.281318
