34
Energy: -18219.2248327 eV PBE+vdW (tier 2 basis)
C    -0.060937  0.728429  -0.130731
C    0.205222  0.445658  1.335467
O    1.324146  0.495564  1.828444
H    -0.858509  1.469982  -0.273125
H    -0.357833  -0.184028  -0.669422
H    0.865636  1.100828  -0.574570
N    -0.890244  0.142214  2.128563
C    -2.251119  -0.147969  1.712805
C    -3.282025  1.000717  1.886840
O    -4.455200  0.798642  1.581295
H    -0.638022  -0.035429  3.099122
H    -2.242117  -0.321029  0.626701
C    -2.790443  -1.402864  2.419727
C    -2.047219  -2.698764  2.068376
C    -2.269352  -3.159275  0.621212
C    -1.489073  -4.404179  0.232113
N    -1.922454  -5.603265  1.073969
H    -3.858439  -1.483946  2.175181
H    -2.734364  -1.244474  3.508030
H    -2.397421  -3.470043  2.778929
H    -0.966752  -2.572850  2.250623
H    -1.945829  -2.376251  -0.080350
H    -3.343399  -3.306013  0.418269
H    -0.411580  -4.291515  0.408361
H    -1.649090  -4.695385  -0.812672
H    -1.377827  -6.446993  0.853279
H    -2.917584  -5.817758  0.921439
H    -1.803121  -5.395871  2.075823
N    -2.783996  2.168696  2.352008
C    -3.600202  3.356067  2.544544
H    -1.791498  2.202965  2.560430
H    -3.224104  4.190310  1.938195
H    -3.609001  3.658425  3.599974
H    -4.621494  3.116047  2.232143
