34
Energy: -18218.8253718 eV PBE+vdW (tier 2 basis)
C    0.068992  -0.414877  -0.075711
C    -0.085906  -0.292631  1.420865
O    0.868011  -0.119750  2.180363
H    1.014213  -0.917534  -0.302744
H    -0.759844  -0.948646  -0.556173
H    0.117952  0.598534  -0.499251
N    -1.372324  -0.376787  1.899373
C    -1.696645  0.051682  3.259979
C    -1.100148  1.473215  3.506358
O    -1.506660  2.359173  2.762767
H    -2.118944  -0.314309  1.216427
H    -2.765569  0.303747  3.227599
C    -1.580896  -1.077380  4.318516
C    -0.454030  -2.098529  4.132201
C    -0.452773  -3.224019  5.180558
C    -0.027040  -2.733465  6.555230
N    0.025116  -3.896452  7.544577
H    -2.534286  -1.630471  4.294946
H    -1.543101  -0.596922  5.308254
H    0.528952  -1.612538  4.103304
H    -0.571469  -2.571339  3.148121
H    0.243261  -4.012964  4.850163
H    -1.455731  -3.680785  5.243694
H    0.979206  -2.296257  6.546267
H    -0.723210  -2.004616  6.986661
H    -0.897899  -4.344152  7.629366
H    0.684374  -4.618318  7.221749
H    0.318858  -3.596502  8.483813
N    -0.298092  1.777427  4.577158
C    0.714070  0.958550  5.228109
H    -0.112992  2.777746  4.582242
H    0.292565  0.338179  6.035624
H    1.447205  1.628903  5.688963
H    1.238131  0.326982  4.499830
