34
Energy: -18219.7526007 eV PBE+vdW (tier 2 basis)
C    0.513953  0.056045  1.304479
C    -0.340715  0.852164  0.364047
O    0.105242  1.865879  -0.224241
H    1.512869  -0.025475  0.859272
H    0.639235  0.598428  2.252865
H    0.120986  -0.943784  1.513253
N    -1.623917  0.460157  0.132602
C    -2.589899  -0.060733  1.110861
C    -3.316838  -1.354969  0.651383
O    -4.345566  -1.698124  1.221288
H    -2.057035  0.959375  -0.643188
H    -2.030853  -0.344926  2.014804
C    -3.613505  1.036144  1.466947
C    -3.235637  2.014952  2.591436
C    -1.945307  2.856076  2.525497
C    -1.880891  4.052869  1.578362
N    -1.773347  3.700289  0.108538
H    -4.525749  0.508124  1.778098
H    -3.895167  1.564079  0.536048
H    -3.176507  1.429841  3.521625
H    -4.088343  2.696560  2.739763
H    -1.053130  2.230221  2.389363
H    -1.811011  3.302031  3.522999
H    -2.761311  4.699594  1.690298
H    -0.990087  4.652790  1.799932
H    -2.657998  3.312656  -0.234611
H    -1.579051  4.540593  -0.447719
H    -0.974967  2.971051  -0.098160
N    -2.716138  -2.042792  -0.350173
C    -3.226325  -3.314769  -0.842099
H    -1.850307  -1.678863  -0.730975
H    -3.280316  -3.305691  -1.937136
H    -4.229507  -3.458312  -0.429385
H    -2.588849  -4.149298  -0.520694
