34
Energy: -18218.8819396 eV PBE+vdW (tier 2 basis)
C    -0.472621  2.016005  2.157378
C    -0.004103  0.685464  2.703569
O    0.718989  0.576509  3.684148
H    0.024107  2.809234  2.721178
H    -1.560806  2.131701  2.264391
H    -0.237623  2.129011  1.089843
N    -0.419980  -0.458174  2.031469
C    -1.471805  -0.547697  1.037649
C    -2.927266  -0.234179  1.484147
O    -3.657168  0.340811  0.674898
H    -0.140815  -1.306459  2.518314
H    -1.299574  0.227760  0.276159
C    -1.394104  -1.918449  0.337579
C    -2.417546  -2.110703  -0.792115
C    -2.234671  -3.406885  -1.606315
C    -1.442933  -3.256060  -2.895989
N    -0.018294  -2.766844  -2.639133
H    -1.523805  -2.723767  1.079533
H    -0.350603  -2.019767  -0.017360
H    -2.417949  -1.233570  -1.462115
H    -3.423710  -2.107984  -0.356241
H    -3.215212  -3.790336  -1.923278
H    -1.797065  -4.206968  -0.986707
H    -1.891745  -2.510209  -3.564187
H    -1.342298  -4.202454  -3.440867
H    0.501104  -3.434344  -2.052860
H    -0.029620  -1.867824  -2.137373
H    0.505063  -2.638035  -3.515144
N    -3.373748  -0.604905  2.713479
C    -2.709591  -1.316950  3.800737
H    -4.330704  -0.303360  2.876942
H    -1.967276  -0.699638  4.323505
H    -2.226628  -2.239269  3.451919
H    -3.476712  -1.612781  4.523677
