34
Energy: -18219.7786599 eV PBE+vdW (tier 2 basis)
C    -0.499014  -0.364494  1.968751
C    -1.767659  -1.079251  2.386211
O    -1.805516  -2.284028  2.584508
H    -0.064668  0.149795  2.837948
H    -0.646283  0.377893  1.175018
H    0.213347  -1.120962  1.629463
N    -2.922503  -0.332090  2.582058
C    -3.189897  1.089083  2.374645
C    -2.930735  1.488634  0.910232
O    -2.125116  2.397990  0.586241
H    -3.687057  -0.903400  2.930779
H    -4.278436  1.192298  2.518896
C    -2.510202  2.001878  3.418579
C    -3.272278  3.280477  3.811238
C    -3.199565  4.519595  2.902716
C    -1.793130  5.105725  2.739028
N    -1.091657  4.555557  1.516870
H    -1.473554  2.216004  3.117900
H    -2.423951  1.385750  4.323028
H    -2.910922  3.584774  4.805650
H    -4.333707  3.027335  3.959032
H    -3.825481  5.300303  3.356304
H    -3.642951  4.332257  1.912401
H    -1.163445  4.866768  3.605084
H    -1.814563  6.196147  2.636632
H    -1.287592  5.136703  0.695076
H    -0.074179  4.532775  1.633738
H    -1.465528  3.556571  1.259054
N    -3.580642  0.827792  -0.057496
C    -4.555600  -0.253197  0.054116
H    -3.316891  1.120036  -0.995510
H    -5.284892  -0.047913  0.846984
H    -4.071761  -1.218049  0.251659
H    -5.101134  -0.314403  -0.892593
