34
Energy: -18219.2204014 eV PBE+vdW (tier 2 basis)
C    -0.823631  -1.276317  0.272269
C    -1.187087  -1.472909  1.707154
O    -0.889150  -2.543413  2.303636
H    0.268991  -1.344068  0.180509
H    -1.246629  -2.095562  -0.322190
H    -1.157569  -0.315187  -0.132128
N    -1.834605  -0.482842  2.359715
C    -1.954713  -0.448339  3.834113
C    -2.966278  -1.543842  4.222792
O    -2.563231  -2.749191  4.036795
H    -2.079325  0.360354  1.849638
H    -1.002649  -0.848586  4.220518
C    -2.076528  0.999459  4.336723
C    -1.399667  1.301691  5.687646
C    -1.971401  0.683815  6.971811
C    -1.585349  -0.772959  7.239029
N    -2.065853  -1.195767  8.546763
H    -3.114563  1.349818  4.332593
H    -1.555934  1.615995  3.587304
H    -1.423963  2.395189  5.795729
H    -0.330860  1.041776  5.607357
H    -3.069098  0.793219  6.996692
H    -1.609319  1.271029  7.827513
H    -1.929617  -1.427910  6.408173
H    -0.487043  -0.851572  7.245086
H    -3.083597  -1.240175  8.590991
H    -1.666735  -2.732069  3.321490
H    -1.705186  -2.111618  8.808765
N    -4.209681  -1.393717  4.653390
C    -5.027930  -0.203413  4.890086
H    -4.674198  -2.291341  4.791190
H    -5.085343  0.424445  3.994179
H    -4.653784  0.383759  5.734346
H    -6.037880  -0.547435  5.129149
