34
Energy: -18220.1604519 eV PBE+vdW (tier 2 basis)
C    0.699362  0.643157  0.839385
C    -0.292891  1.181339  1.831791
O    -0.249222  2.360482  2.221396
H    0.680005  1.272136  -0.059011
H    0.513444  -0.398727  0.555255
H    1.706510  0.723149  1.267908
N    -1.244652  0.305015  2.287339
C    -2.250833  0.784694  3.214899
C    -2.051764  0.419022  4.692781
O    -1.988298  1.353313  5.522417
H    -1.277607  -0.628522  1.894580
H    -2.006647  1.837378  3.216783
C    -3.722483  0.729071  2.742500
C    -4.217004  2.138926  2.373981
C    -4.236678  3.161627  3.542588
C    -3.120816  4.211359  3.660719
N    -1.788692  3.724758  4.201747
H    -4.362006  0.305063  3.530600
H    -3.815525  0.061792  1.874009
H    -5.238684  2.051883  1.980694
H    -3.610471  2.529845  1.540943
H    -4.358544  2.646805  4.508058
H    -5.145581  3.769776  3.431332
H    -3.455828  4.994174  4.350903
H    -2.916650  4.686708  2.692922
H    -1.299441  4.479892  4.691092
H    -1.156517  3.373044  3.437456
H    -1.902188  2.886792  4.865483
N    -1.988030  -0.862479  5.086200
C    -2.091019  -2.058238  4.261187
H    -1.838503  -0.985998  6.085181
H    -2.500895  -2.871991  4.868372
H    -1.112194  -2.376310  3.874382
H    -2.783098  -1.898933  3.426238
