34
Energy: -18219.5636133 eV PBE+vdW (tier 2 basis)
C    -0.381435  0.262400  -1.365638
C    -0.347620  0.726125  0.073598
O    0.705269  1.099227  0.618445
H    -1.394329  0.092770  -1.747483
H    0.126335  1.000837  -1.997249
H    0.184654  -0.675258  -1.442989
N    -1.532256  0.698632  0.727018
C    -1.725012  1.036224  2.122998
C    -3.228877  0.785032  2.392715
O    -4.023537  0.669863  1.460925
H    -2.405764  0.458569  0.252274
H    -1.138219  0.340524  2.748363
C    -1.298531  2.492667  2.479678
C    0.013257  2.561587  3.284365
C    0.885048  3.791884  2.981875
C    1.563063  3.667838  1.625392
N    2.476051  4.867968  1.374803
H    -2.102201  2.986716  3.043197
H    -1.219135  3.041915  1.531775
H    0.609591  1.662688  3.076708
H    -0.207152  2.559989  4.360923
H    1.655973  3.882931  3.765272
H    0.275647  4.711217  3.022082
H    0.860125  3.638877  0.786721
H    2.189821  2.773192  1.546623
H    2.950116  4.794980  0.465149
H    3.199841  4.937305  2.102902
H    1.944702  5.748883  1.385878
N    -3.575597  0.724920  3.700983
C    -4.945102  0.522232  4.151282
H    -2.839983  0.758463  4.397599
H    -5.588426  0.498427  3.266778
H    -5.043911  -0.429559  4.689323
H    -5.264925  1.341301  4.808172
