34
Energy: -18219.4724026 eV PBE+vdW (tier 2 basis)
C    -0.593877  -2.265018  1.492122
C    -1.352674  -1.973746  2.731467
O    -0.834596  -2.551161  3.811550
H    0.468653  -2.364250  1.740199
H    -0.947105  -3.223448  1.084700
H    -0.733151  -1.497855  0.726274
N    -2.411308  -1.228012  2.851271
C    -3.146862  -0.515457  1.794914
C    -3.347403  -1.453234  0.565693
O    -3.490057  -2.657233  0.752838
H    -2.755998  -0.969231  3.844761
H    -4.166744  -0.417868  2.205582
C    -2.598257  0.908378  1.588500
C    -2.742529  1.858636  2.794966
C    -1.819927  1.603281  4.014132
C    -2.516826  1.171229  5.308977
N    -3.296705  -0.097202  5.179757
H    -3.162303  1.370169  0.764427
H    -1.546246  0.863346  1.266138
H    -3.799892  1.871639  3.108243
H    -2.550819  2.871967  2.419170
H    -1.281947  2.530657  4.253711
H    -1.033461  0.878576  3.755925
H    -1.753869  1.011376  6.081803
H    -3.165330  1.984028  5.670373
H    -3.361400  -0.553412  6.091420
H    -4.265095  0.114632  4.929106
H    -1.394386  -2.416488  4.600041
N    -3.396130  -0.855243  -0.647121
C    -3.696431  -1.588462  -1.871153
H    -3.266165  0.146748  -0.710962
H    -4.647242  -1.251123  -2.303173
H    -3.774021  -2.649972  -1.619507
H    -2.897014  -1.446218  -2.608745
