34
Energy: -18218.4244409 eV PBE+vdW (tier 2 basis)
C    -0.047598  0.137297  -0.263923
C    0.143540  0.105385  1.239985
O    1.250196  -0.022297  1.741799
H    0.944027  0.143577  -0.723464
H    -0.592115  1.032116  -0.595710
H    -0.585362  -0.756989  -0.606983
N    -0.964394  0.228111  2.062560
C    -2.397713  0.284024  1.783770
C    -2.916320  -1.060814  1.185299
O    -2.944593  -2.025749  1.934938
H    -0.713886  0.064330  3.033760
H    -2.853184  0.225088  2.782646
C    -2.857720  1.644410  1.217612
C    -4.373076  1.852750  1.331874
C    -4.843695  3.287463  1.042566
C    -4.527694  3.824853  -0.345715
N    -5.201831  2.981621  -1.422639
H    -2.499848  1.795817  0.189699
H    -2.344808  2.408054  1.822376
H    -4.689247  1.611868  2.357639
H    -4.921668  1.125914  0.706750
H    -4.365195  3.982095  1.749462
H    -5.926058  3.377071  1.230283
H    -3.455828  3.803181  -0.576338
H    -4.893965  4.848667  -0.484691
H    -5.007514  3.338233  -2.367074
H    -6.222813  2.969147  -1.293416
H    -4.873411  1.999205  -1.376869
N    -3.342446  -1.220589  -0.119723
C    -3.408932  -0.343031  -1.260999
H    -3.661884  -2.175706  -0.267119
H    -2.573641  0.360910  -1.297033
H    -4.371589  0.221584  -1.303609
H    -3.368871  -0.942734  -2.177565
