34
Energy: -18219.5647833 eV PBE+vdW (tier 2 basis)
C    0.352202  0.932663  1.775339
C    -0.454765  0.461411  2.955734
O    0.064778  0.422540  4.103921
H    -0.158404  1.681756  1.158052
H    1.304905  1.330366  2.137464
H    0.549132  0.076483  1.115327
N    -1.731166  0.037899  2.811756
C    -2.762972  0.487129  1.868703
C    -2.235363  0.451693  0.409578
O    -1.637531  -0.540076  0.010199
H    -2.090799  -0.369726  3.673327
H    -3.521035  -0.310659  1.860031
C    -3.453660  1.774479  2.406405
C    -2.523232  2.847838  3.016469
C    -2.369109  2.688540  4.542793
C    -1.238934  3.459914  5.216409
N    0.137262  2.942822  4.835941
H    -4.177368  1.464378  3.175859
H    -4.082627  2.204924  1.614359
H    -2.932161  3.846600  2.807982
H    -1.547021  2.823224  2.507784
H    -2.262529  1.629335  4.815401
H    -3.299007  3.022829  5.026636
H    -1.261223  4.531870  4.981710
H    -1.314286  3.350875  6.304264
H    0.824781  3.155422  5.565985
H    0.150255  1.864746  4.642497
H    0.474347  3.383577  3.973918
N    -2.495208  1.526896  -0.376616
C    -2.146188  1.522072  -1.793541
H    -3.045948  2.295533  -0.018881
H    -1.057069  1.494708  -1.926640
H    -2.542828  2.429948  -2.257156
H    -2.569986  0.641938  -2.292736
