34
Energy: -18219.7113847 eV PBE+vdW (tier 2 basis)
C    -1.601560  -1.839208  0.838872
C    -0.424999  -1.172390  1.471769
O    0.718742  -1.262789  0.951077
H    -2.446013  -1.963343  1.522445
H    -1.933242  -1.256197  -0.029338
H    -1.266612  -2.819535  0.478430
N    -0.519606  -0.513446  2.658298
C    -1.522475  0.367641  3.271280
C    -2.780221  0.577523  2.404810
O    -2.702722  0.879795  1.215154
H    0.398998  -0.338246  3.054265
H    -1.816192  -0.071621  4.238044
C    -0.808453  1.717756  3.566375
C    -0.580042  2.717049  2.411523
C    0.047645  2.293274  1.065327
C    1.559118  2.133710  0.928821
N    2.137513  0.857477  1.505723
H    0.142751  1.464948  4.070436
H    -1.395159  2.242121  4.334707
H    -0.000887  3.556388  2.829811
H    -1.558652  3.143870  2.154873
H    -0.188821  3.106894  0.362570
H    -0.475095  1.423861  0.649200
H    2.104289  2.971970  1.384079
H    1.817491  2.107926  -0.136647
H    2.221787  0.924740  2.524547
H    3.088167  0.708106  1.149673
H    1.540758  -0.068851  1.259028
N    -3.944912  0.457794  3.086564
C    -5.245660  0.716080  2.484783
H    -3.912099  0.176389  4.059824
H    -5.777199  1.500454  3.038103
H    -5.081828  1.046566  1.454797
H    -5.858384  -0.194637  2.476770
