34
Energy: -18219.1427546 eV PBE+vdW (tier 2 basis)
C    -0.684811  -0.724302  -0.245936
C    -0.282018  -0.854951  1.208027
O    0.713436  -1.484365  1.535542
H    0.200311  -0.438773  -0.825139
H    -0.984189  -1.722663  -0.592872
H    -1.504555  -0.032661  -0.456577
N    -1.102542  -0.332066  2.210351
C    -2.071398  0.758110  2.196467
C    -3.252435  0.591233  1.201009
O    -3.738255  1.575174  0.641853
H    -0.705184  -0.549161  3.122562
H    -2.557192  0.711274  3.185125
C    -1.476249  2.184305  2.091315
C    -0.663476  2.494692  0.826023
C    -0.407464  3.984630  0.552527
C    0.324446  4.758529  1.640802
N    -0.614106  5.090049  2.798823
H    -0.849196  2.311777  2.996060
H    -2.348233  2.859351  2.147451
H    -1.210910  2.112897  -0.043607
H    0.298550  1.962047  0.858526
H    -1.355361  4.496203  0.311267
H    0.207262  4.076625  -0.354498
H    1.154113  4.186922  2.076617
H    0.710910  5.720138  1.283548
H    -1.372318  5.710299  2.485269
H    -0.125687  5.550067  3.577608
H    -1.053731  4.219804  3.144124
N    -3.715835  -0.672483  1.084745
C    -4.834710  -1.034584  0.229743
H    -3.199668  -1.404839  1.561709
H    -5.571895  -1.620178  0.792374
H    -4.498191  -1.622291  -0.635557
H    -5.302555  -0.112092  -0.126975
