34
Energy: -18220.3438753 eV PBE+vdW (tier 2 basis)
C    -0.368077  -0.987739  0.184748
C    -0.470236  -0.019024  1.335752
O    0.524089  0.571099  1.783770
H    0.144085  -0.491634  -0.648667
H    0.262082  -1.833850  0.489050
H    -1.333851  -1.372294  -0.161713
N    -1.713568  0.169548  1.856020
C    -2.053309  1.088899  2.943629
C    -1.264216  2.420129  2.842685
O    -0.529064  2.823867  3.765706
H    -2.478695  -0.343383  1.433090
H    -3.096849  1.374427  2.742813
C    -2.029649  0.497380  4.385590
C    -1.437688  -0.896405  4.642508
C    0.079238  -1.140544  4.537119
C    1.011274  -0.153787  5.242261
N    1.311751  1.050902  4.391784
H    -3.072938  0.450964  4.724157
H    -1.557086  1.242814  5.039247
H    -1.935988  -1.638054  4.000890
H    -1.742511  -1.155505  5.667827
H    0.401829  -1.232325  3.491568
H    0.274228  -2.126061  4.983197
H    1.971785  -0.637686  5.454747
H    0.599619  0.205879  6.194384
H    2.158670  1.534903  4.702246
H    0.512801  1.766795  4.341389
H    1.406439  0.777035  3.392096
N    -1.472403  3.193005  1.762414
C    -2.314122  2.950828  0.599371
H    -0.919958  4.046837  1.768723
H    -1.814275  2.316731  -0.145943
H    -3.263945  2.483944  0.885955
H    -2.547334  3.914427  0.135607
