34
Energy: -18219.1690363 eV PBE+vdW (tier 2 basis)
C    -0.185104  0.110135  -0.689850
C    0.193378  0.014109  0.775525
O    1.346375  0.102601  1.170707
H    0.737968  0.194338  -1.268619
H    -0.744801  -0.769812  -1.037071
H    -0.802932  0.998219  -0.886133
N    -0.835757  -0.166856  1.686582
C    -2.245777  -0.382379  1.422308
C    -3.073138  0.336108  2.522698
O    -3.609758  -0.315258  3.424430
H    -0.516782  -0.216288  2.652017
H    -2.483516  0.053148  0.441448
C    -2.636130  -1.872480  1.426800
C    -4.059226  -2.137574  0.892857
C    -4.849833  -3.223335  1.634497
C    -4.269690  -4.630688  1.578585
N    -3.038825  -4.763708  2.472793
H    -2.567580  -2.155048  2.492420
H    -1.875622  -2.418758  0.845330
H    -4.016624  -2.375428  -0.181041
H    -4.651105  -1.215546  0.974753
H    -5.858347  -3.297430  1.201916
H    -4.999556  -2.918766  2.684184
H    -4.979689  -5.386841  1.933746
H    -3.939531  -4.907200  0.568818
H    -3.289432  -4.609123  3.458832
H    -2.599860  -5.689866  2.395071
H    -2.344373  -4.038720  2.225990
N    -3.143633  1.686540  2.457047
C    -2.503566  2.574446  1.494157
H    -3.637443  2.108745  3.238521
H    -1.412505  2.603384  1.619377
H    -2.897834  3.583986  1.643386
H    -2.736617  2.281281  0.461733
