34
Energy: -18219.3900878 eV PBE+vdW (tier 2 basis)
C    -0.527729  0.060995  -0.034797
C    -0.203990  0.253020  1.428702
O    0.927229  0.510998  1.835486
H    -0.073916  -0.880197  -0.373497
H    -1.602772  0.029219  -0.248968
H    -0.064556  0.868669  -0.612406
N    -1.260997  0.104253  2.299556
C    -1.065960  0.140510  3.740025
C    -1.783538  -1.039018  4.434643
O    -2.677234  -0.836325  5.256732
H    -2.173241  -0.149223  1.935842
H    0.024249  0.037127  3.874359
C    -1.516323  1.465666  4.370711
C    -0.721847  2.671445  3.863780
C    -1.189192  4.021049  4.432828
C    -1.211886  4.105868  5.952661
N    0.158757  3.753217  6.523174
H    -1.433057  1.336606  5.463122
H    -2.591865  1.608968  4.186466
H    -0.796068  2.732924  2.769682
H    0.359782  2.519036  4.038592
H    -2.217970  4.232152  4.104339
H    -0.571863  4.838253  4.027086
H    -1.447845  5.112406  6.316634
H    -1.911847  3.393142  6.404430
H    0.436177  2.812231  6.207632
H    0.877469  4.409867  6.190244
H    0.164937  3.764759  7.550786
N    -1.379341  -2.293881  4.099276
C    -0.313811  -2.706800  3.197039
H    -1.918425  -3.022084  4.559643
H    -0.663275  -2.814732  2.159509
H    0.075397  -3.674462  3.532144
H    0.517808  -1.992727  3.209061
