34
Energy: -18219.3340255 eV PBE+vdW (tier 2 basis)
C    0.050873  0.076721  0.308414
C    0.002148  -0.024752  1.806406
O    1.071992  -0.122606  2.470218
H    -0.672256  0.779896  -0.118464
H    -0.194293  -0.909820  -0.110846
H    1.065776  0.349412  0.004898
N    -1.168569  -0.054415  2.476975
C    -2.499823  0.466236  2.125507
C    -2.915782  -0.056178  0.717982
O    -2.646601  -1.225356  0.460114
H    -1.033766  -0.252464  3.466867
H    -3.200916  -0.092871  2.766115
C    -2.609086  1.950398  2.560459
C    -1.496332  2.897989  2.066829
C    -0.274830  2.960867  3.018446
C    1.079407  3.134699  2.311363
N    2.117186  2.217037  2.912614
H    -2.614983  1.961947  3.662211
H    -3.596665  2.329776  2.278345
H    -1.911438  3.907631  1.949254
H    -1.169426  2.598689  1.060243
H    -0.236342  2.032831  3.603864
H    -0.416381  3.766518  3.751056
H    1.458735  4.161505  2.362296
H    1.017956  2.851815  1.253244
H    1.781318  1.181408  2.763059
H    2.235874  2.387239  3.917381
H    3.034274  2.336485  2.468464
N    -3.592616  0.709461  -0.186383
C    -4.163936  2.051504  -0.149963
H    -3.852935  0.140518  -0.988539
H    -4.612624  2.241750  -1.129895
H    -3.405139  2.825756  0.013287
H    -4.958776  2.153568  0.602009
