34
Energy: -18220.1721421 eV PBE+vdW (tier 2 basis)
C    0.240377  0.791517  2.279476
C    -0.539365  -0.433901  2.707425
O    -0.060726  -1.336389  3.370454
H    -0.271834  1.729036  2.536507
H    0.409247  0.786892  1.192330
H    1.212845  0.765066  2.777270
N    -1.882783  -0.501219  2.322380
C    -2.575000  0.363476  1.384140
C    -3.089630  1.660912  2.034871
O    -3.376033  2.670163  1.337824
H    -2.297236  -1.410311  2.518521
H    -1.874069  0.690639  0.600617
C    -3.731797  -0.448990  0.745461
C    -4.707219  0.247592  -0.215594
C    -4.228451  0.513660  -1.654127
C    -3.097474  1.516241  -1.869738
N    -3.396784  2.843136  -1.227856
H    -4.324010  -0.860649  1.577962
H    -3.270305  -1.311103  0.239559
H    -5.103689  1.166821  0.241332
H    -5.580093  -0.414163  -0.305428
H    -5.097336  0.838797  -2.248775
H    -3.899433  -0.430311  -2.114440
H    -2.932356  1.679883  -2.941689
H    -2.148716  1.174372  -1.438169
H    -2.707771  3.552072  -1.498687
H    -3.376861  2.745642  -0.111056
H    -4.318997  3.190747  -1.512929
N    -3.223195  1.645959  3.357500
C    -3.707782  2.757814  4.162626
H    -2.902406  0.794428  3.816766
H    -2.938500  3.067990  4.880458
H    -4.608901  2.461329  4.713363
H    -3.945675  3.594698  3.500819
