34
Energy: -18220.0672355 eV PBE+vdW (tier 2 basis)
C    -0.504191  -0.051622  -0.120428
C    -0.644478  -0.030948  1.387750
O    0.190149  -0.510870  2.139205
H    0.511671  0.260140  -0.388744
H    -0.623497  -1.086821  -0.467483
H    -1.233400  0.575447  -0.649770
N    -1.788495  0.607359  1.862182
C    -2.236999  0.426392  3.249929
C    -3.602283  1.088919  3.383450
O    -3.874287  2.148378  2.761462
H    -2.544068  0.693229  1.186746
H    -2.320232  -0.652641  3.456149
C    -1.282968  0.991710  4.341064
C    -1.130329  2.510650  4.485521
C    -0.303542  3.239105  3.395878
C    -1.058832  4.303719  2.611203
N    -2.069715  3.708804  1.663499
H    -0.306656  0.519359  4.177889
H    -1.653545  0.597064  5.298597
H    -0.636643  2.675784  5.452125
H    -2.117214  2.988945  4.592952
H    0.160519  2.520143  2.704605
H    0.538685  3.763514  3.867321
H    -0.373997  4.916390  2.011404
H    -1.615431  4.972712  3.280181
H    -2.585265  4.440846  1.163698
H    -2.795857  3.050886  2.157681
H    -1.593211  3.122294  0.969600
N    -4.504372  0.552723  4.214557
C    -4.406769  -0.684071  4.987100
H    -5.361224  1.095179  4.296940
H    -4.150547  -1.537023  4.347122
H    -3.669783  -0.603718  5.796424
H    -5.384887  -0.880439  5.435063
