34
Energy: -18219.7096918 eV PBE+vdW (tier 2 basis)
C    0.239714  -0.448385  0.145532
C    0.246112  0.108323  1.550520
O    1.320890  0.514857  2.039360
H    0.678250  0.296281  -0.530193
H    -0.753653  -0.727405  -0.223543
H    0.890129  -1.331996  0.115254
N    -0.972669  0.120161  2.168516
C    -1.373623  0.540059  3.528947
C    -2.207648  1.841804  3.586931
O    -2.764238  2.125089  4.642842
H    -1.719452  -0.293936  1.619887
H    -2.034305  -0.243591  3.929033
C    -0.119230  0.665893  4.391221
C    -0.156307  0.962224  5.881261
C    1.296560  0.904836  6.399662
C    2.341102  1.663772  5.569150
N    2.825248  0.920125  4.325172
H    0.449910  1.474599  3.921525
H    0.437333  -0.273218  4.244299
H    -0.769239  0.239038  6.435539
H    -0.595110  1.950299  6.071068
H    1.622724  -0.144419  6.506132
H    1.346307  1.326834  7.413096
H    3.242356  1.845516  6.166737
H    1.966926  2.634405  5.218831
H    3.631291  1.405030  3.913196
H    2.107174  0.806403  3.540205
H    3.141629  -0.023748  4.577629
N    -2.237389  2.602522  2.464305
C    -2.971748  3.856828  2.385833
H    -1.741041  2.270853  1.645748
H    -3.468750  4.013579  3.348223
H    -3.728976  3.815853  1.592663
H    -2.293613  4.697689  2.190121
