34
Energy: -18219.8685386 eV PBE+vdW (tier 2 basis)
C    -2.241804  -1.549491  -0.484408
C    -1.092740  -0.727264  0.004848
O    0.012865  -0.759634  -0.593946
H    -3.091525  -1.562949  0.204588
H    -1.875261  -2.574974  -0.624398
H    -2.570589  -1.175798  -1.461228
N    -1.183115  -0.009246  1.156966
C    -2.281578  0.794678  1.690800
C    -3.377824  1.054221  0.633247
O    -3.101604  1.322537  -0.536182
H    -0.273521  0.334560  1.447925
H    -2.731403  0.277719  2.552884
C    -1.704452  2.169562  2.194876
C    -0.386596  2.655292  1.555199
C    -0.411626  2.825814  0.023051
C    0.931772  2.716764  -0.687247
N    1.565635  1.342418  -0.560061
H    -1.548945  2.100656  3.279766
H    -2.481626  2.931730  2.046098
H    0.436335  1.985487  1.868175
H    -0.128299  3.610692  2.034465
H    -0.814134  3.819204  -0.223277
H    -1.117645  2.121422  -0.438309
H    1.668328  3.444276  -0.320401
H    0.793935  2.890191  -1.760722
H    2.238014  1.189025  -1.319016
H    0.853405  0.476727  -0.571799
H    2.098334  1.265309  0.311946
N    -4.636762  1.014155  1.126946
C    -5.814359  1.343089  0.335643
H    -4.766742  0.756583  2.098970
H    -6.502065  0.488971  0.293009
H    -5.482832  1.588737  -0.677443
H    -6.341292  2.205444  0.763755
