34
Energy: -18219.208121 eV PBE+vdW (tier 2 basis)
C    -0.307882  -0.012038  -0.250894
C    -0.024081  0.007903  1.240536
O    1.115268  0.032102  1.691510
H    0.648792  0.044455  -0.776205
H    -0.931288  0.840782  -0.554117
H    -0.825403  -0.930400  -0.562298
N    -1.108806  0.030384  2.090821
C    -2.505284  -0.214107  1.785682
C    -3.328923  0.413211  2.925661
O    -3.017790  0.210407  4.100955
H    -0.881123  0.097121  3.081911
H    -2.760752  0.268634  0.831008
C    -2.845816  -1.728505  1.656075
C    -2.358529  -2.559206  2.846309
C    -2.600058  -4.063846  2.667949
C    -2.041732  -4.820904  3.860998
N    -2.244990  -6.327015  3.705148
H    -2.377982  -2.100617  0.731146
H    -3.934221  -1.836780  1.524296
H    -2.842425  -2.206115  3.768389
H    -1.279776  -2.383931  2.978586
H    -2.113257  -4.414579  1.741738
H    -3.679644  -4.266497  2.565722
H    -2.536032  -4.543646  4.800370
H    -0.960929  -4.672647  3.978049
H    -1.869411  -6.851901  4.506471
H    -1.778271  -6.672189  2.855225
H    -3.244919  -6.554737  3.618962
N    -4.403597  1.143547  2.537746
C    -5.293125  1.805732  3.480095
H    -4.534890  1.314404  1.547667
H    -6.333852  1.499663  3.313800
H    -5.221544  2.897271  3.386374
H    -4.985982  1.516307  4.489642
