34
Energy: -18219.6657498 eV PBE+vdW (tier 2 basis)
C    -0.178234  0.050665  1.185368
C    -1.416723  0.528229  1.887182
O    -1.460140  1.687751  2.375379
H    0.537184  0.875729  1.153953
H    0.267012  -0.790959  1.732666
H    -0.381198  -0.308120  0.168330
N    -2.485349  -0.290024  2.078738
C    -3.034145  -1.370276  1.235076
C    -1.945618  -2.257156  0.582355
O    -1.698223  -2.173096  -0.618315
H    -3.184354  0.155968  2.671594
H    -3.607949  -2.013265  1.918853
C    -4.011052  -0.813347  0.168512
C    -3.565574  0.495834  -0.508018
C    -4.190037  1.760063  0.119241
C    -3.401470  3.053699  -0.144937
N    -2.760408  3.573273  1.121812
H    -4.993018  -0.666895  0.643490
H    -4.143866  -1.598848  -0.584384
H    -3.831921  0.461729  -1.572528
H    -2.469015  0.568093  -0.497374
H    -4.298806  1.630615  1.207605
H    -5.215437  1.881698  -0.254175
H    -4.030200  3.858796  -0.541316
H    -2.584563  2.885671  -0.857191
H    -2.107988  4.340762  0.926570
H    -2.217329  2.787922  1.652178
H    -3.471053  3.936315  1.766627
N    -1.301751  -3.129123  1.401515
C    -1.548998  -3.394834  2.813507
H    -0.641680  -3.727818  0.912329
H    -1.546992  -2.469427  3.402713
H    -2.498300  -3.925946  2.978537
H    -0.741306  -4.029270  3.191117
