34
Energy: -18219.2682761 eV PBE+vdW (tier 2 basis)
C    -0.378243  2.841027  0.957603
C    -0.086656  1.686022  1.892453
O    0.722817  1.748600  2.805072
H    -0.081219  2.604383  -0.074664
H    0.198787  3.704868  1.296304
H    -1.445720  3.101002  0.942584
N    -0.799490  0.509708  1.683852
C    -1.752782  0.216410  0.629675
C    -3.188471  0.749812  0.864232
O    -3.969304  0.815448  -0.090163
H    -0.524216  -0.238574  2.316035
H    -1.430867  0.725481  -0.292504
C    -1.752958  -1.312372  0.391012
C    -2.759258  -1.874187  -0.626585
C    -2.722763  -1.271470  -2.040558
C    -1.386136  -1.330297  -2.754604
N    -0.949643  -2.782336  -2.965058
H    -1.947250  -1.810177  1.354045
H    -0.718174  -1.589540  0.123127
H    -3.780645  -1.725876  -0.254861
H    -2.629752  -2.972245  -0.657904
H    -3.016859  -0.212645  -1.972545
H    -3.494737  -1.748029  -2.666634
H    -0.572780  -0.859033  -2.188850
H    -1.424025  -0.879501  -3.753099
H    -1.633955  -3.284525  -3.546779
H    -0.899729  -3.272966  -2.061511
H    -0.030854  -2.852372  -3.420871
N    -3.485833  1.098826  2.132851
C    -4.777196  1.633716  2.533265
H    -2.731322  1.055936  2.811298
H    -4.673440  2.658116  2.913875
H    -5.230560  1.009340  3.313632
H    -5.428373  1.642096  1.653789
