34
Energy: -18219.7982828 eV PBE+vdW (tier 2 basis)
C    -0.571688  -1.672786  1.493735
C    -0.228308  -0.335050  2.074555
O    0.958910  -0.052113  2.380582
H    -1.187093  -2.244348  2.202401
H    0.353083  -2.219485  1.296191
H    -1.161172  -1.587791  0.571666
N    -1.207128  0.577516  2.303412
C    -2.518872  0.725078  1.641403
C    -3.408748  -0.547890  1.776829
O    -3.842764  -1.123462  0.786843
H    -0.873059  1.398854  2.800359
H    -3.022720  1.522345  2.210159
C    -2.421023  1.168510  0.173995
C    -1.582312  2.428522  -0.109700
C    -0.045137  2.210777  -0.163171
C    0.735402  2.949306  0.931613
N    1.932682  2.151233  1.385397
H    -3.451456  1.341248  -0.164173
H    -2.062309  0.330359  -0.440816
H    -1.827046  3.220869  0.616908
H    -1.908619  2.824200  -1.079043
H    0.167096  1.134345  -0.098185
H    0.342322  2.525432  -1.141146
H    0.127142  3.106480  1.831135
H    1.081625  3.934715  0.598310
H    2.512222  2.675609  2.049923
H    2.531271  1.892387  0.593146
H    1.574862  1.229474  1.873948
N    -3.647782  -0.933150  3.056802
C    -4.476534  -2.081814  3.394844
H    -3.255169  -0.382707  3.812286
H    -5.386621  -1.767853  3.922522
H    -3.923341  -2.788302  4.027008
H    -4.761168  -2.576441  2.461271
