34
Energy: -18219.1315812 eV PBE+vdW (tier 2 basis)
C    0.792815  -0.296187  0.547176
C    0.447653  0.318667  1.878062
O    1.126513  1.215507  2.385132
H    0.267331  0.228867  -0.260967
H    0.528896  -1.358134  0.485257
H    1.869676  -0.173289  0.397701
N    -0.634784  -0.146702  2.602139
C    -1.909196  -0.794577  2.287093
C    -2.137960  -1.042607  0.783264
O    -2.229526  -0.116154  -0.023721
H    -0.617314  0.252743  3.537534
H    -1.940211  -1.768345  2.806687
C    -3.051742  0.060080  2.900539
C    -3.507322  1.354816  2.191532
C    -2.479893  2.395818  1.704392
C    -1.553859  3.052873  2.710197
N    -2.343953  3.786426  3.797145
H    -2.745526  0.271248  3.940692
H    -3.940915  -0.580887  2.995208
H    -4.256877  1.830068  2.852164
H    -4.074989  1.076274  1.294873
H    -1.839831  1.924363  0.946448
H    -3.030933  3.183868  1.163589
H    -0.923491  3.814635  2.236650
H    -0.882919  2.356427  3.226744
H    -1.721942  4.229358  4.485293
H    -2.963782  3.135750  4.297020
H    -2.938670  4.518774  3.386583
N    -2.269029  -2.349492  0.447676
C    -2.528941  -2.796437  -0.912377
H    -2.151981  -3.048439  1.172233
H    -3.436529  -3.411979  -0.949870
H    -1.683970  -3.381059  -1.299574
H    -2.666162  -1.909507  -1.538082
