34
Energy: -18220.0536301 eV PBE+vdW (tier 2 basis)
C    -0.155501  2.527806  1.803430
C    0.103967  1.071531  2.109091
O    1.223499  0.571334  2.040858
H    0.699566  3.103146  2.173613
H    -1.078222  2.921815  2.245354
H    -0.194868  2.677573  0.715455
N    -0.957302  0.269857  2.483725
C    -2.389174  0.486047  2.371306
C    -3.062425  -0.743868  2.989101
O    -2.608473  -1.896056  2.790837
H    -0.665557  -0.641648  2.824877
H    -2.680428  1.375947  2.955048
C    -2.918263  0.708108  0.923426
C    -2.990372  -0.478921  -0.055769
C    -1.729656  -0.912138  -0.830442
C    -0.574976  -1.585216  -0.092423
N    -1.048111  -2.715104  0.792857
H    -2.335425  1.525453  0.475848
H    -3.939278  1.104082  1.032776
H    -3.459416  -1.346710  0.434562
H    -3.713672  -0.185726  -0.829947
H    -1.295193  -0.041506  -1.344862
H    -2.062076  -1.586067  -1.636388
H    -0.018389  -0.903350  0.558852
H    0.134356  -2.011062  -0.812668
H    -1.676779  -2.349729  1.597338
H    -0.249457  -3.200434  1.216568
H    -1.581437  -3.411237  0.259329
N    -4.168237  -0.523659  3.706844
C    -4.977997  -1.572524  4.316353
H    -4.435492  0.441498  3.871914
H    -4.903013  -1.527456  5.410085
H    -4.608042  -2.541608  3.972365
H    -6.027504  -1.453532  4.022646
