34
Energy: -18219.973308 eV PBE+vdW (tier 2 basis)
C    0.450125  0.635063  0.379957
C    0.279580  -0.053240  1.705984
O    1.253635  -0.631546  2.234066
H    1.160985  0.081496  -0.241112
H    0.877736  1.628475  0.580962
H    -0.491745  0.773488  -0.163822
N    -0.972935  -0.022126  2.234914
C    -1.348974  -0.034201  3.653508
C    -0.915093  1.333613  4.266327
O    0.074361  1.913711  3.833335
H    -1.624690  0.514204  1.669718
H    -2.446201  -0.115397  3.657272
C    -0.796914  -1.176412  4.528037
C    -1.273402  -2.601018  4.186354
C    -0.709297  -3.285397  2.929381
C    0.686947  -3.890970  3.049929
N    1.746809  -2.868162  3.389454
H    -1.141147  -0.959813  5.549563
H    0.294287  -1.078265  4.576091
H    -2.369481  -2.575869  4.091095
H    -1.078890  -3.245203  5.059875
H    -0.749400  -2.610061  2.064720
H    -1.365762  -4.130088  2.673279
H    0.984483  -4.341957  2.096004
H    0.723464  -4.673980  3.818419
H    2.675019  -3.171645  3.079395
H    1.803306  -2.711469  4.399997
H    1.513404  -1.897986  2.918311
N    -1.659175  1.812552  5.298755
C    -2.923788  1.309424  5.819472
H    -1.310945  2.692662  5.668570
H    -3.262448  1.988206  6.607853
H    -2.825788  0.310704  6.268449
H    -3.708416  1.279564  5.049814
