34
Energy: -18219.4702781 eV PBE+vdW (tier 2 basis)
C    0.183429  0.928613  1.188475
C    -0.097517  0.187123  2.458483
O    0.817856  -0.083737  3.278157
H    0.862955  1.755315  1.429950
H    0.724056  0.278296  0.485282
H    -0.714973  1.320355  0.702319
N    -1.363364  -0.210158  2.740315
C    -2.376568  -0.682120  1.790616
C    -3.660621  0.174634  1.664154
O    -4.073404  0.401931  0.531917
H    -1.480403  -0.534499  3.696993
H    -1.949581  -0.600393  0.784104
C    -2.670068  -2.173461  2.085232
C    -1.737394  -3.187644  1.391253
C    -0.202718  -3.047863  1.469749
C    0.541561  -3.492053  2.728711
N    0.394581  -2.586174  3.932809
H    -3.692349  -2.397654  1.750264
H    -2.690819  -2.321926  3.180030
H    -1.989017  -3.164234  0.320810
H    -2.020425  -4.197030  1.729710
H    0.131187  -2.043877  1.174937
H    0.204087  -3.704909  0.685766
H    1.617896  -3.524281  2.521000
H    0.229497  -4.497910  3.040514
H    1.049112  -2.871631  4.670024
H    -0.546347  -2.661718  4.330705
H    0.597132  -1.511285  3.709945
N    -4.310220  0.617838  2.776055
C    -3.998820  0.428329  4.183235
H    -5.130324  1.174091  2.549658
H    -3.773312  -0.622790  4.414694
H    -3.172095  1.068615  4.525992
H    -4.885407  0.688976  4.770171
