34
Energy: -18220.2417243 eV PBE+vdW (tier 2 basis)
C    -4.606579  -0.273221  0.635278
C    -3.586542  0.339835  1.556817
O    -3.102358  1.476274  1.303385
H    -5.440342  0.425873  0.494949
H    -4.991285  -1.235299  0.989217
H    -4.140195  -0.417464  -0.348473
N    -3.221237  -0.387928  2.616734
C    -2.207658  -0.075169  3.615982
C    -2.341363  -1.222036  4.650783
O    -3.350937  -1.931203  4.641109
H    -3.727814  -1.248154  2.859412
H    -1.215614  -0.121386  3.138997
C    -2.355914  1.324814  4.259555
C    -3.775155  1.675869  4.732420
C    -4.065448  3.185693  4.768106
C    -4.560892  3.803907  3.462686
N    -3.540646  3.793167  2.349237
H    -1.658691  1.396009  5.105015
H    -1.988097  2.046680  3.520711
H    -3.935749  1.257911  5.734813
H    -4.522891  1.182753  4.092653
H    -3.189749  3.744548  5.139067
H    -4.863596  3.384805  5.497818
H    -5.433289  3.260418  3.076367
H    -4.855486  4.848653  3.621562
H    -3.326696  2.780287  1.975322
H    -2.661054  4.225590  2.651869
H    -3.879972  4.330927  1.544002
N    -1.341785  -1.403283  5.544008
C    -0.054612  -0.730996  5.645117
H    -1.531026  -2.154539  6.202603
H    0.692566  -1.448040  6.002682
H    0.280851  -0.369956  4.666565
H    -0.080197  0.116223  6.346399
