34
Energy: -18220.4090227 eV PBE+vdW (tier 2 basis)
C    1.610733  0.517737  1.744081
C    0.789495  0.139596  2.954043
O    1.290871  0.096972  4.082771
H    2.465338  -0.166385  1.673240
H    2.014597  1.526444  1.897800
H    1.055884  0.495988  0.799187
N    -0.526092  -0.151520  2.697716
C    -1.556631  -0.552811  3.666637
C    -2.066196  0.694487  4.423783
O    -1.439754  1.242222  5.351999
H    -0.824205  -0.061705  1.733788
H    -2.397067  -0.911778  3.055556
C    -1.076875  -1.728236  4.551744
C    -1.735549  -1.914362  5.939023
C    -0.698811  -2.112835  7.062732
C    -0.117287  -0.851661  7.703710
N    0.490569  0.121387  6.732096
H    0.004890  -1.623238  4.670461
H    -1.209012  -2.639788  3.954862
H    -2.386702  -2.796749  5.915737
H    -2.396914  -1.072603  6.193098
H    0.119011  -2.752714  6.695169
H    -1.157199  -2.669555  7.892905
H    0.654411  -1.126221  8.433272
H    -0.899083  -0.292375  8.234664
H    1.016387  0.851282  7.221891
H    -0.274800  0.603036  6.136890
H    1.115053  -0.290414  6.019015
N    -3.240802  1.181079  3.985862
C    -3.871625  2.384756  4.512204
H    -3.703426  0.697962  3.223861
H    -4.915203  2.176901  4.775246
H    -3.841672  3.193962  3.771220
H    -3.324812  2.698674  5.405186
