34
Energy: -18219.827711 eV PBE+vdW (tier 2 basis)
C    -0.494241  -1.418936  -0.184919
C    -0.997134  -0.197702  0.546146
O    -0.811257  0.944007  0.057246
H    -0.846139  -1.391690  -1.223196
H    0.602741  -1.375076  -0.215261
H    -0.796543  -2.364248  0.277977
N    -1.633112  -0.450515  1.712930
C    -2.045270  0.446318  2.793433
C    -2.100591  -0.465616  4.046525
O    -2.143612  -1.689104  3.910843
H    -1.696547  -1.424624  2.036259
H    -1.272513  1.222657  2.919839
C    -3.410958  1.156590  2.549300
C    -3.288107  1.795407  1.176356
C    -4.213198  2.842465  0.573481
C    -3.803954  2.983937  -0.900986
N    -2.287759  2.991262  -1.080096
H    -3.570687  1.900699  3.343185
H    -4.235040  0.431400  2.602767
H    -3.244361  0.958663  0.463204
H    -2.283644  2.235701  1.181693
H    -4.136243  3.806855  1.097077
H    -5.273299  2.552555  0.590448
H    -4.156203  2.122270  -1.481578
H    -4.187082  3.898107  -1.369013
H    -1.792844  2.140080  -0.647760
H    -2.046509  3.018076  -2.077033
H    -1.867913  3.822687  -0.646968
N    -2.133187  0.173763  5.235209
C    -2.233139  -0.523211  6.511139
H    -2.042406  1.183256  5.246385
H    -3.106450  -0.172118  7.074848
H    -1.328678  -0.366335  7.112765
H    -2.342973  -1.591504  6.304206
