34
Energy: -18219.546227 eV PBE+vdW (tier 2 basis)
C    1.455790  0.584667  1.817267
C    0.455485  -0.443463  2.298842
O    0.783844  -1.512774  2.801969
H    1.002675  1.538183  1.519549
H    1.996506  0.168783  0.957044
H    2.194467  0.761060  2.607749
N    -0.871712  -0.105188  2.142388
C    -1.919166  -1.079096  2.387405
C    -3.146151  -0.639365  1.583322
O    -3.389420  0.560716  1.379224
H    -1.141982  0.710652  1.600118
H    -1.566079  -2.061796  2.034623
C    -2.221034  -1.249650  3.902604
C    -2.628212  0.032878  4.641542
C    -4.127271  0.414585  4.548392
C    -4.393449  1.792311  3.965505
N    -3.712736  2.865925  4.810363
H    -1.295486  -1.642015  4.342853
H    -2.987750  -2.027904  4.035887
H    -1.983770  0.838659  4.238865
H    -2.348039  -0.074071  5.697690
H    -4.611961  0.322188  5.532954
H    -4.664406  -0.288240  3.896223
H    -5.458910  2.049807  3.944429
H    -3.972374  1.871544  2.953657
H    -3.806015  3.799704  4.392168
H    -2.708509  2.648489  4.891727
H    -4.100819  2.900408  5.762281
N    -3.955231  -1.629778  1.154198
C    -5.169536  -1.374189  0.390030
H    -3.648808  -2.588380  1.273431
H    -5.652447  -2.329764  0.167024
H    -4.940433  -0.856722  -0.550331
H    -5.865429  -0.748741  0.963611
