34
Energy: -18220.0060396 eV PBE+vdW (tier 2 basis)
C    0.129245  -1.018013  0.668515
C    0.055181  -0.481588  2.081754
O    1.025947  -0.365083  2.808538
H    -0.359345  -0.357279  -0.060858
H    -0.351105  -2.005237  0.600550
H    1.183502  -1.129839  0.403693
N    -1.203968  -0.089495  2.550308
C    -2.493226  -0.333167  1.923035
C    -2.848984  0.758673  0.891048
O    -3.721945  0.577766  0.003535
H    -1.196899  0.110963  3.548482
H    -2.457549  -1.271459  1.345527
C    -3.554916  -0.506692  3.039620
C    -4.924290  -1.063335  2.619578
C    -5.945305  -0.014017  2.124166
C    -6.782738  -0.459449  0.932092
N    -5.892161  -0.796968  -0.251063
H    -3.681258  0.445844  3.578618
H    -3.105259  -1.209703  3.754909
H    -5.354876  -1.594346  3.478457
H    -4.756765  -1.848619  1.863976
H    -6.643559  0.240154  2.933026
H    -5.442652  0.926133  1.861175
H    -7.455775  0.342210  0.607953
H    -7.392599  -1.343581  1.154776
H    -4.925294  -0.274555  -0.149862
H    -6.327314  -0.528656  -1.138310
H    -5.701392  -1.801298  -0.302256
N    -2.162206  1.895309  0.988224
C    -2.323746  3.047522  0.115253
H    -1.429843  1.897800  1.697668
H    -1.375636  3.276949  -0.386417
H    -2.638208  3.924021  0.695581
H    -3.083755  2.816594  -0.635930
