34
Energy: -18218.8918748 eV PBE+vdW (tier 2 basis)
C    -0.416501  0.613676  -1.198170
C    -0.342930  -0.376645  -0.055550
O    0.353512  -1.381108  -0.137454
H    -0.115978  1.623248  -0.892996
H    -1.424748  0.673862  -1.628379
H    0.267880  0.258425  -1.972803
N    -1.042890  -0.171262  1.129005
C    -2.061901  0.738359  1.647838
C    -3.396980  0.033341  2.005778
O    -3.934455  0.314878  3.089956
H    -0.827028  -0.935354  1.767210
H    -1.700032  1.042772  2.642186
C    -2.317903  2.022400  0.835627
C    -3.401049  2.965522  1.386247
C    -3.076071  3.810843  2.635233
C    -2.940922  3.022324  3.934713
N    -3.173820  3.936996  5.136886
H    -2.624473  1.756974  -0.183558
H    -1.367652  2.568108  0.738140
H    -4.333849  2.411711  1.565730
H    -3.628798  3.684578  0.587192
H    -3.907275  4.528909  2.745688
H    -2.168621  4.411397  2.461284
H    -1.939743  2.601420  4.080776
H    -3.660580  2.194036  4.004252
H    -3.070242  3.423639  6.022157
H    -4.123762  4.331649  5.113237
H    -2.513215  4.726193  5.148833
N    -3.969906  -0.847476  1.155705
C    -3.553769  -1.303240  -0.167473
H    -4.820585  -1.253679  1.536554
H    -4.402438  -1.822918  -0.623456
H    -2.704101  -1.995932  -0.124155
H    -3.296434  -0.462480  -0.821568
