34
Energy: -18219.7506191 eV PBE+vdW (tier 2 basis)
C    0.426887  -2.103403  0.797043
C    -0.060674  -1.903263  2.210312
O    -0.052498  -2.808135  3.051531
H    -0.139881  -2.922387  0.337679
H    1.477916  -2.416810  0.831765
H    0.342704  -1.208701  0.169204
N    -0.509934  -0.647933  2.526120
C    -0.947016  -0.312207  3.880029
C    -2.428807  -0.741526  4.084503
O    -3.352004  0.087764  4.127958
H    -0.610687  0.043861  1.791706
H    -0.323018  -0.928055  4.547439
C    -0.723487  1.175800  4.169561
C    -0.437714  1.522129  5.642305
C    -1.519687  1.219056  6.696604
C    -2.887740  1.845458  6.465570
N    -2.784865  3.356706  6.279264
H    -1.592460  1.733197  3.781751
H    0.151149  1.504963  3.591341
H    -0.154232  2.589298  5.695024
H    0.473225  0.993367  5.959167
H    -1.134826  1.504609  7.688745
H    -1.703113  0.135922  6.756098
H    -3.558939  1.691421  7.318396
H    -3.351021  1.448834  5.548528
H    -2.356367  3.816765  7.093588
H    -3.710989  3.774854  6.126616
H    -2.203537  3.574287  5.458961
N    -2.587146  -2.073021  4.191957
C    -3.884998  -2.723526  4.266851
H    -1.745667  -2.638803  4.025243
H    -3.910716  -3.424931  5.110073
H    -4.098367  -3.278397  3.343073
H    -4.654248  -1.958064  4.405448
