34
Energy: -18220.3834534 eV PBE+vdW (tier 2 basis)
C    -1.141718  -0.899272  0.089271
C    -1.216168  0.132369  1.189531
O    -0.294076  0.904585  1.447216
H    -0.421301  -1.674358  0.383098
H    -0.751295  -0.422923  -0.817154
H    -2.101155  -1.379266  -0.135801
N    -2.398840  0.175510  1.894469
C    -2.606044  1.041011  3.055771
C    -2.062784  2.465867  2.792310
O    -1.381445  3.100361  3.629723
H    -3.110535  -0.517951  1.692870
H    -3.697571  1.172704  3.137395
C    -2.135894  0.454515  4.396919
C    -0.652683  0.044694  4.472211
C    -0.015787  0.194755  5.861009
C    -0.006730  1.618771  6.416884
N    0.460126  2.609896  5.382225
H    -2.771336  -0.412578  4.627115
H    -2.382745  1.205306  5.162016
H    -0.072107  0.610849  3.731200
H    -0.543413  -1.002748  4.160816
H    1.018445  -0.180573  5.819422
H    -0.532568  -0.432909  6.602574
H    0.649773  1.695544  7.291685
H    -1.006934  1.954837  6.716284
H    1.336319  2.309680  4.940900
H    0.623694  3.532220  5.798665
H    -0.307015  2.733812  4.604561
N    -2.488911  3.050791  1.668257
C    -2.050997  4.374378  1.246338
H    -2.993487  2.474614  1.003362
H    -2.692689  4.713103  0.427949
H    -1.007242  4.351638  0.903349
H    -2.133568  5.077333  2.081806
