34
Energy: -18219.6055823 eV PBE+vdW (tier 2 basis)
C    -0.063831  -0.485283  0.417427
C    -0.100113  -0.722926  1.897731
O    0.931979  -1.076758  2.523551
H    -0.888856  0.132887  0.050540
H    -0.081144  -1.449052  -0.114196
H    0.895276  -0.012979  0.176052
N    -1.269404  -0.557688  2.563849
C    -2.592029  -0.874062  2.006306
C    -3.499800  0.321578  1.632758
O    -4.068046  0.284463  0.545999
H    -1.170735  -0.629285  3.573617
H    -2.420818  -1.343122  1.031329
C    -3.331664  -1.897768  2.910692
C    -2.427245  -2.957189  3.569719
C    -1.508239  -3.732224  2.607331
C    -0.255527  -4.334894  3.239010
N    0.644563  -3.297916  3.887044
H    -4.096787  -2.376484  2.284649
H    -3.879326  -1.373191  3.706489
H    -3.066200  -3.663614  4.118242
H    -1.830395  -2.461381  4.355026
H    -1.199407  -3.103373  1.762002
H    -2.063513  -4.565684  2.153848
H    0.351792  -4.833833  2.475052
H    -0.499613  -5.074388  4.012644
H    1.585069  -3.681691  4.030214
H    0.292315  -3.037666  4.813620
H    0.755947  -2.357031  3.314037
N    -3.672437  1.347438  2.511374
C    -3.077279  1.567382  3.820205
H    -4.284656  2.072414  2.147241
H    -3.641279  2.357868  4.325613
H    -2.026783  1.886992  3.759039
H    -3.147411  0.674553  4.457489
