34
Energy: -18219.361688 eV PBE+vdW (tier 2 basis)
C    -0.348425  -2.074127  1.116665
C    -0.508478  -1.264137  2.386102
O    -0.184244  -1.672992  3.497134
H    0.114238  -3.032309  1.365247
H    -1.322731  -2.259271  0.643377
H    0.282833  -1.548876  0.386796
N    -1.067946  -0.015744  2.214686
C    -1.277641  0.885790  3.334407
C    -2.725156  1.427943  3.318813
O    -2.957443  2.619862  3.087561
H    -1.318333  0.295716  1.282320
H    -1.116372  0.258885  4.226538
C    -0.270065  2.042125  3.340787
C    -0.307699  2.850915  4.643927
C    0.302499  4.246537  4.462720
C    0.183714  5.066470  5.734280
N    0.705448  6.485802  5.510879
H    -0.501110  2.703453  2.492757
H    0.732204  1.621575  3.179397
H    0.218429  2.306432  5.443707
H    -1.353475  2.974108  4.960457
H    -0.236503  4.753705  3.644490
H    1.360762  4.165734  4.161731
H    -0.858477  5.176632  6.059335
H    0.770614  4.654456  6.564637
H    1.693288  6.470061  5.222847
H    0.175909  6.949895  4.759962
H    0.631161  7.066267  6.356875
N    -3.723314  0.541208  3.567242
C    -3.634380  -0.892800  3.804571
H    -4.650281  0.947940  3.475570
H    -3.653125  -1.469287  2.867796
H    -4.486007  -1.201624  4.420869
H    -2.716912  -1.150284  4.345082
