34
Energy: -18218.8015679 eV PBE+vdW (tier 2 basis)
C    -0.003715  0.786752  1.592772
C    -0.264923  -0.633885  2.036873
O    0.587916  -1.373055  2.483170
H    -0.075282  0.879537  0.498964
H    -0.700432  1.507586  2.043124
H    1.015672  1.047711  1.888711
N    -1.595408  -1.109571  1.961972
C    -2.636476  -0.567816  1.113467
C    -3.921584  -0.429749  1.919762
O    -5.091054  -0.285892  1.339560
H    -1.620580  -2.120102  2.104907
H    -2.367566  0.483584  0.906127
C    -2.789527  -1.247696  -0.271612
C    -2.917674  -2.775804  -0.354030
C    -4.229826  -3.417584  0.123497
C    -4.287645  -3.745581  1.616665
N    -5.549937  -4.375011  1.958450
H    -1.892579  -0.944334  -0.830702
H    -3.616699  -0.771144  -0.834411
H    -2.060973  -3.248414  0.154387
H    -2.776695  -3.024236  -1.414897
H    -4.388870  -4.359029  -0.419516
H    -5.090624  -2.782130  -0.155196
H    -3.481359  -4.457992  1.850768
H    -4.060664  -2.832977  2.217824
H    -6.348115  -3.749707  1.857348
H    -5.558400  -4.760028  2.900561
H    -5.002561  -0.424018  0.375002
N    -3.859255  -0.333021  3.218171
C    -4.970378  -0.127821  4.144147
H    -2.910959  -0.482045  3.579818
H    -4.768610  0.758412  4.756759
H    -5.062053  -1.003085  4.798750
H    -5.898476  0.015351  3.586276
