34
Energy: -18219.5796864 eV PBE+vdW (tier 2 basis)
C    1.035846  -1.072290  0.971418
C    -0.372537  -0.650216  0.722579
O    -0.868003  -0.828745  -0.434916
H    1.140263  -2.139814  0.739291
H    1.686420  -0.527660  0.273153
H    1.370520  -0.881697  1.995951
N    -1.072579  -0.104927  1.727142
C    -2.317810  0.693766  1.657678
C    -3.453467  -0.033746  0.943729
O    -3.252746  -0.675482  -0.125893
H    -0.566434  -0.009876  2.601493
H    -2.603205  0.848075  2.705928
C    -2.113465  2.079905  0.986718
C    -1.429774  3.138784  1.860671
C    0.015413  2.861280  2.288883
C    0.724700  4.095504  2.891599
N    0.188020  4.655237  4.121934
H    -3.107220  2.453551  0.695083
H    -1.565684  1.930572  0.043909
H    -2.052894  3.327236  2.750260
H    -1.446027  4.077278  1.283420
H    0.602219  2.515117  1.420139
H    0.053831  2.053046  3.042027
H    1.777735  3.833606  3.071881
H    0.738825  4.896167  2.135320
H    0.186655  3.991157  4.894498
H    -0.748591  5.039822  4.018572
H    -2.015998  -0.727930  -0.395869
N    -4.692656  0.080109  1.417353
C    -5.143626  0.802768  2.605705
H    -5.399162  -0.371340  0.838856
H    -6.225314  0.668793  2.690642
H    -4.939330  1.878368  2.527315
H    -4.682723  0.402546  3.517704
