34
Energy: -18219.1057151 eV PBE+vdW (tier 2 basis)
C    0.109491  0.302785  0.047611
C    -0.158980  -0.595741  1.236761
O    0.465907  -1.628998  1.428886
H    0.438978  -0.330599  -0.781801
H    0.940012  0.981133  0.288865
H    -0.748719  0.905013  -0.270992
N    -1.164150  -0.235124  2.130807
C    -1.884045  1.027641  2.264413
C    -2.908099  1.309142  1.127114
O    -3.260617  2.463406  0.881725
H    -1.218453  -0.888180  2.908043
H    -2.513917  0.889798  3.158564
C    -0.963538  2.252618  2.496268
C    -1.618587  3.438096  3.223481
C    -1.989516  3.216133  4.698706
C    -0.821587  2.907402  5.625425
N    0.190386  4.049029  5.596065
H    -0.072284  1.888768  3.034743
H    -0.605072  2.619739  1.526543
H    -2.527089  3.715923  2.673427
H    -0.961492  4.323590  3.120560
H    -2.691575  2.375176  4.801020
H    -2.538292  4.091866  5.080980
H    -1.128160  2.794729  6.671798
H    -0.265093  2.011720  5.323355
H    0.476489  4.234211  4.623300
H    -0.224480  4.917757  5.959877
H    1.031045  3.840301  6.149358
N    -3.391937  0.209065  0.509204
C    -4.387644  0.265486  -0.548424
H    -2.982889  -0.684282  0.763712
H    -3.965148  -0.069471  -1.505347
H    -5.249654  -0.366514  -0.300132
H    -4.717836  1.304016  -0.648693
