34
Energy: -18219.830937 eV PBE+vdW (tier 2 basis)
C    -1.888686  1.423565  0.080191
C    -1.441631  0.792980  1.374679
O    -0.826260  -0.268934  1.428166
H    -1.011157  1.582558  -0.558469
H    -2.416415  2.375765  0.210688
H    -2.545104  0.720031  -0.447435
N    -1.786477  1.471335  2.530005
C    -1.275970  1.010811  3.799602
C    -2.261290  0.449384  4.831099
O    -1.800434  0.136658  5.963911
H    -2.174036  2.405105  2.454277
H    -0.710620  0.107219  3.499267
C    -0.315809  2.026702  4.464898
C    1.187072  1.795620  4.204757
C    1.727471  0.347949  4.131387
C    1.297079  -0.708612  5.171837
N    0.737180  -0.147547  6.457262
H    -0.518045  2.047642  5.541808
H    -0.575764  3.034909  4.112804
H    1.746436  2.365692  4.963259
H    1.468376  2.258301  3.248721
H    2.822715  0.424051  4.147876
H    1.476152  -0.078290  3.150048
H    2.144812  -1.353020  5.428818
H    0.502151  -1.354263  4.780443
H    1.254160  0.677256  6.776585
H    0.778926  -0.845832  7.206595
H    -0.331271  0.092695  6.289651
N    -3.556070  0.213101  4.588079
C    -4.372598  0.365563  3.382284
H    -4.016044  -0.213213  5.389729
H    -5.364276  -0.035440  3.612795
H    -3.959669  -0.200349  2.540862
H    -4.490069  1.416426  3.096988
