34
Energy: -18218.8396325 eV PBE+vdW (tier 2 basis)
C    1.070442  0.483605  0.551238
C    0.527185  0.307396  1.947048
O    1.183982  0.543044  2.960325
H    2.140208  0.253340  0.547345
H    0.953588  1.539464  0.267636
H    0.555263  -0.132169  -0.195785
N    -0.775242  -0.132114  2.035446
C    -1.509795  -0.035731  3.290679
C    -1.344317  1.393321  3.897430
O    -1.766502  2.317083  3.214462
H    -1.325341  -0.124405  1.183857
H    -2.568204  0.004632  2.999217
C    -1.381220  -1.295092  4.198800
C    -0.048733  -2.054418  4.169728
C    -0.028406  -3.400127  4.909362
C    -0.138962  -3.336783  6.427182
N    -1.570664  -3.044880  6.869962
H    -2.182065  -1.990898  3.894779
H    -1.640167  -0.932608  5.213327
H    0.769721  -1.420807  4.532550
H    0.190045  -2.259919  3.117479
H    0.931756  -3.895689  4.703454
H    -0.796489  -4.087376  4.511918
H    0.476782  -2.533774  6.852354
H    0.134941  -4.283559  6.907500
H    -1.646963  -2.930403  7.888762
H    -2.202787  -3.804845  6.586180
H    -1.904547  -2.179354  6.412261
N    -0.927406  1.609819  5.191102
C    0.118868  0.921051  5.936404
H    -1.014115  2.601931  5.401026
H    0.908872  0.562166  5.266268
H    -0.272682  0.081610  6.538873
H    0.563156  1.632628  6.640046
