34
Energy: -18219.8456052 eV PBE+vdW (tier 2 basis)
C    0.107485  0.156435  0.895831
C    -0.401635  -0.094311  2.301592
O    0.366805  -0.156704  3.249756
H    0.435754  -0.802067  0.468861
H    0.989778  0.798917  0.973456
H    -0.610205  0.603084  0.200837
N    -1.750669  -0.348332  2.520213
C    -2.950650  -0.140034  1.714744
C    -2.795633  -0.564676  0.244474
O    -3.031870  0.214430  -0.713306
H    -1.920744  -0.535104  3.506620
H    -3.692363  -0.854500  2.114976
C    -3.581511  1.256425  1.870072
C    -2.664298  2.443160  1.531325
C    -3.401973  3.695411  1.033556
C    -4.267233  3.483582  -0.208266
N    -3.522680  2.724163  -1.279224
H    -3.927240  1.349942  2.909167
H    -4.496134  1.263292  1.258536
H    -1.918934  2.147056  0.779410
H    -2.071733  2.718270  2.413236
H    -2.666531  4.489647  0.833447
H    -4.065575  4.092541  1.815966
H    -4.592467  4.440841  -0.632367
H    -5.163805  2.889995  0.006351
H    -4.078446  2.656180  -2.138595
H    -3.296435  1.705787  -0.955816
H    -2.642126  3.192050  -1.522166
N    -2.447265  -1.832297  -0.015258
C    -2.184768  -2.923287  0.918263
H    -2.365781  -2.036138  -1.008614
H    -2.304525  -3.867810  0.378729
H    -2.900870  -2.913441  1.747754
H    -1.169034  -2.873528  1.330502
