34
Energy: -18219.1347883 eV PBE+vdW (tier 2 basis)
C    0.372175  -0.741272  0.624631
C    0.115090  0.209895  1.736437
O    1.134236  0.785385  2.360646
H    0.712125  -1.702138  1.040550
H    1.164571  -0.350805  -0.027897
H    -0.520497  -0.930988  0.023804
N    -1.052434  0.540367  2.195207
C    -2.399622  0.156154  1.767509
C    -3.218377  1.427693  2.136970
O    -2.735507  2.196258  2.976987
H    -1.145024  1.297500  2.913593
H    -2.401458  -0.031035  0.685605
C    -2.964631  -1.061073  2.534497
C    -2.229616  -2.399534  2.347068
C    -1.108483  -2.676271  3.355947
C    -0.370670  -3.988475  3.079846
N    0.570287  -4.290690  4.153650
H    -4.005384  -1.169240  2.199463
H    -3.017878  -0.801407  3.602744
H    -1.860775  -2.488659  1.311463
H    -2.975088  -3.202355  2.445993
H    -1.531603  -2.726843  4.370283
H    -0.377784  -1.850312  3.390017
H    0.086014  -3.945540  2.065094
H    -1.105085  -4.807209  3.040870
H    1.986892  0.524532  1.968760
H    1.386111  -3.679157  4.131938
H    0.913527  -5.247721  4.089382
N    -4.418557  1.623740  1.564072
C    -5.118196  0.804257  0.583589
H    -4.904326  2.444199  1.920256
H    -5.687415  1.458858  -0.085264
H    -5.815764  0.101229  1.060564
H    -4.411909  0.238655  -0.033303
