34
Energy: -18220.1754985 eV PBE+vdW (tier 2 basis)
C    1.196196  2.221751  1.275599
C    0.958655  0.852642  1.853187
O    1.815705  -0.061287  1.733722
H    2.111801  2.646216  1.707907
H    0.366277  2.915056  1.447170
H    1.365444  2.121907  0.195795
N    -0.199829  0.659196  2.495417
C    -0.735933  -0.608844  2.978578
C    -2.234320  -0.554780  2.575066
O    -2.782744  0.538072  2.430394
H    -0.941107  1.366959  2.429658
H    -0.219954  -1.426337  2.454396
C    -0.634349  -0.784491  4.523441
C    0.564413  -1.572369  5.070939
C    1.957279  -0.943126  4.825334
C    2.853469  -1.817638  3.943953
N    3.773014  -0.963314  3.108992
H    -1.544094  -1.299029  4.864884
H    -0.673251  0.216465  4.977796
H    0.542093  -2.594422  4.659379
H    0.407924  -1.696173  6.150479
H    2.462975  -0.751249  5.781152
H    1.830331  0.037179  4.346789
H    2.260182  -2.384603  3.217985
H    3.458029  -2.522149  4.527421
H    4.418728  -1.526422  2.545312
H    4.330810  -0.323228  3.683795
H    3.110328  -0.408411  2.448344
N    -2.853770  -1.748303  2.447826
C    -4.275661  -1.880282  2.156768
H    -2.303909  -2.593066  2.555121
H    -4.798046  -2.382783  2.981027
H    -4.428914  -2.450362  1.232089
H    -4.688062  -0.875103  2.030776
