34
Energy: -18219.7334483 eV PBE+vdW (tier 2 basis)
C    -0.420586  -1.114132  -0.258586
C    -0.438308  -0.361345  1.038039
O    0.639979  -0.025658  1.592748
H    0.614755  -1.380769  -0.484455
H    -0.821848  -0.500823  -1.077853
H    -1.038381  -2.018153  -0.204827
N    -1.610246  -0.080020  1.675817
C    -2.898802  0.388413  1.124296
C    -3.291684  -0.266650  -0.218905
O    -3.184968  0.351279  -1.275737
H    -1.430764  0.304212  2.603720
H    -3.661830  0.106240  1.865428
C    -2.881246  1.929186  1.032092
C    -1.721906  2.550768  0.224076
C    -1.005797  3.713902  0.929919
C    -0.195868  3.387897  2.183402
N    1.024474  2.536973  1.903228
H    -2.866376  2.301906  2.069952
H    -3.843779  2.255506  0.617482
H    -2.106758  2.914234  -0.735050
H    -0.986726  1.783839  -0.059164
H    -1.745483  4.470121  1.235169
H    -0.348373  4.231942  0.212112
H    -0.782280  2.843066  2.934767
H    0.159230  4.314241  2.650620
H    0.808272  1.463490  1.810532
H    1.708933  2.624322  2.662448
H    1.492049  2.842143  1.041624
N    -3.773336  -1.535301  -0.156214
C    -4.010386  -2.353031  1.027476
H    -4.076410  -1.897804  -1.056391
H    -3.132863  -2.368431  1.686046
H    -4.199200  -3.381492  0.704318
H    -4.886405  -2.013819  1.600348
