34
Energy: -18220.0682116 eV PBE+vdW (tier 2 basis)
C    -0.124699  0.451177  0.109074
C    -0.106240  0.540838  1.609384
O    0.986305  0.602215  2.218242
H    0.410678  1.312962  -0.308240
H    -1.134336  0.413857  -0.314595
H    0.424398  -0.448952  -0.195649
N    -1.302421  0.547444  2.237276
C    -1.468685  0.573455  3.688536
C    -2.299421  -0.585364  4.288595
O    -1.804856  -1.196060  5.233907
H    -2.128187  0.531932  1.649387
H    -0.481838  0.331211  4.089276
C    -1.889934  1.958995  4.221467
C    -0.704225  2.927282  4.344165
C    0.245195  2.601209  5.526934
C    1.716098  2.381173  5.186306
N    1.972866  1.019586  4.587887
H    -2.365126  1.831319  5.205208
H    -2.656426  2.389494  3.561331
H    -1.095704  3.943994  4.475875
H    -0.148596  2.952141  3.393817
H    -0.124860  1.729456  6.092860
H    0.221687  3.430111  6.246660
H    2.339784  2.457977  6.085486
H    2.079668  3.115860  4.456598
H    2.973744  0.880491  4.409243
H    1.457491  0.861313  3.631479
H    1.674949  0.278917  5.234455
N    -3.541392  -0.867316  3.813978
C    -4.295982  -0.227535  2.748078
H    -3.976144  -1.653979  4.289239
H    -4.142112  0.858731  2.741337
H    -5.364422  -0.389467  2.925568
H    -4.061390  -0.642460  1.753988
