34
Energy: -18218.9784967 eV PBE+vdW (tier 2 basis)
C    -0.237067  0.219290  0.723190
C    -0.977155  1.325322  1.431807
O    -0.470825  2.446976  1.577609
H    0.146845  -0.484351  1.474523
H    -0.857491  -0.369489  0.036831
H    0.600381  0.662774  0.178240
N    -2.225766  1.098928  1.965999
C    -3.271267  0.120749  1.667560
C    -2.700210  -1.319371  1.555571
O    -1.927690  -1.725227  2.413348
H    -2.505306  1.860437  2.578946
H    -3.874000  0.048208  2.587068
C    -4.222852  0.645270  0.560961
C    -3.560225  1.068556  -0.772893
C    -3.621072  2.571604  -1.117025
C    -2.914728  3.462796  -0.103942
N    -2.775739  4.887760  -0.629627
H    -4.772191  1.497563  0.991884
H    -5.009715  -0.102151  0.380414
H    -4.043496  0.544513  -1.607915
H    -2.510015  0.748745  -0.796501
H    -4.673230  2.885234  -1.220542
H    -3.152306  2.704444  -2.106651
H    -1.891787  3.145546  0.141843
H    -3.465415  3.552123  0.839306
H    -2.287760  5.480866  0.055561
H    -3.688567  5.316707  -0.832938
H    -2.225855  4.903068  -1.499251
N    -3.134503  -2.073412  0.508330
C    -2.771062  -3.475889  0.359480
H    -3.819917  -1.689751  -0.128889
H    -2.364844  -3.664238  -0.642140
H    -2.007495  -3.703809  1.109242
H    -3.637718  -4.130051  0.524173
