34
Energy: -18218.7043538 eV PBE+vdW (tier 2 basis)
C    0.160876  2.251832  0.226643
C    0.563379  1.223512  1.258625
O    1.725134  1.067895  1.607121
H    -0.432836  3.061796  0.673538
H    1.078662  2.686685  -0.177536
H    -0.417872  1.793119  -0.582601
N    -0.412786  0.446969  1.896895
C    -1.809397  0.169616  1.590552
C    -2.000400  -0.622261  0.267272
O    -1.294308  -0.409879  -0.708622
H    0.053696  -0.275483  2.439887
H    -2.143211  -0.476579  2.418999
C    -2.724686  1.416087  1.566502
C    -2.510295  2.411977  2.715601
C    -2.562000  1.847399  4.145491
C    -3.919335  1.272532  4.512713
N    -3.931161  0.847355  5.979709
H    -3.770119  1.069357  1.535071
H    -2.576969  1.956233  0.622286
H    -3.246338  3.225008  2.618658
H    -1.525138  2.882556  2.609110
H    -2.315729  2.665130  4.842841
H    -1.779395  1.080305  4.265028
H    -4.178864  0.375259  3.937328
H    -4.729568  2.004901  4.404056
H    -4.836744  0.451355  6.265562
H    -3.730761  1.651509  6.590819
H    -3.203863  0.141765  6.161607
N    -3.015032  -1.539554  0.233732
C    -3.890970  -1.970205  1.307620
H    -3.103088  -2.004350  -0.665683
H    -3.335820  -2.402481  2.154688
H    -4.537213  -1.155961  1.675078
H    -4.552786  -2.752183  0.921862
