34
Energy: -18219.4115619 eV PBE+vdW (tier 2 basis)
C    -0.698563  -0.154751  -0.538570
C    -0.288306  -0.406410  0.897600
O    0.853074  -0.755983  1.191006
H    -1.739725  0.165344  -0.662873
H    -0.537246  -1.075351  -1.113012
H    -0.037948  0.610328  -0.964741
N    -1.285919  -0.174153  1.827905
C    -1.300447  -0.527380  3.251581
C    -2.093284  0.471806  4.130687
O    -2.340679  0.157536  5.292332
H    -2.212812  -0.071764  1.425475
H    -1.831898  -1.485166  3.376918
C    0.090444  -0.694439  3.892812
C    0.924177  0.597489  3.961181
C    2.435211  0.379672  4.110385
C    2.878958  -0.362556  5.363598
N    2.557813  -1.851655  5.262705
H    0.622535  -1.464130  3.316068
H    -0.145670  -1.055333  4.911972
H    0.555421  1.229397  4.783371
H    0.779611  1.170634  3.036783
H    2.939949  1.356190  4.141917
H    2.828674  -0.127435  3.213211
H    2.365301  -0.004901  6.265383
H    3.961262  -0.298741  5.526319
H    1.550030  -1.974021  5.062931
H    2.793368  -2.360182  6.124004
H    3.072500  -2.281248  4.482659
N    -2.438145  1.648491  3.554551
C    -3.163078  2.690986  4.264651
H    -2.093405  1.832641  2.618363
H    -2.521779  3.562412  4.454189
H    -3.493456  2.278217  5.222753
H    -4.038320  3.012262  3.687003
