34
Energy: -18219.1952932 eV PBE+vdW (tier 2 basis)
C    0.276235  0.355819  -0.096243
C    0.204779  0.685389  1.376919
O    1.016238  1.454819  1.901225
H    -0.693872  0.223480  -0.586894
H    0.843570  1.145543  -0.596802
H    0.829576  -0.586643  -0.215454
N    -0.731068  0.057826  2.180073
C    -2.099306  -0.400641  1.892814
C    -2.218509  -1.270774  0.615972
O    -3.002063  -0.976232  -0.283229
H    -0.565988  0.292024  3.157776
H    -2.356768  -1.071915  2.728107
C    -3.139259  0.737363  1.909315
C    -2.939920  1.878451  0.886117
C    -2.763726  3.284822  1.490803
C    -1.453528  3.428050  2.247772
N    -1.241440  4.862715  2.720848
H    -3.160052  1.139990  2.935661
H    -4.122954  0.277818  1.752332
H    -3.805073  1.911302  0.214641
H    -2.085745  1.673575  0.228252
H    -3.612691  3.515003  2.156876
H    -2.791686  4.020436  0.669539
H    -0.571656  3.181038  1.644310
H    -1.410239  2.810356  3.152201
H    -0.347102  4.960238  3.220540
H    -1.995440  5.167619  3.351042
H    -1.227807  5.511606  1.922298
N    -1.430299  -2.374701  0.615563
C    -1.392479  -3.319653  -0.489182
H    -0.790159  -2.505974  1.391243
H    -2.225884  -3.088857  -1.159577
H    -0.451327  -3.241512  -1.051937
H    -1.500844  -4.345874  -0.117912
