34
Energy: -18219.6373979 eV PBE+vdW (tier 2 basis)
C    0.385379  -0.025577  1.080098
C    -0.163698  0.471600  2.375868
O    0.602068  1.012652  3.223205
H    0.828556  -1.013574  1.278038
H    -0.373545  -0.191479  0.312975
H    1.185830  0.640293  0.741364
N    -1.472195  0.323032  2.706118
C    -2.684912  0.363624  1.878750
C    -2.992637  -1.003270  1.219692
O    -2.085714  -1.742485  0.853974
H    -1.634837  0.515475  3.689972
H    -3.480907  0.589540  2.600847
C    -2.664541  1.498504  0.812942
C    -1.832432  2.734722  1.184880
C    -2.189227  3.450560  2.504373
C    -1.006454  4.191152  3.136204
N    -0.195657  3.320592  4.072706
H    -3.707165  1.785772  0.614386
H    -2.276267  1.103463  -0.135587
H    -1.921809  3.457381  0.361009
H    -0.768232  2.460597  1.192858
H    -2.614587  2.756052  3.246026
H    -2.984267  4.186219  2.321781
H    -1.338966  5.057325  3.720924
H    -0.313399  4.554504  2.367072
H    0.673175  3.797117  4.340225
H    0.106728  2.305746  3.687898
H    -0.715438  3.159366  4.942099
N    -4.305157  -1.306191  1.035659
C    -5.484220  -0.571630  1.473798
H    -4.446789  -2.194825  0.563464
H    -5.519147  -0.456313  2.567053
H    -5.560843  0.418364  1.002217
H    -6.370643  -1.140858  1.178204
