34
Energy: -18220.3339179 eV PBE+vdW (tier 2 basis)
C    -0.982236  0.765855  0.117586
C    -0.633487  0.052857  1.399375
O    0.108294  -0.936771  1.421714
H    -1.593199  0.091872  -0.497938
H    -0.060451  0.965956  -0.440452
H    -1.531402  1.702963  0.263823
N    -1.182532  0.566274  2.544182
C    -1.180299  -0.054605  3.870461
C    0.162562  -0.262639  4.581022
O    0.159518  -0.244358  5.848062
H    -1.735857  1.409307  2.449184
H    -1.679493  0.688104  4.507304
C    -1.984562  -1.383944  3.937814
C    -3.461909  -1.203889  4.297396
C    -3.758194  -0.577846  5.674097
C    -3.093144  -1.256720  6.882523
N    -1.877111  -0.512952  7.372506
H    -1.501604  -2.055859  4.663378
H    -1.888593  -1.894140  2.971306
H    -3.946582  -2.190536  4.250377
H    -3.963052  -0.593544  3.530562
H    -3.506944  0.496196  5.681301
H    -4.844910  -0.605523  5.828135
H    -2.764795  -2.276830  6.646948
H    -3.789491  -1.323224  7.726635
H    -1.460652  -0.996033  8.176321
H    -1.037621  -0.378725  6.612152
H    -2.142272  0.421970  7.700599
N    1.249993  -0.504273  3.869614
C    2.556191  -0.767403  4.458541
H    1.083701  -0.686638  2.862454
H    2.643151  -0.241049  5.413443
H    3.332159  -0.414173  3.772028
H    2.698835  -1.843027  4.632553
