34
Energy: -18219.9105187 eV PBE+vdW (tier 2 basis)
C    0.536120  1.473419  1.547069
C    0.008965  0.451228  2.533763
O    0.684173  -0.016728  3.437051
H    0.013177  2.436630  1.637674
H    0.427478  1.127261  0.509160
H    1.596455  1.631143  1.758591
N    -1.306690  0.036644  2.373466
C    -2.312680  0.603880  1.506233
C    -2.752874  2.039911  1.845086
O    -3.033265  2.831580  0.902292
H    -1.592346  -0.659237  3.057773
H    -1.886290  0.694424  0.493505
C    -3.534802  -0.338582  1.435099
C    -4.634424  0.060927  0.443776
C    -4.245268  -0.030977  -1.054576
C    -4.428331  1.251426  -1.861220
N    -3.339632  2.258829  -1.588344
H    -3.977569  -0.422166  2.439449
H    -3.149600  -1.338434  1.182527
H    -5.001191  1.071152  0.680171
H    -5.490765  -0.601212  0.623897
H    -4.864338  -0.793227  -1.545575
H    -3.210620  -0.393311  -1.175517
H    -5.378548  1.741714  -1.614356
H    -4.424701  1.047056  -2.939060
H    -2.447730  1.936325  -1.978652
H    -3.183705  2.449853  -0.493802
H    -3.550686  3.158513  -2.033645
N    -2.859902  2.475835  3.103857
C    -2.657176  1.781615  4.377535
H    -3.145670  3.451412  3.157729
H    -1.594739  1.619984  4.594035
H    -3.183421  0.821383  4.399829
H    -3.083336  2.411471  5.164195
