34
Energy: -18219.2595164 eV PBE+vdW (tier 2 basis)
C    0.341142  -0.419146  0.131471
C    0.214886  -0.142065  1.611662
O    1.200203  0.021294  2.340119
H    1.118589  0.223532  -0.295674
H    -0.594048  -0.277890  -0.423236
H    0.669205  -1.459686  0.000117
N    -1.063400  -0.080234  2.098787
C    -1.359242  -0.178464  3.535205
C    -2.615617  -1.045341  3.775387
O    -2.535718  -2.016306  4.517302
H    -1.799423  -0.375243  1.465118
H    -0.552071  -0.773473  3.983724
C    -1.436004  1.151027  4.323009
C    -0.068963  1.802607  4.602726
C    0.409855  2.789828  3.518102
C    1.915918  2.785874  3.314372
N    2.646299  3.003711  4.638003
H    -1.904641  0.904418  5.286435
H    -2.104127  1.870443  3.828680
H    0.662050  0.982869  4.710789
H    -0.126553  2.323998  5.571421
H    0.046225  3.806850  3.733427
H    -0.012588  2.519326  2.541442
H    2.263146  3.577218  2.639768
H    2.240142  1.804284  2.943505
H    2.357142  2.280682  5.312421
H    2.425875  3.920158  5.049209
H    3.665341  2.940877  4.522661
N    -3.780815  -0.737124  3.119540
C    -4.209555  0.522984  2.523897
H    -4.524188  -1.387021  3.367302
H    -4.943885  0.317184  1.736271
H    -3.369677  1.052307  2.061960
H    -4.673566  1.195178  3.262365
