34
Energy: -18219.6331638 eV PBE+vdW (tier 2 basis)
C    0.493128  0.910365  1.450288
C    -0.325919  -0.329633  1.247728
O    0.190766  -1.397824  0.824134
H    0.439522  1.546645  0.552978
H    1.538613  0.617783  1.584512
H    0.153963  1.513150  2.300028
N    -1.651818  -0.292770  1.504422
C    -2.517742  0.889264  1.532707
C    -2.650768  1.613070  2.899228
O    -2.609285  2.839134  2.894116
H    -2.107579  -1.200721  1.474876
H    -2.053934  1.662234  0.905006
C    -3.895521  0.549591  0.935177
C    -3.955043  0.230141  -0.571999
C    -3.289303  -1.085371  -1.049167
C    -1.898220  -0.893423  -1.671453
N    -0.980086  -2.060858  -1.392386
H    -4.536886  1.422769  1.118143
H    -4.350479  -0.279274  1.503272
H    -3.550668  1.079235  -1.145421
H    -5.019048  0.185922  -0.838127
H    -3.934017  -1.570395  -1.794405
H    -3.234432  -1.798615  -0.211239
H    -1.385718  -0.011631  -1.270048
H    -1.968436  -0.766560  -2.757976
H    -0.535946  -1.943715  -0.383764
H    -0.195044  -2.083576  -2.052837
H    -1.471794  -2.957286  -1.472109
N    -2.825532  0.895938  4.042967
C    -2.947045  -0.539870  4.248810
H    -2.895012  1.491647  4.863593
H    -3.655037  -0.997870  3.544844
H    -3.349504  -0.707419  5.252984
H    -1.980936  -1.060150  4.181334
