34
Energy: -18219.7351059 eV PBE+vdW (tier 2 basis)
C    1.222678  1.813209  1.327044
C    0.651819  1.373726  2.653530
O    1.225220  1.703356  3.721351
H    1.381546  2.898258  1.340813
H    0.596452  1.547295  0.468927
H    2.208459  1.344976  1.204151
N    -0.477414  0.634036  2.573880
C    -1.181205  -0.147058  3.592929
C    -1.946329  -1.222351  2.784086
O    -2.147514  -1.040198  1.581237
H    -0.849204  0.398696  1.644702
H    -0.432104  -0.609136  4.255117
C    -2.155307  0.691926  4.474996
C    -1.319746  1.850112  4.993992
C    -1.688039  2.806725  6.118681
C    -0.634855  3.925673  6.096498
N    0.775792  3.385645  5.873853
H    -2.538774  0.058985  5.287144
H    -3.014790  1.029008  3.878906
H    -1.088575  2.467350  4.113077
H    -0.373092  1.379520  5.285860
H    -1.705568  2.302559  7.096217
H    -2.670150  3.282069  5.985755
H    -0.611201  4.514061  7.021045
H    -0.816132  4.606735  5.255700
H    1.445598  4.159036  5.796259
H    0.877073  2.777302  4.992634
H    1.078641  2.804335  6.664704
N    -2.395795  -2.320050  3.434429
C    -2.222307  -2.702817  4.827115
H    -2.935819  -2.942554  2.838702
H    -2.193538  -3.795877  4.893633
H    -3.042270  -2.340547  5.464837
H    -1.271837  -2.327041  5.222698
