34
Energy: -18219.979393 eV PBE+vdW (tier 2 basis)
C    -1.559114  1.071273  0.276437
C    -1.005204  0.628975  1.614209
O    -0.031064  -0.108217  1.711502
H    -1.972351  0.191826  -0.234891
H    -0.733144  1.443937  -0.340213
H    -2.339528  1.839009  0.339944
N    -1.681022  1.130291  2.712207
C    -1.528028  0.767162  4.118543
C    -0.803719  1.810826  4.992812
O    -1.300483  2.096932  6.121103
H    -2.457249  1.749771  2.510450
H    -2.552300  0.795016  4.522263
C    -0.980559  -0.656524  4.378557
C    -1.087445  -1.107007  5.841512
C    -2.524680  -1.334567  6.374767
C    -2.842657  -0.627621  7.688256
N    -3.086869  0.847847  7.485663
H    0.061220  -0.723678  4.050435
H    -1.540602  -1.346285  3.730503
H    -0.551543  -0.396083  6.489199
H    -0.527590  -2.046450  5.932239
H    -2.688500  -2.406569  6.546006
H    -3.280661  -1.055340  5.621222
H    -2.007968  -0.714932  8.395151
H    -3.736107  -1.046310  8.167962
H    -3.110848  1.345601  8.381935
H    -3.997074  0.998946  7.038453
H    -2.312395  1.344213  6.839953
N    0.328888  2.409555  4.625681
C    1.143117  2.254923  3.423176
H    0.654638  3.084222  5.315777
H    0.855254  2.987167  2.656657
H    1.052642  1.247883  3.004644
H    2.188779  2.427935  3.698078
