34
Energy: -18219.1770076 eV PBE+vdW (tier 2 basis)
C    -0.365754  -0.850126  0.374742
C    -0.137407  -0.124807  1.687460
O    0.963214  -0.080042  2.230846
H    0.563318  -1.354920  0.098330
H    -0.626783  -0.134136  -0.417678
H    -1.175546  -1.591202  0.423550
N    -1.212920  0.505415  2.270164
C    -2.623694  0.424037  1.944143
C    -3.199487  1.841402  2.164197
O    -2.852218  2.461750  3.171290
H    -0.988968  1.178311  3.004183
H    -2.741935  0.085550  0.907946
C    -3.411012  -0.511982  2.897396
C    -3.038558  -2.004752  2.953419
C    -1.649905  -2.438773  3.479066
C    -1.084937  -1.695148  4.677759
N    -2.053921  -1.699612  5.857664
H    -4.475535  -0.454962  2.620905
H    -3.356369  -0.037146  3.895123
H    -3.158943  -2.449341  1.954729
H    -3.814958  -2.500772  3.560538
H    -0.881346  -2.333618  2.703351
H    -1.685448  -3.517605  3.699938
H    -0.885813  -0.641297  4.454544
H    -0.157978  -2.154047  5.039699
H    -1.650296  -1.226433  6.676417
H    -2.304475  -2.657743  6.135247
H    -2.923084  -1.206693  5.607626
N    -4.095628  2.322399  1.271939
C    -4.539997  1.707515  0.027025
H    -4.435378  3.254640  1.493009
H    -5.302042  2.353086  -0.419706
H    -5.001085  0.724432  0.195546
H    -3.722039  1.604065  -0.700016
