34
Energy: -18219.4098277 eV PBE+vdW (tier 2 basis)
C    0.367054  -0.419627  0.163087
C    0.246370  -0.355861  1.671354
O    1.183937  -0.604476  2.427173
H    1.281685  0.099076  -0.145900
H    0.476168  -1.471171  -0.133988
H    -0.494400  0.003969  -0.367678
N    -0.987770  0.001161  2.151483
C    -1.302549  -0.058781  3.568098
C    -2.829137  0.019819  3.691569
O    -3.487305  0.654575  2.857007
H    -1.779406  0.138974  1.529061
H    -0.914835  -1.008514  3.966412
C    -0.624532  1.065394  4.399631
C    -1.212736  2.478261  4.271416
C    -1.211830  3.059132  2.849804
C    -1.683242  4.499731  2.772540
N    -0.715894  5.428034  3.508642
H    0.437409  1.056272  4.118237
H    -0.662162  0.777443  5.459824
H    -0.619875  3.112403  4.960093
H    -2.245050  2.497035  4.656177
H    -1.909427  2.480436  2.228961
H    -0.221283  2.955687  2.376438
H    -2.659890  4.644011  3.252268
H    -1.735643  4.874092  1.743564
H    -1.044500  6.401539  3.527445
H    0.212155  5.411283  3.064821
H    -0.596060  5.106986  4.480221
N    -3.407360  -0.569638  4.765275
C    -2.787400  -1.445950  5.753904
H    -4.417501  -0.462873  4.790936
H    -2.299563  -2.311655  5.286304
H    -2.053675  -0.915326  6.375558
H    -3.573279  -1.821515  6.416103
