34
Energy: -18219.1395313 eV PBE+vdW (tier 2 basis)
C    -0.943274  1.217608  -1.273306
C    -0.497008  1.384645  0.131934
O    0.516135  2.223011  0.276116
H    -0.298053  0.476638  -1.768555
H    -0.822447  2.166542  -1.807141
H    -1.980081  0.876335  -1.340219
N    -1.013677  0.778875  1.158481
C    -2.129541  -0.174542  1.232258
C    -2.436522  -0.145915  2.758230
O    -1.617665  0.422289  3.501264
H    -0.733709  0.954021  2.167936
H    -2.992268  0.234053  0.684695
C    -1.766679  -1.563540  0.655466
C    -0.542866  -2.271656  1.254461
C    -0.753560  -2.937750  2.618162
C    0.464560  -3.759123  3.092240
N    1.694299  -3.034417  3.387347
H    -1.619810  -1.430924  -0.426652
H    -2.653390  -2.206134  0.747040
H    0.307548  -1.571554  1.304803
H    -0.239569  -3.046654  0.533102
H    -1.625283  -3.612260  2.558748
H    -0.983697  -2.190191  3.392357
H    0.700533  -4.525734  2.337177
H    0.175631  -4.309661  3.999419
H    1.563113  -2.319370  4.101672
H    0.816896  2.304042  1.202739
H    2.110193  -2.600104  2.565961
N    -3.560159  -0.711353  3.217297
C    -4.612981  -1.399845  2.480441
H    -3.649559  -0.667979  4.230067
H    -5.560018  -1.258282  3.011340
H    -4.415087  -2.477567  2.398761
H    -4.732312  -0.978807  1.476236
