34
Energy: -18220.4302213 eV PBE+vdW (tier 2 basis)
C    -1.218449  0.975865  -0.400414
C    -1.526264  0.052444  0.754268
O    -1.959548  -1.089829  0.531892
H    -2.079965  0.986337  -1.078258
H    -0.979899  2.003524  -0.104611
H    -0.369335  0.562270  -0.960468
N    -1.309339  0.582352  1.988178
C    -1.442193  0.029646  3.343693
C    -0.263381  -0.906470  3.707363
O    0.237277  -1.711236  2.908105
H    -0.928731  1.521333  1.968676
H    -1.318064  0.920645  3.976677
C    -2.845246  -0.503049  3.750939
C    -3.423526  -1.812324  3.194634
C    -2.723155  -3.122352  3.634724
C    -2.349933  -4.062377  2.492494
N    -1.334372  -3.441190  1.578470
H    -3.547501  0.308098  3.509382
H    -2.833612  -0.563436  4.851321
H    -3.477073  -1.746558  2.102314
H    -4.467823  -1.847903  3.533549
H    -3.385380  -3.692212  4.300233
H    -1.825435  -2.917190  4.235509
H    -1.923269  -4.996710  2.878191
H    -3.226506  -4.315302  1.881881
H    -1.699681  -2.555196  1.109441
H    -0.524529  -3.053833  2.116976
H    -1.007386  -4.094793  0.862365
N    0.173471  -0.775439  4.977515
C    1.238289  -1.585317  5.554672
H    -0.254470  -0.068412  5.565517
H    1.700309  -2.166237  4.751659
H    0.842460  -2.269313  6.317194
H    1.995953  -0.939649  6.013889
