34
Energy: -18219.3938086 eV PBE+vdW (tier 2 basis)
C    -0.812962  0.804269  -0.430170
C    -0.741331  0.749543  1.078587
O    0.337148  0.817060  1.684052
H    -0.170083  0.016613  -0.841706
H    -1.825099  0.688292  -0.834421
H    -0.401569  1.764579  -0.766145
N    -1.935693  0.631670  1.729056
C    -2.133766  0.535420  3.178570
C    -1.896480  1.840039  3.989532
O    -2.714063  2.155221  4.856518
H    -2.776764  0.675763  1.166261
H    -3.206205  0.346397  3.314836
C    -1.350304  -0.644263  3.800915
C    -1.768547  -0.916453  5.252255
C    -0.740907  -1.732885  6.051903
C    -0.506922  -3.114455  5.463557
N    0.507701  -3.885675  6.305201
H    -0.275296  -0.418990  3.742757
H    -1.525498  -1.526488  3.164627
H    -2.747528  -1.420312  5.282394
H    -1.912851  0.035479  5.781833
H    -1.091345  -1.831628  7.092619
H    0.213254  -1.179465  6.079267
H    -0.090186  -3.079752  4.449862
H    -1.418768  -3.724987  5.450389
H    0.689104  -4.827008  5.932176
H    0.175652  -3.986784  7.274290
H    1.404426  -3.381505  6.342118
N    -0.756327  2.513517  3.713828
C    -0.397630  3.750275  4.386208
H    -0.124566  2.104900  3.018319
H    -1.213949  4.023819  5.062050
H    0.525148  3.629643  4.970790
H    -0.246410  4.557597  3.657754
