34
Energy: -18220.2660149 eV PBE+vdW (tier 2 basis)
C    -1.048369  0.700253  -0.118229
C    -0.873866  -0.178331  1.095764
O    0.204028  -0.617808  1.475332
H    -0.410983  0.323648  -0.925397
H    -0.699314  1.712997  0.126861
H    -2.085646  0.763635  -0.468398
N    -2.034651  -0.490997  1.796298
C    -1.905430  -1.122424  3.102068
C    -1.560098  -2.615885  2.962712
O    -0.977076  -3.242890  3.885493
H    -2.879289  0.038204  1.603407
H    -1.030814  -0.670779  3.599905
C    -3.180423  -0.877094  3.947998
C    -3.002646  -0.782141  5.474113
C    -2.797808  -2.109542  6.247227
C    -1.476088  -2.246662  6.998432
N    -0.285472  -2.140263  6.076657
H    -3.946421  -1.628233  3.702531
H    -3.587063  0.091495  3.620164
H    -3.904663  -0.293622  5.864775
H    -2.189629  -0.068619  5.691927
H    -2.919860  -2.971009  5.577519
H    -3.583758  -2.214417  7.007205
H    -1.415295  -3.230727  7.477998
H    -1.370505  -1.484016  7.780779
H    0.538936  -2.600608  6.473008
H    -0.028573  -1.162973  5.910235
H    -0.541670  -2.606210  5.073726
N    -1.951675  -3.218573  1.844527
C    -1.701749  -4.617788  1.529098
H    -2.337247  -2.607778  1.128281
H    -1.467326  -5.153379  2.452827
H    -0.854761  -4.712839  0.836632
H    -2.594218  -5.055255  1.068080
