34
Energy: -18219.1210929 eV PBE+vdW (tier 2 basis)
C    0.648334  -0.004000  1.891042
C    -0.726623  0.613523  1.734631
O    -0.868862  1.740458  1.276615
H    1.090918  0.391519  2.816040
H    1.272252  0.337526  1.059091
H    0.674732  -1.095470  1.954740
N    -1.843383  -0.067135  2.213475
C    -2.088654  -1.501691  2.369965
C    -1.083777  -2.229941  3.299194
O    -0.684609  -3.364073  3.034880
H    -2.677822  0.499984  2.073600
H    -3.045194  -1.563135  2.914642
C    -2.316109  -2.270135  1.050086
C    -1.123389  -2.327170  0.091215
C    -1.364254  -3.201994  -1.150918
C    -2.409520  -2.615512  -2.086173
N    -2.568137  -3.493988  -3.324981
H    -3.188318  -1.802596  0.564359
H    -2.605281  -3.295813  1.323405
H    -0.265727  -2.757637  0.622537
H    -0.830728  -1.317299  -0.234911
H    -1.671936  -4.212023  -0.831579
H    -0.412164  -3.310007  -1.696494
H    -2.129357  -1.619906  -2.453077
H    -3.406056  -2.555480  -1.633361
H    -3.262933  -3.116564  -3.983151
H    -2.864014  -4.444064  -3.061776
H    -1.672808  -3.582107  -3.825333
N    -0.761989  -1.543844  4.421164
C    0.150639  -2.055042  5.429178
H    -1.109908  -0.594160  4.504135
H    -0.294983  -1.972042  6.428054
H    1.104206  -1.508141  5.418558
H    0.344185  -3.108966  5.207317
