34
Energy: -18220.1665678 eV PBE+vdW (tier 2 basis)
C    -1.835934  1.246510  -0.381294
C    -1.528485  0.189476  0.648994
O    -0.593571  -0.604967  0.527564
H    -1.958182  0.766245  -1.359438
H    -0.973275  1.920639  -0.458104
H    -2.731127  1.837563  -0.155281
N    -2.356171  0.147132  1.749118
C    -1.999879  -0.694873  2.896258
C    -2.470339  -2.148178  2.633744
O    -3.564917  -2.639145  3.015780
H    -3.015285  0.905132  1.881748
H    -0.900315  -0.741581  2.881696
C    -2.385120  -0.064205  4.249760
C    -3.790209  -0.266203  4.830502
C    -4.983624  0.195491  3.969185
C    -6.217639  -0.667119  4.203409
N    -6.007893  -2.020824  3.554603
H    -2.158847  1.010705  4.165108
H    -1.673686  -0.449023  4.993865
H    -3.829780  0.265193  5.792237
H    -3.902600  -1.329264  5.084408
H    -5.241065  1.240639  4.187348
H    -4.750317  0.159175  2.893588
H    -7.130138  -0.228284  3.784271
H    -6.384558  -0.838610  5.273702
H    -4.932858  -2.230152  3.404019
H    -6.432269  -2.047152  2.622403
H    -6.427018  -2.782317  4.096177
N    -1.597936  -2.868400  1.929013
C    -1.849236  -4.234773  1.495873
H    -0.839244  -2.332114  1.491038
H    -2.534762  -4.262899  0.636641
H    -2.292747  -4.808932  2.315950
H    -0.897945  -4.690937  1.206625
