34
Energy: -18219.0795241 eV PBE+vdW (tier 2 basis)
C    -0.117831  -0.080966  -0.777639
C    0.131549  0.199105  0.691250
O    1.253375  0.418030  1.126862
H    -0.290140  0.875935  -1.293548
H    0.796516  -0.512743  -1.194938
H    -0.966735  -0.741713  -0.985477
N    -0.950210  0.255566  1.557820
C    -2.360136  -0.048584  1.349460
C    -2.615142  -1.456080  0.732510
O    -3.212504  -1.569288  -0.342080
H    -0.656496  0.466726  2.507431
H    -2.806259  -0.051660  2.356648
C    -3.109097  1.002054  0.505126
C    -4.628752  1.005189  0.747928
C    -5.478754  1.568545  -0.399026
C    -5.189933  3.008593  -0.802613
N    -3.889666  3.108450  -1.597027
H    -2.900897  0.746065  -0.548326
H    -2.660275  1.979470  0.756670
H    -4.852514  1.552412  1.677063
H    -4.963529  -0.028720  0.904190
H    -6.539237  1.540349  -0.109535
H    -5.399928  0.911738  -1.282194
H    -5.065055  3.669389  0.065030
H    -5.969902  3.425196  -1.450630
H    -3.641637  4.081453  -1.816689
H    -3.964449  2.589239  -2.481884
H    -3.119161  2.677525  -1.057796
N    -2.157835  -2.528638  1.420512
C    -1.442174  -2.570396  2.689448
H    -2.326438  -3.411059  0.945262
H    -0.379162  -2.317043  2.577157
H    -1.893278  -1.892233  3.425423
H    -1.518780  -3.584935  3.093328
