34
Energy: -18218.6550979 eV PBE+vdW (tier 2 basis)
C    -0.160839  0.041887  -0.361657
C    0.012942  0.195734  1.133940
O    1.079422  0.535111  1.626013
H    0.565230  0.696054  -0.852793
H    -1.166995  0.260220  -0.737921
H    0.070922  -0.998007  -0.630166
N    -1.053249  -0.080979  1.984121
C    -2.423057  -0.484105  1.734307
C    -2.545825  -1.527392  0.587790
O    -1.843978  -2.526328  0.614283
H    -0.749957  -0.077301  2.954379
H    -2.718152  -1.093291  2.603588
C    -3.388304  0.743999  1.749737
C    -3.059796  1.889373  0.779376
C    -3.674118  3.256422  1.118598
C    -5.195168  3.336734  1.144432
N    -5.765564  2.709998  2.414771
H    -3.327497  1.131577  2.783258
H    -4.416718  0.354322  1.602517
H    -3.331283  1.624631  -0.254702
H    -1.970284  2.027197  0.777121
H    -3.345586  3.987012  0.365014
H    -3.269988  3.631992  2.074695
H    -5.658119  2.798039  0.307441
H    -5.556263  4.371817  1.134445
H    -6.793940  2.702895  2.415929
H    -5.451250  3.225488  3.247838
H    -5.425905  1.738100  2.508627
N    -3.507309  -1.319001  -0.358174
C    -3.703370  -2.260439  -1.453985
H    -3.956242  -0.415745  -0.424218
H    -4.734915  -2.191811  -1.815763
H    -3.513728  -3.272401  -1.082986
H    -3.012543  -2.066701  -2.287296
