34
Energy: -18219.1002524 eV PBE+vdW (tier 2 basis)
C    1.612057  -0.444631  0.787315
C    1.045634  -0.239404  2.177153
O    1.768424  0.025934  3.139574
H    2.420020  -1.183535  0.841854
H    2.060400  0.499521  0.450756
H    0.876145  -0.771531  0.043223
N    -0.316050  -0.342198  2.269487
C    -1.167108  -0.248519  3.456055
C    -1.890778  1.089994  3.758706
O    -2.869243  1.018600  4.506438
H    -0.807575  -0.559722  1.410508
H    -2.018823  -0.904265  3.229176
C    -0.550858  -0.799919  4.770010
C    0.149842  0.236772  5.655185
C    0.854962  -0.374128  6.875395
C    -0.122651  -1.006969  7.851953
N    0.617284  -1.533664  9.080941
H    0.145632  -1.608738  4.507777
H    -1.391139  -1.251033  5.317124
H    -0.575754  0.991188  5.995369
H    0.916687  0.747192  5.061050
H    1.420171  0.420015  7.391173
H    1.588062  -1.125680  6.535853
H    -0.653286  -1.869051  7.431374
H    -0.863112  -0.288582  8.226025
H    -0.019233  -1.965359  9.763982
H    1.122216  -0.771708  9.554077
H    1.316453  -2.237958  8.808248
N    -1.486233  2.279100  3.241128
C    -0.305095  2.657895  2.472698
H    -2.113894  3.030137  3.515860
H    -0.387862  2.377880  1.413497
H    0.609965  2.222557  2.890089
H    -0.210075  3.747529  2.525534
