34
Energy: -18219.6251254 eV PBE+vdW (tier 2 basis)
C    0.312895  0.600092  0.071865
C    -0.008320  1.132099  1.429120
O    0.788168  1.930073  1.997570
H    0.901443  -0.319776  0.206709
H    -0.564190  0.296958  -0.504368
H    0.932641  1.328687  -0.460388
N    -1.130393  0.775126  2.110437
C    -2.481306  0.376684  1.680169
C    -2.548815  -1.070774  1.140174
O    -1.632861  -1.549903  0.480319
H    -1.076072  1.065978  3.082343
H    -3.066040  0.424711  2.609653
C    -3.120988  1.384669  0.694633
C    -2.995258  2.856607  1.152366
C    -1.832134  3.624261  0.483590
C    -1.148209  4.701323  1.320228
N    -0.454507  4.144390  2.546772
H    -4.179915  1.112489  0.591899
H    -2.685127  1.258290  -0.306607
H    -2.902459  2.874302  2.251750
H    -3.933702  3.385473  0.941567
H    -2.204413  4.128923  -0.419364
H    -1.066325  2.930833  0.115757
H    -1.852999  5.470092  1.663226
H    -0.369229  5.196596  0.728789
H    0.205923  4.828945  2.929778
H    0.108182  3.201701  2.348057
H    -1.132010  3.942088  3.287944
N    -3.693040  -1.757634  1.404151
C    -4.827372  -1.369971  2.231848
H    -3.699176  -2.689212  0.997910
H    -4.537556  -1.192496  3.277943
H    -5.345023  -0.480743  1.844545
H    -5.549230  -2.192213  2.228342
