34
Energy: -18219.2408441 eV PBE+vdW (tier 2 basis)
C    0.262029  -0.831800  -0.310739
C    0.188267  -0.423285  1.142219
O    0.938327  -0.880144  2.004904
H    1.274497  -0.636785  -0.684723
H    0.092594  -1.913656  -0.379827
H    -0.461807  -0.316037  -0.953295
N    -0.772118  0.509596  1.459110
C    -0.975755  0.858570  2.858198
C    -2.390787  1.275413  3.280261
O    -2.806309  0.876356  4.372267
H    -1.417002  0.813778  0.742479
H    -0.806297  -0.076404  3.405832
C    0.078935  1.881028  3.355584
C    0.141350  2.024484  4.884107
C    0.260526  0.676020  5.613394
C    0.591011  0.787908  7.088357
N    2.016044  1.310073  7.281539
H    -0.099996  2.867081  2.903604
H    1.048683  1.524353  2.981991
H    -0.749502  2.547903  5.262497
H    1.001718  2.686163  5.103553
H    0.987017  0.013194  5.111261
H    -0.710425  0.161013  5.557391
H    -0.062378  1.496028  7.614164
H    0.554200  -0.178789  7.603882
H    2.252667  1.447933  8.272165
H    2.697542  0.654105  6.876453
H    2.128578  2.209900  6.793268
N    -3.135693  2.121758  2.516292
C    -2.813529  2.800682  1.269797
H    -4.052925  2.298632  2.917875
H    -1.744599  3.031880  1.205217
H    -3.353877  3.753427  1.236493
H    -3.111922  2.220435  0.381243
