34
Energy: -18220.2223773 eV PBE+vdW (tier 2 basis)
C    1.329445  -0.656868  1.082034
C    0.950266  -0.310761  2.502641
O    1.770161  -0.236198  3.416708
H    0.514287  -0.530515  0.360114
H    1.666405  -1.701466  1.053740
H    2.181194  -0.035973  0.781281
N    -0.383604  -0.074735  2.728536
C    -0.930569  0.233411  4.047150
C    0.016720  1.112346  4.891741
O    0.327855  0.811467  6.070132
H    -1.033429  -0.145889  1.954158
H    -1.816346  0.867513  3.869636
C    -1.410754  -1.011323  4.814809
C    -0.380126  -2.156138  4.933023
C    -0.475383  -2.974667  6.232544
C    0.427304  -2.475425  7.355213
N    0.083250  -1.076851  7.798860
H    -2.312908  -1.387312  4.311242
H    -1.760751  -0.669574  5.800113
H    0.639680  -1.758953  4.833666
H    -0.513843  -2.832662  4.079731
H    -0.161035  -4.010777  6.042999
H    -1.518294  -3.046057  6.583538
H    1.472214  -2.437288  7.021344
H    0.371019  -3.128384  8.235278
H    0.726109  -0.757504  8.531309
H    -0.863269  -1.040693  8.191925
H    0.142101  -0.338983  6.974214
N    0.388287  2.310427  4.416539
C    0.145254  2.904048  3.110568
H    1.017092  2.807962  5.041915
H    0.238273  3.990740  3.205633
H    -0.868986  2.684309  2.759819
H    0.867997  2.553765  2.360573
