34
Energy: -18220.2175788 eV PBE+vdW (tier 2 basis)
C    0.525928  0.666703  0.827039
C    -0.397533  1.214200  1.888858
O    -0.011941  1.864113  2.852388
H    0.918104  1.506472  0.237539
H    0.044386  -0.042917  0.142590
H    1.385304  0.187935  1.310580
N    -1.748597  0.922836  1.741121
C    -2.691063  1.683612  2.563890
C    -2.419983  1.426114  4.048513
O    -2.274254  0.262095  4.505728
H    -2.068446  0.691322  0.804590
H    -2.527418  2.754717  2.374141
C    -4.163156  1.380918  2.203509
C    -4.795813  0.036554  2.600002
C    -4.338751  -1.235923  1.840806
C    -3.615695  -2.293141  2.671065
N    -2.242462  -1.865089  3.101070
H    -4.273363  1.539306  1.117718
H    -4.761977  2.176875  2.669676
H    -5.874602  0.155632  2.434566
H    -4.691129  -0.116977  3.684004
H    -3.734134  -0.983006  0.955812
H    -5.223469  -1.744610  1.433935
H    -3.518315  -3.228771  2.105460
H    -4.174860  -2.513391  3.589755
H    -2.259930  -0.894739  3.685637
H    -1.639986  -1.696838  2.289477
H    -1.796728  -2.583830  3.680001
N    -2.455341  2.462032  4.891729
C    -2.427892  3.885088  4.563343
H    -2.296558  2.201423  5.861835
H    -2.405258  4.446952  5.501471
H    -3.326112  4.192571  4.013554
H    -1.529281  4.136182  3.984284
