34
Energy: -18219.0723211 eV PBE+vdW (tier 2 basis)
C    -1.561863  -0.460735  -0.485065
C    -0.800356  -0.428499  0.827245
O    0.384686  -0.106048  0.887524
H    -1.943591  -1.463475  -0.732462
H    -0.885194  -0.137050  -1.279853
H    -2.428796  0.213061  -0.450574
N    -1.474469  -0.800903  1.967172
C    -2.793485  -1.409261  2.076482
C    -3.869601  -0.316517  2.312124
O    -3.799041  0.398074  3.305321
H    -1.014294  -0.518713  2.829371
H    -2.988144  -1.942235  1.133532
C    -2.854390  -2.406817  3.256495
C    -1.600147  -3.222997  3.607679
C    -0.992511  -4.181007  2.560167
C    -0.097477  -3.494939  1.534968
N    0.835628  -4.506528  0.865337
H    -3.703042  -3.084408  3.080085
H    -3.109894  -1.824987  4.154406
H    -1.874168  -3.839411  4.475048
H    -0.801919  -2.558563  3.972348
H    -1.784078  -4.754132  2.051599
H    -0.383515  -4.914747  3.115606
H    0.559546  -2.736803  1.977264
H    -0.647371  -3.025077  0.715237
H    1.442274  -4.047031  0.172454
H    0.307241  -5.247322  0.385413
H    1.441441  -4.962997  1.560723
N    -4.835431  -0.225179  1.360269
C    -5.924086  0.739035  1.432092
H    -4.808188  -0.867008  0.577072
H    -5.796919  1.314352  2.354297
H    -6.896266  0.230193  1.456025
H    -5.898380  1.424909  0.575424
