34
Energy: -18219.9945848 eV PBE+vdW (tier 2 basis)
C    0.174740  -0.585331  1.584890
C    -0.572720  -1.478594  2.554399
O    0.006447  -2.203532  3.344961
H    -0.427077  -0.161864  0.773469
H    0.633810  0.237901  2.148656
H    0.996182  -1.170812  1.156647
N    -1.972009  -1.504367  2.509768
C    -2.892257  -0.573731  1.868734
C    -3.043748  -0.808798  0.352926
O    -3.680773  0.004516  -0.364473
H    -2.351168  -2.087009  3.252207
H    -3.885971  -0.858703  2.254344
C    -2.667639  0.925595  2.217782
C    -3.709872  1.516135  3.175863
C    -5.133137  1.709522  2.626795
C    -5.242274  2.672219  1.436383
N    -5.306036  1.943749  0.118126
H    -2.604440  1.517927  1.293367
H    -1.684906  1.020300  2.692449
H    -3.342354  2.493199  3.525169
H    -3.769453  0.887966  4.077894
H    -5.758575  2.106012  3.437605
H    -5.595831  0.743449  2.361727
H    -4.376392  3.344259  1.384143
H    -6.141004  3.295872  1.503300
H    -5.200050  2.590929  -0.670656
H    -6.217813  1.486970  0.006064
H    -4.542667  1.144704  0.011041
N    -2.519848  -1.930476  -0.133528
C    -2.605163  -2.357153  -1.522140
H    -2.037439  -2.516815  0.545611
H    -3.125479  -1.585832  -2.095889
H    -1.599145  -2.501081  -1.934536
H    -3.158298  -3.301752  -1.596891
