34
Energy: -18219.3226985 eV PBE+vdW (tier 2 basis)
C    0.235796  -0.114550  0.204352
C    0.164385  0.009351  1.711622
O    1.168546  0.212026  2.400222
H    1.096307  -0.737463  -0.064444
H    -0.673319  -0.520436  -0.255661
H    0.420333  0.883633  -0.216185
N    -1.087616  -0.114511  2.258717
C    -1.449735  0.169961  3.656976
C    -1.511377  1.681559  4.024641
O    -2.524227  2.124102  4.559006
H    -1.863397  -0.086435  1.605063
H    -2.497423  -0.143321  3.750999
C    -0.607702  -0.579661  4.709389
C    -0.406045  -2.078968  4.463633
C    -1.702948  -2.891365  4.353344
C    -1.481009  -4.394967  4.383723
N    -0.552343  -4.818664  3.247382
H    -1.113739  -0.428316  5.674916
H    0.382616  -0.118786  4.790089
H    0.201416  -2.473579  5.295451
H    0.204043  -2.183861  3.547944
H    -2.265677  -2.617768  3.446397
H    -2.367690  -2.661358  5.199889
H    -0.984255  -4.720509  5.306595
H    -2.405256  -4.970672  4.255972
H    0.329322  -4.287336  3.301810
H    -0.331178  -5.821915  3.280255
H    -0.974853  -4.613876  2.332018
N    -0.396824  2.398899  3.739189
C    -0.280614  3.816201  4.042449
H    0.407309  1.902415  3.355966
H    -1.259902  4.176279  4.372273
H    0.031013  4.376360  3.151750
H    0.449590  3.991490  4.844605
