34
Energy: -18218.9635427 eV PBE+vdW (tier 2 basis)
C    -0.787019  0.078407  -0.210528
C    -0.084433  0.255669  1.118014
O    0.971711  0.863233  1.242689
H    -0.152537  0.505743  -0.990758
H    -1.758608  0.593035  -0.218804
H    -0.977447  -0.979606  -0.439065
N    -0.684922  -0.310562  2.231617
C    -2.019940  -0.869609  2.322913
C    -3.250969  0.079022  2.267296
O    -4.304252  -0.406830  1.856203
H    -0.211412  -0.050538  3.093579
H    -2.189866  -1.500349  1.437395
C    -2.142588  -1.770397  3.562520
C    -1.276127  -3.031755  3.469434
C    -1.419904  -3.936433  4.698828
C    -0.533481  -5.172093  4.679419
N    -0.892076  -6.078210  3.503282
H    -3.200567  -2.048363  3.668708
H    -1.871574  -1.198276  4.465954
H    -0.219385  -2.752101  3.331642
H    -1.580130  -3.564421  2.547919
H    -2.471936  -4.234194  4.845577
H    -1.144382  -3.379220  5.607048
H    -0.644946  -5.786968  5.580259
H    0.527247  -4.922137  4.549376
H    -0.810794  -5.560287  2.616556
H    -1.864458  -6.407743  3.576877
H    -0.279966  -6.902705  3.450972
N    -3.163153  1.379140  2.655140
C    -2.083483  2.117700  3.302382
H    -4.048000  1.865876  2.540392
H    -1.261357  2.360288  2.616975
H    -1.679707  1.579212  4.170558
H    -2.500855  3.058601  3.675525
