34
Energy: -18220.2899155 eV PBE+vdW (tier 2 basis)
C    -1.037727  1.592023  -0.149184
C    -0.797159  1.514673  1.332293
O    0.039724  2.270492  1.876770
H    -1.364720  2.607129  -0.407331
H    -1.780056  0.871637  -0.510249
H    -0.087084  1.419511  -0.670068
N    -1.499964  0.589081  2.025424
C    -1.386353  0.380879  3.466026
C    -1.191015  -1.100375  3.885927
O    -1.297354  -1.394293  5.071145
H    -2.248186  0.107785  1.533878
H    -0.439045  0.860613  3.746412
C    -2.560440  1.006627  4.239705
C    -2.621347  2.541892  4.230154
C    -1.821928  3.255666  5.335519
C    -0.309711  3.060648  5.381060
N    0.371022  3.558477  4.127566
H    -2.511401  0.619851  5.266876
H    -3.492517  0.603919  3.814435
H    -3.668332  2.843891  4.370417
H    -2.352270  2.936013  3.236292
H    -2.195297  2.924318  6.316318
H    -2.036343  4.336397  5.292770
H    -0.023749  2.008363  5.499110
H    0.118027  3.615720  6.225114
H    1.390790  3.565626  4.240800
H    0.084458  4.521698  3.917433
H    0.158093  2.950923  3.246169
N    -0.878394  -1.978313  2.899760
C    -0.588909  -3.380635  3.169463
H    -0.700032  -1.617333  1.969940
H    0.490313  -3.581325  3.124936
H    -1.103971  -4.019330  2.442522
H    -0.948123  -3.612245  4.176595
