34
Energy: -18219.9713465 eV PBE+vdW (tier 2 basis)
C    0.380262  -1.671846  1.859244
C    -0.118839  -0.248682  1.718504
O    0.623013  0.720867  1.712102
H    1.469127  -1.635996  1.944616
H    0.117931  -2.287700  0.987253
H    -0.027235  -2.165027  2.752752
N    -1.487978  -0.057453  1.571192
C    -2.551487  -1.040602  1.701868
C    -3.655204  -0.728038  0.672403
O    -4.827794  -0.415766  1.000961
H    -1.740405  0.927661  1.541464
H    -2.132387  -2.015397  1.408598
C    -3.104611  -1.185934  3.131008
C    -3.487279  0.143385  3.806102
C    -4.605774  0.032967  4.853652
C    -5.923645  -0.542149  4.337722
N    -6.349539  0.124042  3.053160
H    -2.343467  -1.695085  3.737805
H    -3.956962  -1.879953  3.084422
H    -3.779359  0.885840  3.046342
H    -2.604603  0.577418  4.293068
H    -4.788880  1.027074  5.289802
H    -4.288581  -0.606305  5.690850
H    -6.726534  -0.413660  5.073159
H    -5.847885  -1.611362  4.106843
H    -7.272008  -0.206962  2.750967
H    -5.642701  -0.093353  2.247834
H    -6.412588  1.142135  3.165711
N    -3.338165  -0.793954  -0.628474
C    -2.066570  -1.164829  -1.241961
H    -4.103656  -0.543156  -1.249595
H    -1.661040  -2.077334  -0.788295
H    -1.323921  -0.362258  -1.154320
H    -2.248287  -1.370131  -2.300920
