34
Energy: -18220.1118897 eV PBE+vdW (tier 2 basis)
C    0.169924  0.576161  0.331372
C    -0.002101  0.558604  1.834880
O    0.927094  0.660390  2.616812
H    1.213321  0.820707  0.117240
H    -0.478707  1.316044  -0.157826
H    -0.051581  -0.408342  -0.105704
N    -1.306041  0.456176  2.336267
C    -2.474600  -0.021132  1.616253
C    -3.727222  0.811171  1.978845
O    -4.889105  0.340127  1.899341
H    -1.295538  0.319897  3.346823
H    -2.303457  0.196112  0.550219
C    -2.736697  -1.531349  1.735138
C    -3.108098  -2.004002  3.151392
C    -4.016530  -3.243931  3.194781
C    -5.311590  -3.140209  2.390102
N    -6.054879  -1.858885  2.677506
H    -1.842090  -2.061104  1.380896
H    -3.529752  -1.774314  1.014371
H    -3.595985  -1.184128  3.704885
H    -2.199620  -2.230436  3.725336
H    -4.256221  -3.477944  4.243396
H    -3.481591  -4.124128  2.808315
H    -5.980069  -3.979165  2.617196
H    -5.129461  -3.142161  1.309044
H    -6.961644  -1.844439  2.198300
H    -5.495211  -0.977956  2.340125
H    -6.240718  -1.755860  3.681445
N    -3.488772  2.077987  2.321015
C    -4.511396  3.069678  2.616620
H    -2.505205  2.338936  2.373823
H    -5.494353  2.605519  2.500329
H    -4.428529  3.916036  1.923670
H    -4.399607  3.439748  3.643423
