34
Energy: -18220.2073663 eV PBE+vdW (tier 2 basis)
C    1.163143  1.110505  0.903651
C    0.797651  0.659403  2.294790
O    1.532187  0.820061  3.265715
H    1.395328  2.182234  0.927561
H    0.380001  0.925802  0.158501
H    2.078034  0.589153  0.594430
N    -0.429066  0.022458  2.419251
C    -0.893542  -0.321109  3.746436
C    -0.930807  -1.815057  4.083581
O    -0.549592  -2.180460  5.227352
H    -1.076671  0.076604  1.641948
H    -0.066979  0.050678  4.365354
C    -2.200047  0.400759  4.150372
C    -2.599362  0.278814  5.630281
C    -1.816818  1.137911  6.644033
C    -0.307666  0.939161  6.790988
N    0.064004  -0.489228  7.097862
H    -3.030905  0.028088  3.531426
H    -2.068915  1.460777  3.884285
H    -2.593676  -0.778363  5.937734
H    -3.650178  0.588461  5.716157
H    -2.285174  1.004733  7.632487
H    -1.954158  2.202396  6.399792
H    0.070200  1.564384  7.609701
H    0.249287  1.216574  5.887564
H    1.072159  -0.571864  7.266795
H    -0.192254  -1.185082  6.262364
H    -0.415196  -0.820610  7.942320
N    -1.384044  -2.737767  3.226922
C    -1.922817  -2.571964  1.881551
H    -1.323636  -3.687216  3.588658
H    -2.488984  -3.473992  1.630050
H    -1.127459  -2.440614  1.136730
H    -2.619288  -1.726922  1.832802
