34
Energy: -18219.7205662 eV PBE+vdW (tier 2 basis)
C    -0.048455  1.055311  -0.530426
C    0.109959  0.919951  0.946247
O    1.188488  1.236573  1.518957
H    0.503561  0.219501  -0.988537
H    0.426840  1.980756  -0.872406
H    -1.087196  0.970902  -0.866291
N    -0.887611  0.400245  1.713593
C    -2.351607  0.577318  1.623645
C    -2.986453  -0.418485  0.612640
O    -2.943190  -0.198867  -0.594456
H    -0.554556  0.150940  2.640142
H    -2.705029  0.323946  2.633494
C    -2.785369  2.018958  1.282240
C    -1.911753  3.194862  1.751643
C    -1.748950  3.473241  3.258551
C    -0.739518  2.672692  4.082645
N    0.675308  2.762587  3.554464
H    -3.809475  2.145706  1.664928
H    -2.868714  2.084711  0.188707
H    -2.381446  4.093097  1.326075
H    -0.926723  3.158698  1.260783
H    -2.719231  3.355205  3.765678
H    -1.494931  4.538908  3.380968
H    -0.982656  1.605842  4.141962
H    -0.729080  3.058251  5.109890
H    1.350817  2.540064  4.293457
H    0.885120  3.716903  3.239586
H    0.895076  2.062677  2.705098
N    -3.563876  -1.509909  1.169605
C    -4.186043  -2.564336  0.380070
H    -3.543668  -1.613578  2.177212
H    -5.190825  -2.781425  0.761836
H    -3.584831  -3.483251  0.403643
H    -4.258389  -2.213731  -0.653739
