34
Energy: -18218.9461736 eV PBE+vdW (tier 2 basis)
C    -0.776021  -0.531963  -0.270323
C    -0.156362  -0.370656  1.102456
O    1.038744  -0.543529  1.301374
H    -0.016515  -0.269153  -1.012491
H    -1.036163  -1.589637  -0.421043
H    -1.681591  0.060113  -0.444118
N    -0.983003  -0.072324  2.174435
C    -2.407365  0.235768  2.201964
C    -3.292667  -0.822946  1.498735
O    -4.235426  -0.493953  0.768447
H    -0.463842  0.009647  3.043957
H    -2.691244  0.155480  3.267017
C    -2.640539  1.705259  1.757715
C    -4.066534  2.242836  1.564029
C    -5.061848  1.916924  2.688613
C    -6.460969  2.291175  2.236064
N    -7.504875  1.880682  3.273073
H    -2.108136  1.860578  0.810099
H    -2.106778  2.321329  2.497211
H    -4.466302  1.835210  0.628716
H    -4.000510  3.336288  1.449693
H    -4.797700  2.448242  3.618099
H    -5.039310  0.835056  2.893368
H    -6.589127  3.370322  2.084778
H    -6.732691  1.766269  1.311728
H    -7.329746  2.342717  4.175605
H    -7.467823  0.864823  3.434681
H    -8.460295  2.118760  2.975066
N    -3.049968  -2.134679  1.762435
C    -2.079235  -2.770474  2.646981
H    -3.671557  -2.747654  1.242296
H    -2.429110  -3.787685  2.854007
H    -2.003455  -2.244484  3.606160
H    -1.076885  -2.829866  2.202971
