34
Energy: -18220.0732109 eV PBE+vdW (tier 2 basis)
C    -0.980231  1.147932  0.625526
C    -0.833108  0.455702  1.964720
O    0.183990  0.498623  2.633756
H    -1.049032  0.413846  -0.191167
H    -0.089010  1.758740  0.461790
H    -1.871112  1.789662  0.578530
N    -1.941525  -0.249264  2.442525
C    -3.175983  -0.539431  1.744046
C    -4.271163  0.522045  1.913947
O    -5.308149  0.450606  1.201481
H    -1.735298  -0.782048  3.284845
H    -2.969316  -0.536013  0.661842
C    -3.724444  -1.935754  2.139899
C    -3.306700  -3.065399  1.184889
C    -4.283189  -3.390689  0.042338
C    -4.613154  -2.307028  -0.989015
N    -5.724356  -1.379414  -0.560823
H    -4.819823  -1.896253  2.226397
H    -3.369749  -2.155012  3.156928
H    -3.183964  -3.992503  1.761167
H    -2.309241  -2.846336  0.771999
H    -5.226978  -3.782259  0.460226
H    -3.858817  -4.230254  -0.526620
H    -4.940786  -2.776655  -1.924400
H    -3.745078  -1.677501  -1.224637
H    -6.052883  -0.826284  -1.360248
H    -5.460418  -0.632572  0.242358
H    -6.529670  -1.921912  -0.228764
N    -4.068340  1.476500  2.813097
C    -4.995326  2.561064  3.105960
H    -3.177683  1.428041  3.306410
H    -5.877482  2.450590  2.469772
H    -4.519781  3.529032  2.905998
H    -5.298693  2.523843  4.159279
