34
Energy: -18219.1657141 eV PBE+vdW (tier 2 basis)
C    -0.350131  0.569974  0.041003
C    -0.141217  0.648052  1.539493
O    0.926562  0.983257  2.031790
H    -0.630201  1.564349  -0.334911
H    -1.115345  -0.146935  -0.277047
H    0.608631  0.308260  -0.416911
N    -1.202932  0.317797  2.376609
C    -2.610691  0.120217  2.052195
C    -2.897492  -1.165740  1.222472
O    -3.852780  -1.206084  0.445223
H    -0.967870  0.472656  3.353576
H    -3.099616  -0.061364  3.023788
C    -3.299518  1.340946  1.397898
C    -4.809587  1.398373  1.670748
C    -5.586886  2.324706  0.723779
C    -5.120422  3.772033  0.690846
N    -5.229698  4.396781  2.080049
H    -3.136758  1.301971  0.311330
H    -2.783682  2.240572  1.772731
H    -4.999390  1.656441  2.731126
H    -5.225703  0.391701  1.538004
H    -6.664280  2.290531  0.953210
H    -5.491403  1.946861  -0.305317
H    -5.727660  4.397188  0.026013
H    -4.066874  3.871911  0.403152
H    -4.693360  3.838310  2.759194
H    -6.207554  4.408717  2.400220
H    -4.874764  5.361198  2.102146
N    -2.062655  -2.198141  1.471796
C    -2.188209  -3.496563  0.830545
H    -1.269931  -2.017198  2.079470
H    -2.249492  -4.293142  1.582675
H    -1.332464  -3.695088  0.171311
H    -3.105117  -3.492812  0.233324
