34
Energy: -18219.5441238 eV PBE+vdW (tier 2 basis)
C    -0.383633  -0.982189  -0.226502
C    -0.485214  -0.884344  1.278610
O    -0.071431  -1.754716  2.035806
H    -0.807775  -0.122463  -0.758957
H    -0.896728  -1.894804  -0.554174
H    0.672011  -1.091800  -0.504075
N    -1.089319  0.261870  1.764192
C    -1.274072  0.470734  3.188193
C    -2.652910  1.099840  3.513953
O    -2.741021  2.069541  4.273365
H    -1.401048  0.973367  1.112195
H    -1.227763  -0.538179  3.632257
C    -0.194021  1.332350  3.853599
C    1.258151  0.881968  3.688818
C    2.218407  1.592829  4.658006
C    2.152657  3.118091  4.671806
N    0.933131  3.631956  5.436735
H    -0.470134  1.347875  4.921898
H    -0.330916  2.356765  3.456980
H    1.587895  1.054071  2.653424
H    1.339055  -0.200976  3.852674
H    3.255809  1.332453  4.402810
H    2.072815  1.217899  5.686139
H    2.075403  3.542109  3.662182
H    3.022840  3.562115  5.169236
H    0.061660  3.246141  5.026860
H    0.876329  4.658017  5.422419
H    0.964892  3.330769  6.419334
N    -3.709564  0.502608  2.917611
C    -5.087977  0.915114  3.131809
H    -3.527613  -0.305429  2.331564
H    -5.645598  0.150535  3.689261
H    -5.590269  1.095205  2.172994
H    -5.077466  1.841245  3.714312
