34
Energy: -18219.9427874 eV PBE+vdW (tier 2 basis)
C    0.423860  0.411896  0.939555
C    -0.548720  -0.706394  1.253030
O    -0.253670  -1.889338  1.186647
H    1.352823  -0.038755  0.581939
H    0.032949  1.086329  0.164305
H    0.647771  1.018054  1.829492
N    -1.836068  -0.340820  1.625806
C    -2.324784  0.981666  1.938525
C    -1.741391  1.628693  3.209699
O    -1.548305  2.876195  3.223331
H    -2.440663  -1.137775  1.808974
H    -2.000854  1.664103  1.138709
C    -3.871778  0.955304  1.987962
C    -4.603254  2.261315  2.336618
C    -4.774058  3.304407  1.216438
C    -3.529817  3.960422  0.621312
N    -2.665662  4.605262  1.671689
H    -4.166486  0.195017  2.727868
H    -4.215492  0.579314  1.012168
H    -4.157398  2.722227  3.231903
H    -5.620443  1.984968  2.647012
H    -5.440762  4.098941  1.588677
H    -5.311973  2.848051  0.371593
H    -2.889793  3.241774  0.094971
H    -3.821175  4.732082  -0.101893
H    -3.217672  5.228745  2.271196
H    -2.177145  3.832603  2.315975
H    -1.925482  5.172421  1.245361
N    -1.433568  0.917603  4.298541
C    -1.593464  -0.509709  4.587040
H    -1.036537  1.490042  5.040905
H    -2.598636  -0.860535  4.330909
H    -1.460643  -0.642001  5.665067
H    -0.849760  -1.121985  4.063772
