34
Energy: -18219.8096243 eV PBE+vdW (tier 2 basis)
C    -1.050454  3.235274  0.646579
C    -0.762601  2.068389  1.557689
O    0.246117  1.389043  1.500017
H    -0.113366  3.635688  0.249348
H    -1.651895  2.874480  -0.201501
H    -1.630739  4.029885  1.134255
N    -1.752995  1.825806  2.543436
C    -1.906281  0.447992  3.059210
C    -3.407275  0.127640  2.863423
O    -4.195825  1.064578  2.678767
H    -2.710879  2.154965  2.310902
H    -1.271989  -0.206657  2.443523
C    -1.495033  0.289359  4.535563
C    0.016589  0.485927  4.818129
C    0.408102  1.704658  5.668749
C    0.419480  3.061567  4.975907
N    -0.966364  3.518822  4.577858
H    -1.783690  -0.720401  4.852860
H    -2.116920  0.957207  5.154918
H    0.572372  0.509389  3.868773
H    0.381783  -0.400225  5.352305
H    1.435836  1.559494  6.032898
H    -0.214636  1.758128  6.578389
H    0.839900  3.833506  5.631746
H    1.006995  3.033799  4.048880
H    -0.953622  4.482613  4.226548
H    -1.352133  2.871321  3.783752
H    -1.610654  3.489343  5.376396
N    -3.814149  -1.156907  2.918789
C    -3.016642  -2.368180  3.053750
H    -4.821642  -1.264888  2.828566
H    -2.003324  -2.214452  2.667707
H    -3.477129  -3.165585  2.460221
H    -2.952993  -2.707187  4.098075
