34
Energy: -18219.0621473 eV PBE+vdW (tier 2 basis)
C    -0.289382  -0.494463  1.034123
C    -0.212289  -0.490303  2.550159
O    0.693301  -1.044403  3.159599
H    -1.256026  -0.851093  0.654626
H    0.502202  -1.151573  0.665424
H    -0.123231  0.511420  0.624527
N    -1.202925  0.177351  3.247187
C    -2.384530  0.867430  2.752616
C    -2.501437  2.246269  3.458181
O    -3.346014  2.430706  4.334520
H    -1.062430  0.156245  4.255599
H    -2.255551  1.022283  1.672409
C    -3.681650  0.080760  3.016171
C    -3.707319  -1.317344  2.396164
C    -4.786993  -2.232662  3.000954
C    -6.189288  -1.669320  2.832763
N    -7.218038  -2.601407  3.468612
H    -4.519352  0.696438  2.654840
H    -3.806304  0.021322  4.108828
H    -2.742621  -1.815809  2.565428
H    -3.842056  -1.261299  1.304095
H    -4.574519  -2.367672  4.075098
H    -4.729146  -3.227320  2.529286
H    -6.479283  -1.568065  1.779262
H    -6.317779  -0.700038  3.328817
H    -8.177693  -2.244368  3.368432
H    -7.028355  -2.718246  4.473764
H    -7.181398  -3.536905  3.040730
N    -1.622272  3.213726  3.087451
C    -0.537832  3.136880  2.120519
H    -1.711532  4.065531  3.633805
H    -0.889359  2.757631  1.151430
H    0.291854  2.506895  2.471225
H    -0.154633  4.148078  1.952311
