34
Energy: -18219.6839547 eV PBE+vdW (tier 2 basis)
C    -0.436611  0.199138  -1.062948
C    0.031966  -0.178256  0.309503
O    1.206481  -0.587412  0.509052
H    0.421948  0.575047  -1.628780
H    -1.242036  0.940841  -1.057544
H    -0.799561  -0.698781  -1.587411
N    -0.830110  -0.098867  1.347314
C    -2.292585  -0.218694  1.298499
C    -3.098739  1.101723  1.399410
O    -4.044531  1.241779  0.630903
H    -0.398540  -0.259901  2.253891
H    -2.565906  -0.578595  0.298503
C    -2.744806  -1.267323  2.336988
C    -2.549680  -2.743875  1.930870
C    -1.160970  -3.195861  1.436676
C    -0.038158  -3.096533  2.476942
N    1.295886  -2.847617  1.816835
H    -3.817718  -1.118704  2.520118
H    -2.254562  -1.052272  3.301650
H    -3.263196  -2.975369  1.127010
H    -2.854536  -3.370690  2.782708
H    -0.884767  -2.619545  0.542359
H    -1.239227  -4.239374  1.099161
H    0.038876  -4.010495  3.077885
H    -0.187067  -2.263278  3.174699
H    2.063979  -2.870269  2.496861
H    1.304229  -1.856810  1.312013
H    1.496983  -3.563962  1.109583
N    -2.772857  2.041673  2.328878
C    -1.723274  2.046402  3.335985
H    -3.378305  2.856810  2.281702
H    -1.944551  2.839787  4.057105
H    -0.729085  2.246577  2.910507
H    -1.695743  1.106252  3.904419
