34
Energy: -18219.8867113 eV PBE+vdW (tier 2 basis)
C    -0.980976  -1.799627  -0.446166
C    -0.367403  -1.299948  0.846687
O    0.793899  -1.529560  1.146843
H    -2.005021  -2.177293  -0.338844
H    -0.339768  -2.596437  -0.832307
H    -0.989816  -0.983701  -1.183229
N    -1.142802  -0.529426  1.703557
C    -2.547933  -0.145101  1.642242
C    -3.480940  -1.374431  1.572858
O    -4.300093  -1.548694  0.634050
H    -0.607464  -0.202727  2.503020
H    -2.754274  0.329322  2.616147
C    -2.877543  0.887665  0.553046
C    -4.203431  1.640515  0.794914
C    -4.947007  2.060331  -0.485049
C    -5.920086  1.023209  -1.036146
N    -5.246607  -0.272310  -1.419094
H    -2.865073  0.387378  -0.424984
H    -2.045826  1.603024  0.521217
H    -3.989325  2.538210  1.389635
H    -4.884403  1.035709  1.414977
H    -4.231408  2.364288  -1.266426
H    -5.555812  2.953537  -0.284752
H    -6.441673  1.401813  -1.923840
H    -6.673988  0.756740  -0.284018
H    -5.929349  -0.942212  -1.789975
H    -4.761174  -0.745799  -0.553833
H    -4.543428  -0.119535  -2.149930
N    -3.404778  -2.289681  2.547207
C    -2.548239  -2.304825  3.729475
H    -4.022828  -3.085812  2.408635
H    -2.974818  -3.011884  4.447373
H    -2.518825  -1.318966  4.208658
H    -1.524894  -2.616627  3.485468
