34
Energy: -18219.3198822 eV PBE+vdW (tier 2 basis)
C    -0.465526  0.655671  -0.106567
C    -0.615715  0.305643  1.357699
O    0.148615  -0.458798  1.940490
H    0.557362  1.006882  -0.286496
H    -0.600650  -0.257902  -0.699956
H    -1.175636  1.414137  -0.457611
N    -1.675148  0.900495  2.006735
C    -2.027904  0.550399  3.377723
C    -3.550215  0.311946  3.464750
O    -4.290303  1.133457  4.007758
H    -2.317549  1.478367  1.475643
H    -1.477404  -0.379872  3.585186
C    -1.605672  1.604597  4.408092
C    -0.099127  1.878930  4.405087
C    0.374897  2.712120  5.608199
C    -0.288751  4.078650  5.662951
N    0.222716  4.871273  6.863575
H    -1.921824  1.238324  5.398081
H    -2.193122  2.516536  4.222637
H    0.197213  2.381429  3.471697
H    0.456307  0.931203  4.417303
H    1.469193  2.836055  5.554177
H    0.154961  2.162128  6.539187
H    -0.068014  4.688826  4.777987
H    -1.376495  4.017499  5.785700
H    0.020378  4.370318  7.739863
H    -0.208265  5.803317  6.925994
H    1.243327  4.995585  6.812494
N    -4.025285  -0.830521  2.899338
C    -3.297215  -1.855267  2.165660
H    -5.038336  -0.904562  2.936013
H    -3.839382  -2.803274  2.250139
H    -2.295102  -2.006349  2.582119
H    -3.191670  -1.607766  1.098549
