34
Energy: -18219.9391986 eV PBE+vdW (tier 2 basis)
C    -0.600750  -0.481479  0.453730
C    -0.228446  0.041356  1.825998
O    0.883540  -0.093214  2.311604
H    -0.897122  0.327451  -0.229475
H    -1.428492  -1.202931  0.497522
H    0.278078  -0.980493  0.038052
N    -1.206663  0.716932  2.545432
C    -2.609060  0.893062  2.211538
C    -3.072891  2.307062  2.612752
O    -4.052244  2.502049  3.377420
H    -0.892242  0.982752  3.475653
H    -2.692656  0.851128  1.113702
C    -3.524210  -0.200126  2.791797
C    -3.336866  -0.466679  4.300955
C    -4.611712  -0.927813  5.029651
C    -5.450050  0.200554  5.620142
N    -5.938914  1.175260  4.576136
H    -3.326284  -1.128425  2.238627
H    -4.563784  0.061565  2.543968
H    -2.951016  0.430797  4.810088
H    -2.558277  -1.228510  4.427531
H    -4.343367  -1.569353  5.880922
H    -5.230593  -1.559252  4.371550
H    -4.859085  0.793975  6.329803
H    -6.328814  -0.188727  6.149026
H    -6.484859  1.929021  5.007586
H    -6.550539  0.709051  3.897458
H    -5.107995  1.645405  4.032323
N    -2.406841  3.363253  2.126855
C    -1.298413  3.398219  1.176207
H    -2.760225  4.255704  2.463768
H    -1.457356  2.684414  0.360057
H    -0.338645  3.178450  1.659095
H    -1.259151  4.401628  0.741457
