34
Energy: -18219.9416026 eV PBE+vdW (tier 2 basis)
C    1.101422  0.903050  0.025922
C    0.695355  0.547463  1.428175
O    1.329469  -0.319158  2.074867
H    2.155450  1.206075  0.018626
H    1.018244  0.004826  -0.599908
H    0.492826  1.700467  -0.414582
N    -0.376042  1.183980  1.947715
C    -0.939709  0.789605  3.238664
C    -2.472447  0.907993  3.354494
O    -3.082730  -0.041589  3.837892
H    -0.857565  1.856625  1.363017
H    -0.783284  -0.293452  3.287801
C    -0.221676  1.438343  4.448367
C    -0.394284  0.648808  5.761669
C    -0.074898  -0.855547  5.721858
C    1.387559  -1.285283  5.675093
N    2.181312  -0.727738  4.507901
H    -0.590271  2.461470  4.607708
H    0.838709  1.559513  4.179665
H    -1.440643  0.739963  6.083941
H    0.201471  1.140233  6.547061
H    -0.635791  -1.350431  4.916876
H    -0.467641  -1.306733  6.645200
H    1.924673  -0.983736  6.583895
H    1.451423  -2.376732  5.594709
H    1.653466  -0.632029  3.559912
H    3.011644  -1.303154  4.329719
H    2.520800  0.214788  4.724104
N    -3.105975  2.059535  2.991352
C    -2.571230  3.306045  2.465324
H    -4.113772  2.001454  3.115186
H    -3.214609  4.133012  2.785466
H    -2.540100  3.323685  1.362719
H    -1.568509  3.512130  2.857312
