34
Energy: -18219.5733776 eV PBE+vdW (tier 2 basis)
C    -0.994570  0.118938  -0.979595
C    -0.411648  -0.258516  0.353743
O    0.731697  -0.776674  0.438172
H    -0.170516  0.442117  -1.624887
H    -1.749823  0.908955  -0.917562
H    -1.452172  -0.760070  -1.458449
N    -1.126801  -0.027736  1.480109
C    -2.588423  -0.107572  1.579249
C    -3.329316  1.162208  2.059456
O    -4.332046  1.500647  1.439316
H    -0.594546  -0.207214  2.327917
H    -2.964703  -0.224296  0.557131
C    -3.014982  -1.368427  2.371908
C    -2.308817  -2.657833  1.896448
C    -1.039014  -2.995464  2.703864
C    -0.041982  -3.947096  2.053639
N    0.575758  -3.370194  0.793352
H    -4.102115  -1.459220  2.250389
H    -2.843075  -1.224143  3.449804
H    -2.083905  -2.555728  0.820744
H    -3.005111  -3.504534  1.966765
H    -1.333506  -3.456029  3.658466
H    -0.492298  -2.084680  2.986817
H    -0.496908  -4.907948  1.781316
H    0.788483  -4.148977  2.739818
H    1.486639  -3.800291  0.600315
H    0.711386  -2.285331  0.809150
H    -0.014306  -3.556761  -0.024221
N    -2.895512  1.836589  3.161093
C    -1.733495  1.605608  4.003811
H    -3.465328  2.653486  3.364189
H    -1.646013  0.550230  4.299585
H    -1.859192  2.177271  4.928961
H    -0.794468  1.933039  3.532590
