34
Energy: -18219.535811 eV PBE+vdW (tier 2 basis)
C    -0.273350  -0.596624  1.105538
C    -0.532859  -0.702438  2.576402
O    0.297791  -1.285598  3.328282
H    0.708858  -1.026848  0.895649
H    -0.299231  0.441926  0.750132
H    -1.059037  -1.127166  0.552230
N    -1.675061  -0.233240  3.140384
C    -2.468680  0.968330  2.853074
C    -2.805225  1.097617  1.345682
O    -3.189797  0.110579  0.731341
H    -1.791031  -0.571383  4.093744
H    -3.457786  0.778599  3.299432
C    -1.840381  2.154471  3.621702
C    -0.372236  2.500246  3.273029
C    0.585646  2.641553  4.480535
C    1.574244  1.506145  4.747913
N    0.963964  0.232764  5.292697
H    -1.911108  1.895923  4.691064
H    -2.487749  3.039003  3.524354
H    -0.349223  3.444854  2.715636
H    0.041069  1.758383  2.576101
H    0.018028  2.863119  5.399583
H    1.222778  3.524278  4.328701
H    2.318126  1.841322  5.481034
H    2.109459  1.216241  3.834411
H    1.679065  -0.314799  5.784498
H    0.575733  -0.451597  4.487850
H    0.228383  0.439080  5.976004
N    -2.694370  2.339786  0.806501
C    -3.116548  2.636533  -0.556350
H    -2.428195  3.114722  1.400588
H    -2.319957  3.161059  -1.097964
H    -4.023470  3.255651  -0.562993
H    -3.331971  1.687279  -1.055608
