34
Energy: -18219.8632807 eV PBE+vdW (tier 2 basis)
C    -1.694756  0.175636  -0.230475
C    -1.332089  0.669690  1.147489
O    -0.526690  1.555734  1.367269
H    -1.458936  0.941141  -0.975056
H    -1.086480  -0.714785  -0.450708
H    -2.746307  -0.130054  -0.314015
N    -2.047324  0.054028  2.210142
C    -1.355478  -0.093380  3.511156
C    -1.269219  -1.622728  3.744249
O    -2.014548  -2.372742  3.103926
H    -2.426526  -0.885767  1.984341
H    -0.353873  0.348995  3.402293
C    -2.095064  0.602156  4.668452
C    -2.244483  2.127214  4.465499
C    -3.679529  2.667948  4.576188
C    -4.711724  1.986057  3.682441
N    -4.212101  1.865665  2.261428
H    -1.551778  0.401476  5.601033
H    -3.072099  0.110379  4.797533
H    -1.806439  2.413962  3.496209
H    -1.634223  2.661736  5.204231
H    -3.674241  3.748646  4.365580
H    -4.050455  2.566634  5.606980
H    -4.930099  0.960241  4.003777
H    -5.655398  2.543193  3.663770
H    -4.951596  1.535993  1.631732
H    -3.386774  1.157044  2.222028
H    -3.876027  2.768525  1.905058
N    -0.384859  -2.035753  4.672542
C    -0.203755  -3.434660  5.041228
H    0.223531  -1.345827  5.099533
H    -0.926654  -4.030252  4.476834
H    -0.377319  -3.575742  6.115284
H    0.810767  -3.771370  4.793385
