34
Energy: -18219.5054083 eV PBE+vdW (tier 2 basis)
C    0.446875  0.836404  -0.229980
C    0.188502  0.699230  1.252649
O    1.070524  0.784558  2.098785
H    0.959310  1.788195  -0.413518
H    -0.459656  0.791268  -0.845647
H    1.130963  0.037340  -0.542830
N    -1.124053  0.458383  1.613816
C    -1.480666  0.243144  3.006602
C    -2.420784  -0.963725  3.155030
O    -3.570408  -0.849906  3.606012
H    -1.818108  0.320701  0.888397
H    -0.524059  -0.012592  3.492981
C    -1.983250  1.520077  3.721610
C    -2.890706  2.473684  2.927944
C    -4.325728  2.029594  2.594246
C    -5.182378  1.617209  3.780999
N    -5.228590  2.717669  4.837912
H    -1.084704  2.092579  3.990385
H    -2.443285  1.203786  4.671133
H    -2.393644  2.721140  1.978921
H    -2.915428  3.440989  3.462880
H    -4.314510  1.147482  1.939386
H    -4.826443  2.828132  2.023110
H    -4.763819  0.723923  4.262372
H    -6.223337  1.425348  3.496494
H    -4.276613  2.934689  5.163023
H    -5.785020  2.432258  5.652955
H    -5.631783  3.587251  4.464608
N    -1.932900  -2.171227  2.782728
C    -0.600715  -2.516501  2.301638
H    -2.605619  -2.925919  2.888216
H    0.166495  -1.886967  2.766379
H    -0.517779  -2.417971  1.209914
H    -0.390809  -3.556235  2.573819
