34
Energy: -18219.0339699 eV PBE+vdW (tier 2 basis)
C    -0.043524  0.139414  -0.161755
C    0.019420  0.305334  1.339396
O    1.044004  0.654086  1.922553
H    -0.132085  1.121474  -0.646301
H    0.911947  -0.287584  -0.485979
H    -0.865206  -0.498143  -0.503861
N    -1.107523  0.001657  2.090658
C    -2.534131  0.084632  1.754354
C    -3.173581  -1.214471  1.190708
O    -4.342302  -1.191640  0.817659
H    -0.881413  0.017720  3.080887
H    -3.040537  0.212187  2.725713
C    -2.944397  1.270619  0.850445
C    -2.294327  2.637949  1.095318
C    -2.492477  3.323492  2.463342
C    -1.540533  2.828391  3.546084
N    -1.458122  3.844048  4.685962
H    -4.037004  1.348951  0.920781
H    -2.750768  1.005943  -0.197972
H    -2.714920  3.317286  0.341100
H    -1.214947  2.605976  0.883463
H    -3.536893  3.226320  2.800085
H    -2.308444  4.401119  2.312203
H    -1.864726  1.893692  4.015506
H    -0.513057  2.698686  3.180314
H    -1.113435  4.750098  4.339497
H    -2.383620  4.009187  5.105006
H    -0.822808  3.530864  5.432404
N    -2.372760  -2.307105  1.178637
C    -2.827800  -3.610515  0.722575
H    -1.431775  -2.203245  1.542015
H    -2.833387  -4.336742  1.546314
H    -2.182667  -3.988003  -0.081008
H    -3.847761  -3.495587  0.342330
