34
Energy: -18220.1186312 eV PBE+vdW (tier 2 basis)
C    -0.312766  -0.134079  0.125213
C    -0.457901  -0.334036  1.612020
O    0.364722  -0.948226  2.288079
H    -0.330919  -1.116123  -0.364737
H    -1.095466  0.495720  -0.314166
H    0.668498  0.310037  -0.080360
N    -1.599382  0.204180  2.185588
C    -1.746464  0.147280  3.622053
C    -2.824180  -0.750818  4.224656
O    -2.567947  -1.237344  5.358635
H    -2.154749  0.848482  1.634930
H    -0.827750  -0.388885  3.899664
C    -1.747252  1.534877  4.310437
C    -0.331958  2.070950  4.562109
C    0.407209  1.516461  5.794614
C    0.810996  0.035170  5.819776
N    -0.227986  -0.868282  6.447352
H    -2.302442  1.478802  5.259030
H    -2.308594  2.239849  3.678987
H    -0.389880  3.160420  4.695625
H    0.286698  1.914595  3.664383
H    -0.160576  1.755525  6.710542
H    1.344149  2.083336  5.888610
H    1.720651  -0.091101  6.419438
H    1.017225  -0.360301  4.815872
H    0.138253  -1.824223  6.521298
H    -1.206335  -0.955610  5.915722
H    -0.437291  -0.557610  7.402767
N    -3.997360  -1.013325  3.641959
C    -4.553645  -0.486957  2.398570
H    -4.582559  -1.646762  4.182598
H    -4.444229  0.602881  2.344114
H    -4.095161  -0.951927  1.517487
H    -5.625196  -0.707688  2.390355
