34
Energy: -18220.1584843 eV PBE+vdW (tier 2 basis)
C    0.996129  -0.340747  0.680689
C    0.668767  0.082528  2.086607
O    1.512029  0.714534  2.779812
H    1.856684  -1.022067  0.716277
H    1.308212  0.535577  0.098141
H    0.166432  -0.842608  0.172014
N    -0.543621  -0.237887  2.547410
C    -1.050837  -0.080735  3.905752
C    -2.466199  -0.710913  3.840637
O    -3.006043  -0.869503  2.741890
H    -1.249049  -0.665438  1.934882
H    -0.411208  -0.668869  4.582944
C    -1.099964  1.364895  4.464673
C    -1.784061  2.441798  3.603540
C    -1.030437  3.006251  2.386473
C    0.166962  3.918559  2.647437
N    1.340800  3.234224  3.320815
H    -0.075239  1.641060  4.743191
H    -1.640801  1.312162  5.419232
H    -2.050696  3.280839  4.265857
H    -2.743218  2.044176  3.240019
H    -1.737418  3.632678  1.821469
H    -0.742935  2.207620  1.691556
H    -0.108995  4.778521  3.271401
H    0.545963  4.306474  1.694718
H    1.257691  3.277111  4.340647
H    2.224410  3.691095  3.074323
H    1.414730  2.165228  3.057939
N    -3.075800  -1.053674  4.998015
C    -2.563491  -1.029603  6.360648
H    -4.013698  -1.420540  4.856764
H    -2.992259  -1.871518  6.915243
H    -2.826796  -0.101105  6.888549
H    -1.474541  -1.148833  6.375456
