34
Energy: -18220.4202583 eV PBE+vdW (tier 2 basis)
C    -0.589549  0.405286  -0.431178
C    -0.452155  0.515079  1.066083
O    0.654697  0.580968  1.616645
H    -0.193673  -0.570578  -0.743210
H    0.034483  1.173173  -0.902371
H    -1.619754  0.498702  -0.793186
N    -1.621864  0.542950  1.777028
C    -1.768785  0.419951  3.233223
C    -1.231613  1.605619  4.057263
O    -1.909175  2.056633  5.028187
H    -2.481606  0.516623  1.242007
H    -2.854858  0.447195  3.397281
C    -1.219588  -0.925570  3.767988
C    -1.460793  -1.173824  5.261914
C    -2.938011  -1.405656  5.674354
C    -3.467160  -0.488098  6.773634
N    -3.806716  0.885490  6.256896
H    -0.142140  -0.967339  3.562874
H    -1.683492  -1.726854  3.172896
H    -1.028503  -0.348830  5.848790
H    -0.875879  -2.057963  5.545267
H    -3.055111  -2.432466  6.044982
H    -3.609437  -1.349297  4.800635
H    -2.719203  -0.351392  7.564969
H    -4.372357  -0.902295  7.235319
H    -4.028055  1.522653  7.029289
H    -4.639416  0.845596  5.660300
H    -2.964765  1.365915  5.650977
N    -0.039775  2.090752  3.755257
C    0.581046  3.188015  4.485671
H    0.457621  1.615781  2.974917
H    1.559206  3.387580  4.040143
H    0.710894  2.929891  5.544470
H    -0.035714  4.093438  4.424997
