34
Energy: -18220.0404003 eV PBE+vdW (tier 2 basis)
C    -0.175220  0.132028  -0.065902
C    -0.139036  0.180947  1.436485
O    0.916532  0.349955  2.064972
H    -1.131998  -0.209677  -0.475887
H    0.617738  -0.550539  -0.395149
H    0.062174  1.124169  -0.470969
N    -1.310508  0.008312  2.136478
C    -2.653940  0.438337  1.773637
C    -2.600533  1.759415  0.988850
O    -1.759700  2.637852  1.275679
H    -1.154653  -0.134662  3.128478
H    -3.150549  -0.338467  1.173997
C    -3.506500  0.655151  3.060548
C    -3.355014  1.985638  3.836210
C    -2.306204  2.148886  4.958649
C    -0.826851  1.844610  4.722385
N    -0.211964  2.469813  3.495614
H    -3.340986  -0.213608  3.717924
H    -4.556962  0.580290  2.748660
H    -4.319418  2.160255  4.333246
H    -3.259513  2.817249  3.125236
H    -2.589514  1.513580  5.812251
H    -2.399474  3.182068  5.325740
H    -0.641225  0.767429  4.641328
H    -0.241086  2.178030  5.587624
H    0.523083  1.822611  3.114698
H    0.198690  3.386113  3.692891
H    -0.897415  2.572273  2.677090
N    -3.512999  1.967271  0.027286
C    -4.537988  1.048872  -0.464421
H    -3.450647  2.884549  -0.407952
H    -4.097805  0.122840  -0.856598
H    -5.067396  1.541465  -1.284877
H    -5.274701  0.802766  0.310958
