34
Energy: -18219.2313467 eV PBE+vdW (tier 2 basis)
C    0.024937  0.110689  -0.063427
C    0.128874  -0.045239  1.441332
O    1.195113  -0.233697  2.013461
H    1.039750  0.184302  -0.462426
H    -0.465224  -0.760991  -0.521347
H    -0.545370  1.003142  -0.353673
N    -1.041958  0.062241  2.176593
C    -2.413166  -0.037099  1.701551
C    -3.311855  1.175865  2.065948
O    -4.531547  1.091440  1.939845
H    -0.883909  -0.101333  3.170239
H    -2.381804  -0.037256  0.601869
C    -3.094895  -1.333439  2.168741
C    -2.462995  -2.589652  1.567618
C    -3.112315  -3.873932  2.104468
C    -2.465142  -5.110566  1.505310
N    -3.109025  -6.382328  2.055271
H    -4.158308  -1.256559  1.903604
H    -3.050325  -1.378436  3.270212
H    -1.383009  -2.610759  1.785535
H    -2.562518  -2.561718  0.470162
H    -4.190924  -3.865618  1.874489
H    -3.016156  -3.898623  3.203116
H    -2.582793  -5.160197  0.415593
H    -1.397118  -5.183692  1.746053
H    -4.116308  -6.402758  1.843793
H    -2.685791  -7.232779  1.659833
H    -3.011656  -6.427954  3.079025
N    -2.647473  2.281429  2.476359
C    -3.314823  3.531755  2.795616
H    -1.635616  2.222589  2.527934
H    -4.393475  3.369977  2.703833
H    -3.012430  4.327597  2.101996
H    -3.082777  3.846815  3.821084
