34
Energy: -18219.6647093 eV PBE+vdW (tier 2 basis)
C    -0.491044  -0.342677  -0.336090
C    -0.257041  -0.503690  1.146385
O    0.469822  -1.390071  1.608226
H    -0.859511  -1.291995  -0.742975
H    0.471637  -0.134567  -0.820233
H    -1.196190  0.457638  -0.590104
N    -0.896096  0.389033  1.962442
C    -0.662103  0.451022  3.405453
C    -1.451777  -0.624599  4.210196
O    -2.236086  -0.318638  5.125254
H    -1.523118  1.063987  1.541418
H    0.404395  0.211470  3.548315
C    -0.920164  1.856269  3.951794
C    -2.330180  2.438383  3.692182
C    -2.901581  3.201904  4.902351
C    -3.430885  2.230987  5.948039
N    -3.743299  2.951243  7.257491
H    -0.162553  2.535716  3.537557
H    -0.727068  1.805461  5.032362
H    -3.037866  1.641371  3.419845
H    -2.301064  3.133970  2.842742
H    -3.707212  3.878792  4.577152
H    -2.106671  3.834829  5.333998
H    -2.722347  1.421850  6.171249
H    -4.368535  1.757391  5.632964
H    -4.120217  2.300378  7.958868
H    -4.431053  3.704875  7.122250
H    -2.893573  3.377501  7.650411
N    -1.179578  -1.888019  3.853729
C    -1.802185  -3.035069  4.493675
H    -0.485060  -2.019253  3.106769
H    -2.894269  -3.004448  4.382376
H    -1.569825  -3.063146  5.566800
H    -1.421261  -3.945775  4.022529
