34
Energy: -18219.9277515 eV PBE+vdW (tier 2 basis)
C    0.403942  1.514278  0.017421
C    -0.668924  1.654321  1.068457
O    -1.447166  2.629902  1.072608
H    1.082080  2.375402  0.079722
H    -0.068134  1.548126  -0.972519
H    0.993527  0.594785  0.101887
N    -0.743517  0.667170  1.985429
C    -1.710066  0.505375  3.089899
C    -3.115896  1.054222  2.749089
O    -3.649230  1.939855  3.418008
H    -0.074925  -0.089030  1.880368
H    -1.842438  -0.587034  3.153003
C    -1.141169  0.895862  4.478806
C    -1.166301  2.327489  5.050414
C    -0.647422  3.475566  4.154744
C    -1.797317  4.367599  3.677450
N    -1.510200  4.943489  2.311168
H    -0.101057  0.532224  4.478839
H    -1.668062  0.263847  5.208361
H    -0.559108  2.289987  5.964772
H    -2.186920  2.559798  5.376516
H    -0.111116  3.064150  3.288710
H    0.087541  4.081759  4.701651
H    -1.990228  5.199330  4.364920
H    -2.710348  3.771468  3.557756
H    -2.278535  5.538478  1.983274
H    -1.413799  4.109277  1.650331
H    -0.649272  5.500579  2.294920
N    -3.779811  0.444441  1.732352
C    -3.341350  -0.609407  0.832470
H    -4.699006  0.846197  1.569437
H    -2.743186  -0.224348  -0.007109
H    -4.225658  -1.108012  0.422166
H    -2.756272  -1.371219  1.362817
