34
Energy: -18219.2112726 eV PBE+vdW (tier 2 basis)
C    -0.956381  -0.949231  1.329208
C    -1.960731  -1.150571  2.445469
O    -1.801993  -1.982663  3.326162
H    -1.395482  -0.621594  0.379711
H    -0.426263  -1.894517  1.180618
H    -0.215466  -0.199309  1.640740
N    -3.106632  -0.358292  2.454875
C    -3.419546  0.814119  1.644284
C    -3.718236  0.475311  0.155484
O    -3.556973  1.324252  -0.726510
H    -3.653846  -0.502095  3.299416
H    -4.386614  1.168328  2.039530
C    -2.397430  1.975316  1.765845
C    -2.996168  3.382536  1.929362
C    -3.839377  3.885753  0.747638
C    -4.159997  5.369257  0.800969
N    -2.897211  6.190548  0.542871
H    -1.731518  1.965180  0.892735
H    -1.781062  1.777931  2.652241
H    -2.137888  4.059130  2.111584
H    -3.599611  3.428119  2.851022
H    -4.803634  3.360036  0.713042
H    -3.363955  3.623802  -0.210759
H    -4.535038  5.695752  1.779924
H    -4.875884  5.672256  0.027901
H    -2.525736  5.990772  -0.395945
H    -2.165717  5.936784  1.222369
H    -3.065264  7.202123  0.613581
N    -4.203037  -0.765710  -0.058497
C    -4.572561  -1.266466  -1.371319
H    -4.236686  -1.389059  0.742638
H    -5.631159  -1.556424  -1.394034
H    -3.961079  -2.137156  -1.642226
H    -4.402987  -0.468195  -2.100364
