34
Energy: -18219.8069406 eV PBE+vdW (tier 2 basis)
C    0.033738  -0.034297  1.316607
C    -0.456815  -0.725915  2.559948
O    0.192693  -1.668482  3.078095
H    1.114479  -0.187664  1.241950
H    -0.191132  1.038497  1.314343
H    -0.426661  -0.477110  0.420298
N    -1.625535  -0.342064  3.115553
C    -2.801580  0.171709  2.430517
C    -3.719935  0.730100  3.539407
O    -3.633435  0.268179  4.679453
H    -1.830422  -0.673190  4.061300
H    -2.507408  0.964546  1.729532
C    -3.505719  -0.967834  1.634292
C    -4.302962  -2.017396  2.438792
C    -3.651355  -2.814876  3.590159
C    -2.744868  -3.999453  3.273388
N    -1.433931  -3.665707  2.594000
H    -2.733234  -1.439333  1.003208
H    -4.207848  -0.511105  0.921206
H    -4.734727  -2.725862  1.713268
H    -5.168221  -1.503044  2.881297
H    -4.479176  -3.270580  4.155470
H    -3.174294  -2.146898  4.317501
H    -3.250768  -4.727685  2.624744
H    -2.474642  -4.511807  4.204638
H    -0.835757  -4.498880  2.547781
H    -0.826275  -2.874395  3.040107
H    -1.594125  -3.369358  1.625300
N    -4.631139  1.667248  3.193427
C    -4.745075  2.391133  1.931706
H    -5.207963  1.976384  3.971468
H    -3.864942  3.019489  1.733406
H    -5.617433  3.048364  1.994471
H    -4.906882  1.715027  1.082265
