34
Energy: -18220.2247483 eV PBE+vdW (tier 2 basis)
C    2.476424  -0.979949  1.035507
C    1.696398  -1.275198  2.296249
O    2.092543  -2.087840  3.137703
H    2.789476  -1.925174  0.577531
H    3.391234  -0.439233  1.313653
H    1.927458  -0.382896  0.298173
N    0.520886  -0.587411  2.433304
C    -0.355643  -0.497655  3.615602
C    0.327031  -1.018642  4.901247
O    0.146113  -2.159366  5.373776
H    0.297822  0.072469  1.694866
H    -0.479008  0.585384  3.777865
C    -1.810029  -1.003272  3.384055
C    -2.275881  -2.453280  3.633902
C    -1.928115  -3.559627  2.625517
C    -0.457278  -3.887211  2.404996
N    0.283870  -4.152700  3.685904
H    -2.083942  -0.702024  2.359804
H    -2.431382  -0.377290  4.041604
H    -3.374531  -2.402436  3.648511
H    -1.998057  -2.758017  4.650571
H    -2.335147  -3.305041  1.634569
H    -2.460929  -4.472747  2.934492
H    0.064711  -3.054492  1.927047
H    -0.343542  -4.767227  1.759956
H    1.297099  -4.151381  3.511374
H    0.006967  -5.040766  4.115480
H    0.139689  -3.341329  4.399934
N    1.075571  -0.116161  5.550420
C    1.826924  -0.445723  6.756398
H    1.185663  0.807311  5.148479
H    2.604639  -1.188053  6.534766
H    1.156958  -0.857237  7.519947
H    2.293100  0.466386  7.138801
