34
Energy: -18218.9975853 eV PBE+vdW (tier 2 basis)
C    0.049027  -0.960930  2.438714
C    -0.352489  -0.846341  3.893993
O    0.420232  -0.413040  4.741940
H    0.850108  -0.239187  2.255643
H    -0.761477  -0.810559  1.718920
H    0.457374  -1.966698  2.264050
N    -1.593880  -1.313491  4.300240
C    -2.823913  -1.603214  3.566987
C    -2.630545  -2.408447  2.260373
O    -3.050716  -1.980512  1.183447
H    -1.692684  -1.227949  5.309543
H    -3.402527  -2.271135  4.227623
C    -3.711606  -0.357875  3.339101
C    -3.056231  0.771081  2.537495
C    -3.978094  1.971713  2.268383
C    -4.318594  2.745520  3.531923
N    -5.166087  3.969946  3.193160
H    -4.011649  -0.004492  4.339690
H    -4.625330  -0.689589  2.823500
H    -2.754270  0.371736  1.562018
H    -2.144038  1.125327  3.042028
H    -4.904716  1.622688  1.782071
H    -3.474358  2.647657  1.557505
H    -3.423938  3.126530  4.040673
H    -4.909035  2.162275  4.248180
H    -5.410105  4.518727  4.028409
H    -6.041890  3.689600  2.730642
H    -4.663876  4.589674  2.542410
N    -2.024500  -3.619629  2.362526
C    -1.518475  -4.301726  3.545148
H    -1.931529  -4.092001  1.467735
H    -1.447616  -5.371368  3.322125
H    -2.201814  -4.186514  4.395707
H    -0.525789  -3.940024  3.847649
