34
Energy: -18219.2649386 eV PBE+vdW (tier 2 basis)
C    -0.441141  -0.793563  0.086202
C    -0.162074  -0.030548  1.365864
O    0.519245  0.982720  1.376362
H    0.473786  -0.783092  -0.515756
H    -1.207525  -0.251450  -0.484756
H    -0.770355  -1.829149  0.225836
N    -0.674294  -0.519747  2.567600
C    -1.700085  -1.533980  2.795524
C    -1.206135  -2.982575  2.543128
O    -2.010501  -3.913873  2.396490
H    -0.494073  0.127817  3.331075
H    -1.876432  -1.512617  3.884774
C    -3.051649  -1.181101  2.126348
C    -4.265943  -2.037890  2.549399
C    -4.680217  -3.106595  1.512057
C    -4.961418  -4.472615  2.105324
N    -6.095605  -4.400409  3.128268
H    -2.950809  -1.210590  1.033300
H    -3.239757  -0.130712  2.383680
H    -5.116566  -1.367123  2.740791
H    -4.024153  -2.518904  3.513580
H    -3.856882  -3.277089  0.807782
H    -5.537541  -2.760593  0.912629
H    -4.076756  -4.837751  2.641404
H    -5.275469  -5.210082  1.357346
H    -6.256243  -5.305482  3.587645
H    -6.976881  -4.104449  2.688175
H    -5.864260  -3.709734  3.856084
N    0.130506  -3.142218  2.575217
C    0.793743  -4.425426  2.424536
H    0.686304  -2.298682  2.685453
H    1.431876  -4.634285  3.292545
H    1.413367  -4.440184  1.518119
H    0.025994  -5.200968  2.346051
