34
Energy: -18218.8610121 eV PBE+vdW (tier 2 basis)
C    1.547521  0.470594  0.702331
C    0.812343  0.272401  2.004255
O    1.331860  0.466810  3.105142
H    2.591097  0.163878  0.825156
H    1.098519  -0.073058  -0.137453
H    1.541408  1.543348  0.462202
N    -0.494532  -0.137726  1.901772
C    -1.397425  -0.077040  3.047746
C    -1.337237  1.348116  3.681233
O    -1.700088  2.275102  2.971691
H    -0.921177  -0.108898  0.982738
H    -2.403221  -0.039045  2.608655
C    -1.385363  -1.350999  3.943560
C    -0.088108  -2.172403  3.979357
C    -0.178586  -3.485408  4.777731
C    0.218267  -3.404026  6.243305
N    -0.703982  -2.490895  7.043051
H    -2.178504  -2.015134  3.565798
H    -1.730528  -1.043230  4.945209
H    0.763155  -1.570409  4.328364
H    0.161289  -2.427400  2.941422
H    0.510543  -4.225588  4.345036
H    -1.181005  -3.937453  4.686623
H    0.175002  -4.382940  6.736089
H    1.226487  -2.990176  6.371981
H    -1.684981  -2.784922  6.946929
H    -0.641112  -1.509697  6.708995
H    -0.467622  -2.495908  8.043496
N    -1.055681  1.564792  5.013197
C    -0.113870  0.867379  5.859832
H    -1.199426  2.547317  5.236108
H    -0.633822  0.248363  6.628115
H    0.485423  1.593259  6.422246
H    0.580086  0.269726  5.259504
