34
Energy: -18219.5247681 eV PBE+vdW (tier 2 basis)
C    -2.035794  -1.778831  1.544930
C    -0.892783  -0.894778  1.953978
O    -0.014552  -1.294926  2.759032
H    -1.641486  -2.791810  1.402410
H    -2.545402  -1.447658  0.635032
H    -2.774172  -1.839906  2.358854
N    -0.814545  0.356499  1.442432
C    -1.981831  1.216065  1.201403
C    -2.360494  1.499967  -0.270025
O    -3.547964  1.428511  -0.573037
H    0.047853  0.829179  1.704967
H    -2.861380  0.672158  1.563649
C    -1.846704  2.524414  2.023499
C    -1.218103  2.349186  3.415626
C    -1.939574  1.396632  4.388201
C    -1.033412  0.914232  5.525467
N    -0.305225  -0.379793  5.197887
H    -2.851083  2.963356  2.098007
H    -1.240084  3.254471  1.468152
H    -1.153889  3.341372  3.885789
H    -0.168437  2.028211  3.306845
H    -2.371443  0.525806  3.871060
H    -2.799441  1.912330  4.836677
H    -1.595799  0.725267  6.446768
H    -0.263060  1.660423  5.755154
H    0.567660  -0.460041  5.730694
H    -0.074775  -0.559174  4.147366
H    -0.882145  -1.186609  5.461201
N    -1.398997  1.850023  -1.167699
C    0.040121  1.976786  -0.996003
H    -1.774914  2.005266  -2.099068
H    0.545281  1.002581  -0.928196
H    0.443464  2.506719  -1.864784
H    0.296986  2.578393  -0.112814
