34
Energy: -18219.4684976 eV PBE+vdW (tier 2 basis)
C    0.185263  -0.559884  0.025035
C    0.117057  -0.535420  1.536726
O    0.996603  -1.021452  2.250467
H    -0.027618  -1.581930  -0.316926
H    1.204320  -0.315785  -0.294158
H    -0.525748  0.122277  -0.455946
N    -0.993735  0.068224  2.065408
C    -1.342446  -0.046865  3.468733
C    -2.878603  -0.164663  3.533387
O    -3.579376  0.404414  2.697357
H    -1.767178  0.360462  1.468901
H    -0.852172  -0.952476  3.860484
C    -0.887803  1.173065  4.304334
C    0.628456  1.373851  4.272810
C    1.084804  2.593807  5.085518
C    2.591538  2.753426  4.985010
N    3.072254  3.962382  5.787727
H    -1.230956  1.034775  5.342290
H    -1.399623  2.066928  3.914003
H    0.955646  1.490389  3.229598
H    1.131714  0.467979  4.642506
H    0.789395  2.476522  6.142134
H    0.585450  3.502016  4.707169
H    2.925422  2.923003  3.953824
H    3.132267  1.888013  5.387935
H    2.823949  3.862467  6.781393
H    2.627565  4.825830  5.447256
H    4.091815  4.086390  5.727337
N    -3.363994  -0.884094  4.575851
C    -4.787191  -1.074401  4.811661
H    -2.705142  -1.393809  5.152931
H    -5.330921  -0.439469  4.105640
H    -5.052543  -0.786685  5.836892
H    -5.079532  -2.119884  4.645671
