34
Energy: -18220.0165172 eV PBE+vdW (tier 2 basis)
C    2.757840  0.287544  0.580447
C    1.957228  0.382112  1.854540
O    2.478692  0.814560  2.908969
H    3.613032  -0.377644  0.757150
H    3.165351  1.276073  0.333682
H    2.186804  -0.086385  -0.276357
N    0.675616  -0.026821  1.789638
C    -0.297312  -0.121423  2.897986
C    -1.673614  -0.392151  2.240244
O    -2.478312  0.515720  2.061839
H    0.346255  -0.335445  0.880085
H    -0.011216  -0.986300  3.517589
C    -0.356617  1.102116  3.831538
C    -0.320803  2.480940  3.163778
C    0.028195  3.625287  4.128848
C    1.334080  3.477574  4.907239
N    2.513177  3.206301  4.000062
H    0.471687  0.991239  4.541925
H    -1.282846  1.005622  4.415613
H    -1.294887  2.689506  2.705909
H    0.391871  2.478759  2.324032
H    -0.763816  3.739535  4.884459
H    0.043772  4.575997  3.572942
H    1.306048  2.641043  5.614975
H    1.556949  4.390268  5.472872
H    3.394603  3.232198  4.524272
H    2.576514  3.915015  3.260399
H    2.454388  2.232168  3.529753
N    -1.906155  -1.669637  1.822640
C    -1.151984  -2.879059  2.138343
H    -2.828463  -1.789010  1.410827
H    -1.291745  -3.199538  3.181410
H    -0.079630  -2.750433  1.946668
H    -1.503797  -3.684366  1.485625
