34
Energy: -18218.9873847 eV PBE+vdW (tier 2 basis)
C    0.472149  1.140552  0.281465
C    0.558783  0.019664  1.244873
O    1.805895  -0.295428  1.545057
H    1.203138  0.965333  -0.516033
H    0.765664  2.061930  0.808711
H    -0.515512  1.256097  -0.158655
N    -0.436531  -0.572168  1.870602
C    -1.875632  -0.543911  1.552015
C    -2.043821  -1.126980  0.107102
O    -1.088087  -1.167030  -0.662303
H    -0.177290  -1.284959  2.549833
H    -2.319082  -1.254661  2.265149
C    -2.565811  0.819826  1.760644
C    -2.700464  1.280765  3.218311
C    -1.389671  1.572853  3.956687
C    -1.589027  2.383461  5.241716
N    -0.305586  2.587773  5.917746
H    -3.570678  0.729005  1.323229
H    -2.061791  1.593757  1.166512
H    -3.295237  0.544454  3.783416
H    -3.309537  2.198316  3.201331
H    -0.694475  2.134202  3.311137
H    -0.874720  0.633761  4.222396
H    -2.357595  1.892560  5.870256
H    -1.993515  3.371071  4.975366
H    1.893941  -1.028380  2.184106
H    -0.059222  1.781019  6.491673
H    -0.350937  3.385316  6.550340
N    -3.291054  -1.551081  -0.182082
C    -3.666899  -2.090049  -1.485184
H    -4.006034  -1.504787  0.535737
H    -3.996857  -3.132066  -1.389905
H    -2.789203  -2.049744  -2.136134
H    -4.475029  -1.494571  -1.927596
