34
Energy: -18220.1295882 eV PBE+vdW (tier 2 basis)
C    -2.272129  0.639499  0.240286
C    -1.415934  0.282517  1.430932
O    -1.190309  1.055099  2.354626
H    -1.876374  1.553507  -0.219022
H    -2.329296  -0.149924  -0.518767
H    -3.285257  0.870247  0.593061
N    -0.871120  -0.990839  1.420192
C    -0.106313  -1.471029  2.557474
C    1.258820  -2.014010  2.121136
O    1.642202  -3.194517  2.343329
H    -1.094823  -1.616231  0.655132
H    0.099087  -0.546972  3.128475
C    -0.918341  -2.381851  3.508221
C    -1.865321  -3.424104  2.883732
C    -1.288870  -4.536449  1.992044
C    -0.592005  -5.694876  2.700778
N    0.612101  -5.243101  3.496304
H    -1.551988  -1.703748  4.097012
H    -0.223604  -2.819251  4.240287
H    -2.610735  -2.876719  2.288901
H    -2.445409  -3.882943  3.700444
H    -0.611235  -4.127385  1.227858
H    -2.119306  -4.994961  1.434984
H    -1.271786  -6.217615  3.385471
H    -0.228848  -6.423157  1.966432
H    1.046858  -4.332405  3.028204
H    0.353115  -5.002992  4.457190
H    1.325847  -5.975568  3.549938
N    2.098935  -1.180930  1.492742
C    1.937850  0.235779  1.179646
H    2.975712  -1.621008  1.222359
H    1.479672  0.377494  0.191670
H    2.928765  0.701107  1.179081
H    1.319800  0.741567  1.928903
