34
Energy: -18219.2435051 eV PBE+vdW (tier 2 basis)
C    0.099761  0.758860  0.197898
C    0.111485  0.159380  1.590039
O    1.140705  -0.041445  2.218927
H    1.123208  1.052778  -0.047671
H    -0.239973  0.025916  -0.548294
H    -0.556111  1.637603  0.128397
N    -1.116217  -0.144740  2.162426
C    -2.434206  -0.103643  1.553694
C    -3.311389  1.089672  2.024590
O    -4.500468  1.161427  1.698650
H    -1.022898  -0.593659  3.071602
H    -2.296418  0.047436  0.472722
C    -3.173353  -1.445879  1.764810
C    -4.331698  -1.670458  0.786563
C    -5.169409  -2.905843  1.143858
C    -6.348050  -3.033908  0.195499
N    -7.220200  -4.234463  0.561672
H    -3.549976  -1.484672  2.800230
H    -2.432068  -2.252784  1.662706
H    -3.933194  -1.777939  -0.235458
H    -4.966679  -0.773228  0.797142
H    -5.537505  -2.804513  2.179048
H    -4.550787  -3.818917  1.105317
H    -7.007012  -2.157589  0.234821
H    -6.037458  -3.192726  -0.844719
H    -7.579642  -4.143079  1.521867
H    -8.026746  -4.333703  -0.069358
H    -6.676897  -5.107578  0.520783
N    -2.671744  2.013063  2.774889
C    -3.313921  3.216450  3.273577
H    -1.694105  1.838137  2.985818
H    -4.345743  3.225054  2.908553
H    -2.795122  4.112768  2.909910
H    -3.320192  3.231625  4.371471
