34
Energy: -18220.3136502 eV PBE+vdW (tier 2 basis)
C    0.056639  1.231457  0.746878
C    -0.338493  0.026715  1.562405
O    0.437692  -0.921013  1.747593
H    0.203366  0.911439  -0.293409
H    1.021209  1.605225  1.109208
H    -0.679477  2.043051  0.764979
N    -1.599792  0.042949  2.090433
C    -2.298043  -1.082901  2.728386
C    -1.739195  -1.473071  4.114494
O    -2.531778  -1.670647  5.079931
H    -2.159857  0.870014  1.920603
H    -3.301911  -0.694837  2.948119
C    -2.461576  -2.288414  1.764216
C    -3.538196  -3.304427  2.175355
C    -3.131063  -4.291278  3.296372
C    -4.186321  -4.520053  4.373505
N    -4.574811  -3.224887  5.057692
H    -1.493818  -2.786369  1.615576
H    -2.740701  -1.859919  0.791532
H    -3.823064  -3.878734  1.284355
H    -4.451588  -2.747659  2.448591
H    -2.199016  -3.971421  3.781204
H    -2.905437  -5.274775  2.862555
H    -3.799782  -5.185754  5.153840
H    -5.101341  -4.970525  3.968762
H    -5.350968  -2.767380  4.571305
H    -3.719853  -2.508054  5.063756
H    -4.881284  -3.389391  6.021034
N    -0.425393  -1.613625  4.223988
C    0.255759  -1.977022  5.456915
H    0.119430  -1.443563  3.353089
H    -0.454450  -2.439341  6.148683
H    0.687773  -1.089044  5.938001
H    1.064947  -2.679422  5.228159
