34
Energy: -18220.1642882 eV PBE+vdW (tier 2 basis)
C    -3.112397  -0.665667  -0.202067
C    -2.583297  -0.392258  1.178295
O    -1.797437  0.562559  1.386343
H    -2.262429  -0.818437  -0.879544
H    -3.655980  0.216592  -0.562840
H    -3.771805  -1.539010  -0.251896
N    -2.968627  -1.224051  2.168160
C    -2.476613  -1.105103  3.542130
C    -2.554148  -2.477765  4.268085
O    -3.101314  -2.583453  5.358543
H    -3.647117  -1.949128  1.956304
H    -1.409813  -0.848423  3.446108
C    -3.197472  -0.012245  4.351257
C    -2.328553  0.627870  5.450015
C    -0.993920  1.260707  5.019145
C    -1.037324  2.614347  4.319140
N    -1.818707  2.609482  3.020242
H    -3.589146  0.735859  3.646530
H    -4.073755  -0.465234  4.833319
H    -2.105286  -0.151485  6.191573
H    -2.933939  1.374563  5.987826
H    -0.400946  0.564133  4.407412
H    -0.386669  1.428333  5.921087
H    -1.488939  3.385444  4.956690
H    -0.021779  2.939594  4.064342
H    -1.716919  1.699594  2.433891
H    -2.821864  2.710932  3.203825
H    -1.543535  3.397452  2.424365
N    -1.970144  -3.507928  3.599905
C    -1.904885  -4.859631  4.139963
H    -1.471895  -3.309901  2.739124
H    -2.599551  -4.921039  4.982839
H    -2.194955  -5.589321  3.374745
H    -0.893764  -5.096873  4.497792
