34
Energy: -18219.2983207 eV PBE+vdW (tier 2 basis)
C    -2.706127  -1.617894  2.031853
C    -1.294777  -1.338774  1.552069
O    -0.428707  -2.199807  1.503216
H    -2.753781  -2.666706  2.334802
H    -3.446601  -1.448859  1.237091
H    -2.983541  -0.988122  2.888799
N    -1.005938  -0.047015  1.141710
C    -1.845473  1.136715  1.234218
C    -1.597423  1.994533  -0.028333
O    -0.930614  3.039341  0.025052
H    -0.029500  0.082688  0.885176
H    -2.893427  0.802730  1.229273
C    -1.581136  1.951517  2.509017
C    -2.585683  3.096586  2.751546
C    -1.926607  4.380104  3.289909
C    -1.198867  5.115505  2.173728
N    -0.304649  6.218293  2.733629
H    -1.590479  1.258051  3.360264
H    -0.554293  2.340237  2.439491
H    -3.352677  2.775817  3.468051
H    -3.126933  3.341829  1.824488
H    -1.219839  4.108159  4.092838
H    -2.685868  5.038117  3.740714
H    -1.894025  5.611500  1.485603
H    -0.563741  4.449389  1.573668
H    -0.843958  6.898500  3.286373
H    0.174883  6.730094  1.981457
H    0.415900  5.822713  3.352145
N    -2.109787  1.542215  -1.195705
C    -2.847323  0.308632  -1.439134
H    -1.846077  2.102570  -2.001322
H    -2.213791  -0.580351  -1.319120
H    -3.713463  0.222099  -0.769899
H    -3.226474  0.332929  -2.465118
