34
Energy: -18219.6219842 eV PBE+vdW (tier 2 basis)
C    0.320458  -0.574126  1.545235
C    -0.511521  0.106129  2.583699
O    0.035295  0.831356  3.458270
H    -0.231789  -0.848583  0.643031
H    0.654195  -1.530121  1.978496
H    1.214022  0.024231  1.338698
N    -1.860480  -0.077031  2.663296
C    -2.866153  -0.095548  1.584936
C    -2.977334  -1.444111  0.840287
O    -1.993340  -2.133727  0.591944
H    -2.213100  0.314085  3.534024
H    -3.815318  0.082399  2.108565
C    -2.628637  1.081875  0.610064
C    -2.732215  2.454727  1.312501
C    -1.736004  3.525796  0.840395
C    -0.267561  3.324387  1.212648
N    -0.021206  3.321839  2.709004
H    -3.352790  1.026661  -0.214138
H    -1.644056  0.940586  0.140874
H    -2.630229  2.325334  2.401743
H    -3.745289  2.854902  1.171857
H    -2.059297  4.511838  1.212054
H    -1.765816  3.607726  -0.256780
H    0.336764  4.132512  0.784864
H    0.135491  2.374613  0.839914
H    -0.668085  3.950225  3.197968
H    0.930716  3.640610  2.919458
H    -0.093257  2.310112  3.122471
N    -4.227710  -1.795949  0.435962
C    -5.497759  -1.131010  0.694994
H    -4.246685  -2.671906  -0.078883
H    -5.533496  -0.117071  0.271370
H    -5.730516  -1.082218  1.768794
H    -6.291107  -1.711644  0.214699
