34
Energy: -18220.3639852 eV PBE+vdW (tier 2 basis)
C    -0.717779  0.757634  0.348966
C    -1.485339  0.843465  1.644381
O    -2.488099  1.554428  1.778395
H    -0.380884  1.763281  0.068609
H    -1.398647  0.415561  -0.440697
H    0.148889  0.088304  0.388567
N    -1.019522  0.073671  2.677597
C    -1.657592  0.030970  3.995813
C    -3.199308  -0.037888  3.839440
O    -3.976426  0.772682  4.385947
H    -0.164925  -0.454993  2.543555
H    -1.378163  -0.942753  4.427261
C    -1.180205  1.110511  4.998046
C    -0.873448  2.508860  4.415283
C    -1.456864  3.714932  5.168188
C    -2.979461  3.758443  5.314565
N    -3.696349  3.332488  4.056763
H    -0.276037  0.724022  5.485596
H    -1.940073  1.162009  5.790461
H    -1.200388  2.556585  3.370126
H    0.213876  2.652688  4.373027
H    -1.122687  4.628809  4.654000
H    -1.043103  3.776062  6.185506
H    -3.309052  4.769877  5.577553
H    -3.336681  3.073478  6.093072
H    -4.630256  3.747250  3.993867
H    -3.806744  2.250755  4.093608
H    -3.183904  3.558599  3.196399
N    -3.660537  -1.100550  3.168819
C    -5.077183  -1.319833  2.903532
H    -2.987616  -1.719535  2.730414
H    -5.657436  -1.116643  3.809269
H    -5.223639  -2.362619  2.607711
H    -5.434648  -0.662004  2.099539
