34
Energy: -18219.5827255 eV PBE+vdW (tier 2 basis)
C    0.517929  -0.322468  -0.127508
C    0.262268  -0.056452  1.335483
O    1.146180  0.318853  2.108758
H    -0.362953  -0.678643  -0.674648
H    1.323885  -1.060624  -0.218845
H    0.874744  0.604728  -0.593689
N    -1.027590  -0.241724  1.771422
C    -1.398833  0.006070  3.158531
C    -1.081525  -1.203977  4.100229
O    -1.996515  -1.858495  4.622867
H    -1.685494  -0.712793  1.160166
H    -0.794399  0.865192  3.486396
C    -2.883784  0.292943  3.322520
C    -3.557820  1.420214  2.547856
C    -4.981759  1.673208  3.080000
C    -5.881282  0.442633  3.210577
N    -5.560730  -0.408605  4.440869
H    -3.010179  0.469723  4.403685
H    -3.380714  -0.666949  3.091274
H    -3.602113  1.182384  1.474840
H    -2.985018  2.354454  2.631288
H    -5.511244  2.366747  2.411225
H    -4.937356  2.189693  4.054311
H    -5.795338  -0.231858  2.348936
H    -6.934084  0.727816  3.320412
H    -6.197548  -1.211774  4.517666
H    -5.650095  0.145326  5.302409
H    -4.586364  -0.768664  4.407082
N    0.232510  -1.429482  4.269356
C    0.765893  -2.526377  5.060273
H    0.869583  -0.821420  3.745154
H    1.470443  -2.146674  5.810782
H    1.288527  -3.251460  4.421811
H    -0.064577  -3.028545  5.565126
