34
Energy: -18220.1389405 eV PBE+vdW (tier 2 basis)
C    0.153101  -0.643331  -0.095314
C    -0.208735  -0.648625  1.373685
O    -0.063924  -1.619168  2.098120
H    0.205106  0.358975  -0.538779
H    -0.600984  -1.225524  -0.642695
H    1.112931  -1.154237  -0.227908
N    -0.712167  0.561119  1.864124
C    -1.401045  0.592020  3.159810
C    -2.126307  1.935012  3.282444
O    -1.661249  3.004150  2.816290
H    -1.111597  1.178396  1.159931
H    -2.166100  -0.204219  3.173618
C    -0.482125  0.290212  4.384843
C    0.910619  0.927588  4.452089
C    0.972329  2.440754  4.777668
C    1.620829  3.309761  3.707042
N    0.917797  3.153862  2.382950
H    -0.349158  -0.797158  4.390930
H    -1.051637  0.544954  5.292244
H    1.459743  0.695331  3.524616
H    1.460678  0.380370  5.228150
H    1.556356  2.601915  5.693557
H    -0.029974  2.833547  4.999890
H    2.675825  3.048052  3.553736
H    1.566342  4.372160  3.973490
H    1.086766  2.217382  1.989808
H    1.221047  3.855223  1.701094
H    -0.165756  3.180828  2.515944
N    -3.292323  1.900716  3.938538
C    -4.109326  3.072282  4.230028
H    -3.637709  0.993377  4.235213
H    -4.323298  3.122958  5.304288
H    -5.056360  3.026041  3.677910
H    -3.559496  3.965375  3.922436
