34
Energy: -18218.6434342 eV PBE+vdW (tier 2 basis)
C    -0.041134  0.388130  0.923991
C    -0.557915  0.367970  2.345932
O    0.147505  0.664789  3.306402
H    0.957305  0.832512  0.928332
H    0.025856  -0.637474  0.535595
H    -0.685655  0.959665  0.242328
N    -1.872036  0.001684  2.558315
C    -2.942666  -0.236550  1.594605
C    -2.577130  -1.443960  0.669055
O    -2.210500  -2.465186  1.239362
H    -2.057080  -0.224455  3.530016
H    -3.752925  -0.684108  2.191203
C    -3.518866  1.081306  1.028816
C    -3.892633  2.088713  2.140703
C    -2.749693  3.045100  2.525429
C    -2.944618  3.774585  3.841142
N    -4.194936  4.656488  3.814805
H    -4.420024  0.843076  0.449191
H    -2.821947  1.566104  0.332007
H    -4.225367  1.531606  3.033848
H    -4.765628  2.667329  1.791295
H    -2.560180  3.768609  1.715206
H    -1.815074  2.483874  2.655751
H    -2.108195  4.442555  4.077804
H    -3.087964  3.080535  4.679194
H    -4.346396  5.135140  4.712177
H    -5.030239  4.091285  3.609020
H    -4.120481  5.373999  3.081050
N    -2.706169  -1.418252  -0.690337
C    -2.944808  -0.347765  -1.647768
H    -2.473558  -2.327102  -1.082357
H    -3.964305  0.056091  -1.589599
H    -2.223702  0.475109  -1.547550
H    -2.818502  -0.767371  -2.650680
