34
Energy: -18219.8309458 eV PBE+vdW (tier 2 basis)
C    0.917141  -0.205779  2.154923
C    0.191279  0.630147  3.183420
O    0.770634  1.311062  4.024670
H    1.911176  0.226073  2.007747
H    0.391582  -0.255086  1.192773
H    1.053655  -1.233106  2.521220
N    -1.189995  0.627895  3.167386
C    -2.123318  -0.240984  2.480423
C    -3.527636  0.262848  2.810360
O    -3.793794  0.803474  3.912322
H    -1.598204  1.344052  3.759718
H    -1.984769  -0.157708  1.391144
C    -2.010402  -1.767193  2.838432
C    -1.415908  -2.180657  4.194168
C    -2.147809  -1.802316  5.501131
C    -1.605423  -0.554933  6.224730
N    -2.609034  0.572039  6.243489
H    -1.387648  -2.233948  2.063457
H    -3.006247  -2.223057  2.726669
H    -0.371182  -1.846563  4.267361
H    -1.357748  -3.277356  4.153613
H    -2.054049  -2.646980  6.194937
H    -3.229838  -1.699834  5.323403
H    -0.708666  -0.155229  5.737127
H    -1.350016  -0.770467  7.268228
H    -2.172132  1.451079  6.543182
H    -3.378468  0.373992  6.892294
H    -3.044841  0.705224  5.256268
N    -4.494415  0.092911  1.899830
C    -4.379097  -0.443253  0.544810
H    -5.408635  0.420204  2.202845
H    -4.035997  -1.485277  0.545420
H    -3.703872  0.163523  -0.072254
H    -5.371680  -0.415496  0.086476
