34
Energy: -18219.4089484 eV PBE+vdW (tier 2 basis)
C    0.844504  0.788251  0.895599
C    0.223716  -0.194447  1.863302
O    0.857414  -1.093687  2.410923
H    0.184198  1.622051  0.628622
H    1.117632  0.249857  -0.021533
H    1.771808  1.179661  1.329097
N    -1.117783  -0.027983  2.109481
C    -1.850590  -1.002431  2.892990
C    -3.343093  -0.783612  2.630805
O    -3.805168  0.358150  2.499871
H    -1.664444  0.680444  1.628941
H    -1.539927  -2.001367  2.557497
C    -1.554835  -0.943951  4.430944
C    -1.102897  0.415159  4.984885
C    -2.057289  1.613141  4.845716
C    -3.437804  1.442139  5.453129
N    -3.336492  1.169255  6.954699
H    -0.743906  -1.654216  4.633222
H    -2.440552  -1.327965  4.967431
H    -0.160189  0.693352  4.495553
H    -0.814545  0.267562  6.042754
H    -2.240207  1.827437  3.784832
H    -1.578625  2.513466  5.265181
H    -3.986801  0.598109  5.021304
H    -4.053330  2.342776  5.347018
H    -2.758242  0.334391  7.122998
H    -4.257179  1.016469  7.384641
H    -2.883983  1.955401  7.440192
N    -4.139124  -1.881251  2.613765
C    -3.737222  -3.285699  2.629873
H    -5.113529  -1.671158  2.414667
H    -3.138384  -3.527476  3.516912
H    -3.171601  -3.565256  1.730270
H    -4.643251  -3.898562  2.664985
