34
Energy: -18219.5706895 eV PBE+vdW (tier 2 basis)
C    -0.536763  2.910500  -0.042716
C    -0.623034  1.990845  1.155261
O    0.376129  1.426694  1.627510
H    -1.435896  3.518649  -0.196400
H    0.340002  3.560634  0.055737
H    -0.380399  2.294807  -0.939232
N    -1.863173  1.840482  1.690577
C    -2.229636  0.844777  2.685581
C    -3.755960  0.989107  2.861400
O    -4.307582  2.047993  2.548042
H    -2.659910  2.372773  1.339747
H    -1.978349  -0.152074  2.288563
C    -1.503443  0.964976  4.049979
C    -1.824356  2.186833  4.925422
C    -1.364525  3.570624  4.428988
C    0.084960  3.669477  3.974023
N    1.045154  3.134418  5.034345
H    -0.429120  0.880695  3.822676
H    -1.752776  0.066094  4.630831
H    -1.403833  1.997939  5.929542
H    -2.908370  2.250115  5.097591
H    -1.559608  4.314987  5.217443
H    -1.971622  3.880840  3.567932
H    0.386991  4.706341  3.786204
H    0.298579  3.061178  3.086019
H    2.021669  3.216321  4.724362
H    0.855787  2.136880  5.204099
H    0.946181  3.631324  5.929171
N    -4.444562  -0.047918  3.396278
C    -3.981417  -1.381410  3.752620
H    -5.434144  0.153233  3.515227
H    -3.144330  -1.691117  3.117166
H    -3.671285  -1.447953  4.806101
H    -4.796665  -2.095113  3.591243
