34
Energy: -18219.9079347 eV PBE+vdW (tier 2 basis)
C    0.052776  -1.056079  0.528191
C    -0.255291  0.096413  1.459109
O    0.449919  1.091301  1.555094
H    0.014691  -2.035338  1.023285
H    1.053037  -0.903103  0.115394
H    -0.667478  -1.074588  -0.302690
N    -1.425616  0.027523  2.201298
C    -2.260247  -1.133036  2.474917
C    -3.636164  -0.581594  2.840331
O    -3.803825  0.071389  3.901449
H    -1.583218  0.864224  2.755907
H    -2.341025  -1.708514  1.543304
C    -1.765238  -2.099220  3.609960
C    -0.368200  -1.859861  4.199792
C    -0.133306  -0.623104  5.087682
C    -1.107154  -0.431764  6.254570
N    -2.219794  0.534811  5.922839
H    -1.782727  -3.118530  3.201604
H    -2.511321  -2.108960  4.419338
H    0.385501  -1.839988  3.400586
H    -0.127902  -2.751986  4.798386
H    -0.089348  0.296605  4.484283
H    0.872973  -0.718393  5.517952
H    -0.595520  -0.027636  7.135761
H    -1.587497  -1.372717  6.552026
H    -2.873387  0.627206  6.708753
H    -2.813440  0.259657  5.038244
H    -1.833355  1.469534  5.747435
N    -4.646053  -0.799389  1.997068
C    -5.997263  -0.290865  2.218962
H    -4.450921  -1.298242  1.136560
H    -6.012759  0.805354  2.171351
H    -6.361934  -0.604112  3.204067
H    -6.654101  -0.695699  1.444554
