34
Energy: -18219.2088083 eV PBE+vdW (tier 2 basis)
C    0.641558  1.075146  0.127210
C    0.818976  0.465585  1.501274
O    1.928413  0.414083  2.035949
H    0.441399  0.279237  -0.603054
H    1.579806  1.565423  -0.147045
H    -0.190295  1.785892  0.054272
N    -0.263623  -0.125369  2.136619
C    -1.667573  0.315180  2.194169
C    -2.253478  0.655893  0.800719
O    -2.624926  1.795470  0.520163
H    0.051397  -0.587475  2.989368
H    -2.234467  -0.555787  2.559079
C    -1.917114  1.462293  3.197941
C    -0.961888  2.666709  3.083775
C    0.272722  2.575887  4.003049
C    1.477698  3.356112  3.507703
N    1.117361  4.822216  3.265892
H    -1.863038  1.052152  4.217952
H    -2.950129  1.799416  3.049853
H    -1.538517  3.574047  3.323915
H    -0.658675  2.777730  2.030283
H    0.631118  1.540431  4.077720
H    0.011668  2.881074  5.028979
H    2.307599  3.358061  4.223901
H    1.844668  2.966021  2.549886
H    0.337996  4.887737  2.595720
H    1.910995  5.354601  2.887884
H    0.813660  5.278029  4.136624
N    -2.332948  -0.400613  -0.043196
C    -2.825436  -0.291658  -1.407082
H    -1.966855  -1.292839  0.271185
H    -3.547386  -1.090130  -1.615252
H    -2.004936  -0.354481  -2.136315
H    -3.319323  0.678905  -1.512645
