34
Energy: -18218.5895214 eV PBE+vdW (tier 2 basis)
C    -0.976050  -0.338354  -1.213953
C    -0.118175  -0.065354  0.005086
O    1.103523  -0.019008  -0.057307
H    -1.434149  -1.334474  -1.141526
H    -0.327806  -0.314218  -2.093556
H    -1.782525  0.395531  -1.344178
N    -0.746048  0.130680  1.223768
C    -2.164125  0.066028  1.569278
C    -2.759123  -1.335446  1.217624
O    -2.184733  -2.303727  1.701858
H    -0.084576  0.082322  1.992480
H    -2.175774  0.007601  2.668855
C    -2.904597  1.370975  1.205287
C    -2.244679  2.575830  1.886063
C    -2.850248  3.919373  1.454498
C    -2.112192  5.072199  2.114789
N    -2.681336  6.419320  1.671994
H    -3.955211  1.295244  1.521644
H    -2.906817  1.530778  0.117994
H    -1.170671  2.566984  1.645723
H    -2.324605  2.471669  2.980517
H    -3.920524  3.957029  1.718753
H    -2.782269  4.014530  0.357575
H    -1.048259  5.091827  1.847317
H    -2.197437  5.053669  3.208486
H    -2.190341  7.208961  2.113073
H    -2.604384  6.531467  0.651618
H    -3.679121  6.493991  1.913525
N    -3.889718  -1.509414  0.466663
C    -4.669174  -0.614832  -0.375677
H    -4.128967  -2.496323  0.416625
H    -5.290322  0.083075  0.203409
H    -5.345181  -1.230350  -0.977854
H    -4.042207  -0.045222  -1.073836
