34
Energy: -18219.3099258 eV PBE+vdW (tier 2 basis)
C    0.049758  0.895729  -0.333582
C    0.140214  0.515956  1.129492
O    1.168362  0.604962  1.783304
H    -0.757515  1.615340  -0.527757
H    -0.134697  0.010938  -0.960215
H    1.005330  1.336386  -0.627926
N    -1.024829  0.058826  1.736578
C    -2.316265  -0.188539  1.121992
C    -3.251846  1.047346  1.050049
O    -4.296035  0.989588  0.389495
H    -0.876691  -0.245577  2.696177
H    -2.165242  -0.478686  0.070587
C    -2.997747  -1.370887  1.845710
C    -4.359764  -1.763813  1.266862
C    -4.953410  -3.037073  1.883330
C    -6.447390  -3.162951  1.615515
N    -6.743304  -2.981913  0.128617
H    -3.117114  -1.121350  2.913118
H    -2.307538  -2.227055  1.795081
H    -4.237123  -1.888021  0.176328
H    -5.051293  -0.916967  1.396532
H    -4.840390  -3.029080  2.977888
H    -4.424089  -3.936792  1.532007
H    -7.017807  -2.373763  2.121193
H    -6.860157  -4.138059  1.899033
H    -7.751548  -3.009069  -0.068674
H    -6.288572  -3.713484  -0.433859
H    -6.373684  -2.072888  -0.190970
N    -2.839341  2.130499  1.740306
C    -3.564265  3.389088  1.764187
H    -1.940949  2.058444  2.209206
H    -3.898531  3.630848  2.781813
H    -4.438253  3.289868  1.112845
H    -2.931257  4.206753  1.396662
