34
Energy: -18219.3652775 eV PBE+vdW (tier 2 basis)
C    1.284641  0.646613  0.738840
C    0.758975  0.100076  2.048483
O    1.486996  -0.339193  2.929048
H    1.917351  1.518193  0.948549
H    0.498499  0.943039  0.032989
H    1.926680  -0.109526  0.271075
N    -0.617954  0.095134  2.196735
C    -1.174649  -0.189273  3.519531
C    -0.779946  -1.614224  3.959300
O    -0.956939  -2.577450  3.203278
H    -1.142881  0.747493  1.621505
H    -0.758146  0.536746  4.233257
C    -2.706454  -0.010618  3.532947
C    -3.623458  -1.086426  2.925597
C    -3.596664  -1.304419  1.396383
C    -2.532964  -2.284499  0.925058
N    -2.712827  -2.569980  -0.570131
H    -2.934451  0.968409  3.077093
H    -2.999888  0.091778  4.587743
H    -4.649378  -0.787800  3.182172
H    -3.455298  -2.049867  3.426484
H    -3.477464  -0.337221  0.877841
H    -4.586221  -1.693055  1.101042
H    -2.602804  -3.253969  1.429056
H    -1.511075  -1.916889  1.060986
H    -2.007922  -3.240003  -0.903376
H    -2.618151  -1.710727  -1.126868
H    -3.642571  -2.963699  -0.768742
N    -0.346512  -1.773782  5.230374
C    0.144511  -0.746485  6.143489
H    -0.111015  -2.738570  5.445946
H    0.983388  -0.188758  5.704989
H    0.495452  -1.241869  7.053990
H    -0.650454  -0.048517  6.437647
