34
Energy: -18220.4030138 eV PBE+vdW (tier 2 basis)
C    -0.650781  -0.390889  0.192817
C    -0.331984  -0.398108  1.667009
O    0.806069  -0.542911  2.112482
H    -0.448904  -1.389563  -0.216294
H    0.026454  0.307441  -0.312754
H    -1.687827  -0.118326  -0.034091
N    -1.394142  -0.208304  2.526100
C    -1.198241  -0.362926  3.966683
C    -0.091999  0.611901  4.440047
O    0.828158  0.284545  5.223685
H    -2.339522  -0.234387  2.159972
H    -2.129359  -0.021933  4.447961
C    -0.940797  -1.825384  4.365638
C    -1.004351  -2.133819  5.878062
C    0.001694  -3.209946  6.324994
C    1.397104  -2.701239  6.679429
N    2.061589  -1.950939  5.553643
H    0.019325  -2.122137  3.924911
H    -1.690880  -2.435052  3.843488
H    -2.017027  -2.476027  6.127998
H    -0.843548  -1.222764  6.472339
H    0.072466  -4.003158  5.562976
H    -0.365509  -3.708798  7.233324
H    2.053519  -3.531167  6.968978
H    1.350849  -1.993309  7.517215
H    3.015415  -1.675387  5.809174
H    1.494503  -1.027153  5.330066
H    2.124425  -2.514724  4.699393
N    -0.229633  1.879328  4.039798
C    0.726531  2.927040  4.375120
H    -0.949711  2.077212  3.353358
H    0.924744  2.922510  5.452242
H    0.300770  3.893829  4.092079
H    1.675291  2.778799  3.841793
