34
Energy: -18219.9992217 eV PBE+vdW (tier 2 basis)
C    0.122577  0.994861  0.778338
C    -0.191616  0.100384  1.944712
O    0.608914  -0.075566  2.876405
H    1.143560  0.763440  0.451371
H    0.119935  2.043504  1.103898
H    -0.561804  0.871724  -0.067217
N    -1.390159  -0.574954  1.979876
C    -2.721649  -0.114604  1.597816
C    -2.783025  1.420790  1.607742
O    -2.398422  2.063608  2.607490
H    -1.388414  -1.283032  2.705668
H    -2.992348  -0.504989  0.603528
C    -3.781162  -0.587026  2.653154
C    -3.443123  -1.755115  3.599391
C    -2.400789  -1.578232  4.742838
C    -2.268648  -0.223347  5.445199
N    -1.360771  0.751423  4.735469
H    -4.686823  -0.865164  2.099225
H    -4.067813  0.280744  3.263972
H    -3.167977  -2.651674  3.022742
H    -4.399556  -2.012215  4.075578
H    -2.678438  -2.296584  5.526878
H    -1.391155  -1.904473  4.444101
H    -1.836526  -0.381826  6.439993
H    -3.237163  0.275028  5.581519
H    -1.833346  1.257673  3.913256
H    -1.032638  1.473183  5.384771
H    -0.512231  0.291638  4.315407
N    -3.309928  2.017106  0.533258
C    -3.504917  3.461216  0.441065
H    -3.597926  1.435574  -0.245689
H    -2.582756  3.982564  0.721442
H    -4.309385  3.791456  1.110763
H    -3.766846  3.715044  -0.589619
