34
Energy: -18218.482588 eV PBE+vdW (tier 2 basis)
C    0.438608  0.000529  1.703810
C    -0.556375  -0.483060  2.737701
O    -0.341512  -1.462098  3.436630
H    0.043252  -0.151484  0.689974
H    1.350549  -0.591591  1.813582
H    0.689579  1.062633  1.824822
N    -1.745934  0.215266  2.899621
C    -2.336055  1.304860  2.123461
C    -2.671050  0.853984  0.664470
O    -3.528739  -0.014842  0.555900
H    -2.397686  -0.317768  3.468762
H    -3.355016  1.385031  2.531329
C    -1.670621  2.668407  2.406691
C    -2.594784  3.848147  2.081921
C    -1.961449  5.236616  2.265628
C    -1.373102  5.513631  3.642594
N    -2.432048  5.357884  4.730767
H    -0.712038  2.783781  1.885552
H    -1.419816  2.645628  3.481302
H    -3.523968  3.761454  2.676462
H    -2.945925  3.782491  1.042190
H    -2.690774  6.022667  2.012584
H    -1.130397  5.365723  1.555582
H    -0.991419  6.537185  3.732448
H    -0.571263  4.815042  3.909394
H    -2.047096  5.534956  5.667771
H    -2.818919  4.403431  4.721155
H    -3.215399  6.008531  4.581075
N    -2.085536  1.383601  -0.456119
C    -1.004747  2.333973  -0.672263
H    -2.474078  0.950618  -1.290403
H    -1.291994  3.371173  -0.439991
H    -0.745621  2.305836  -1.735500
H    -0.097530  2.076668  -0.113237
