34
Energy: -18219.6678714 eV PBE+vdW (tier 2 basis)
C    -0.552688  -0.104118  0.836760
C    -0.049573  0.517806  2.106227
O    1.175076  0.689075  2.309180
H    -1.047457  -1.060132  1.054786
H    -1.302274  0.522820  0.333626
H    0.293009  -0.277166  0.166873
N    -0.935565  0.893687  3.079228
C    -2.214168  1.594020  2.842404
C    -3.257814  0.718800  2.085853
O    -3.894148  1.170761  1.140867
H    -0.447348  1.178524  3.925522
H    -2.641655  1.764439  3.843591
C    -2.007130  2.955543  2.155854
C    -1.559616  4.111189  3.070130
C    -0.242173  4.024482  3.869976
C    1.074347  4.307938  3.151667
N    1.445438  3.311177  2.075965
H    -2.967736  3.232699  1.701300
H    -1.331191  2.816198  1.294296
H    -2.362226  4.271223  3.806049
H    -1.542636  5.034725  2.469117
H    -0.159123  3.081545  4.429653
H    -0.286194  4.797573  4.652377
H    1.903879  4.298502  3.868877
H    1.055171  5.294507  2.669939
H    2.394600  3.491053  1.728536
H    0.813443  3.392496  1.271395
H    1.406353  2.270993  2.374962
N    -3.404749  -0.531176  2.589105
C    -4.359317  -1.492164  2.055619
H    -2.812788  -0.810147  3.363945
H    -4.943249  -0.990635  1.278153
H    -3.846277  -2.358364  1.616112
H    -5.035827  -1.842144  2.845154
