34
Energy: -18220.1093194 eV PBE+vdW (tier 2 basis)
C    -2.607184  0.133289  -1.797972
C    -1.545921  -0.170646  -0.781486
O    -0.468991  -0.725133  -1.119805
H    -2.114209  0.483226  -2.712105
H    -3.329896  0.882536  -1.459024
H    -3.146825  -0.787872  -2.059991
N    -1.742810  0.162115  0.511116
C    -2.984497  0.208816  1.262628
C    -2.551791  0.531695  2.712137
O    -1.411338  0.249142  3.098273
H    -0.940821  0.071752  1.143220
H    -3.624935  1.025891  0.897311
C    -3.797858  -1.128102  1.192868
C    -3.068209  -2.434215  0.822094
C    -2.076901  -3.089358  1.806107
C    -0.630909  -2.601491  1.900720
N    0.113253  -2.637995  0.581452
H    -4.587086  -0.990889  0.440669
H    -4.322539  -1.263677  2.150421
H    -2.610395  -2.345302  -0.174640
H    -3.872206  -3.170140  0.676100
H    -2.051681  -4.166542  1.573441
H    -2.476980  -3.028839  2.829879
H    -0.083875  -3.255209  2.591711
H    -0.559757  -1.578211  2.287704
H    1.124602  -2.593983  0.747461
H    -0.119207  -1.797271  -0.103434
H    -0.066562  -3.514640  0.078414
N    -3.498866  1.089928  3.489323
C    -3.298261  1.411272  4.896855
H    -4.389287  1.329306  3.066507
H    -4.016755  0.868347  5.523669
H    -3.416931  2.488857  5.065018
H    -2.281842  1.116583  5.171998
