34
Energy: -18219.5558234 eV PBE+vdW (tier 2 basis)
C    -1.891572  1.179250  -0.681551
C    -1.210772  0.978174  0.653162
O    0.015092  0.953875  0.776105
H    -1.338425  1.921908  -1.266396
H    -2.943408  1.476986  -0.595219
H    -1.849015  0.231869  -1.236995
N    -2.053558  0.845893  1.732149
C    -1.621751  0.253231  2.992031
C    -2.674172  -0.831234  3.322697
O    -3.842772  -0.675547  2.965485
H    -3.047685  0.671170  1.560661
H    -0.626204  -0.189265  2.831619
C    -1.561066  1.259669  4.169817
C    -0.273059  2.089966  4.302865
C    0.127425  3.000611  3.129680
C    -0.947032  3.946386  2.630743
N    -1.421958  4.880313  3.747373
H    -1.676241  0.698563  5.108889
H    -2.462896  1.892843  4.103599
H    0.572344  1.408538  4.476433
H    -0.342356  2.673162  5.240043
H    0.405030  2.380868  2.260652
H    1.030358  3.571961  3.399748
H    -1.841277  3.412662  2.285384
H    -0.586232  4.596903  1.825658
H    -2.154530  5.526294  3.427500
H    -0.639714  5.439544  4.113170
H    -1.800041  4.332108  4.531856
N    -2.225318  -1.885945  4.041236
C    -3.087906  -2.976457  4.475560
H    -1.228717  -1.962727  4.210226
H    -2.838078  -3.907989  3.950807
H    -4.120350  -2.702871  4.239346
H    -2.992018  -3.136643  5.556647
