34
Energy: -18220.128194 eV PBE+vdW (tier 2 basis)
C    -0.501347  0.222849  0.461674
C    -0.624402  -0.108335  1.927944
O    -0.039138  0.597052  2.778336
H    0.556099  0.174371  0.171688
H    -0.827518  1.259483  0.307423
H    -1.080362  -0.436047  -0.194885
N    -1.399637  -1.173776  2.236613
C    -1.758915  -1.719633  3.555354
C    -3.026991  -1.088889  4.200836
O    -3.367215  -1.464068  5.317211
H    -1.785291  -1.672735  1.441884
H    -2.035192  -2.767266  3.358966
C    -0.632906  -1.716095  4.599968
C    0.677223  -2.374894  4.149865
C    1.885413  -1.996692  5.024281
C    2.620577  -0.723888  4.615922
N    1.757620  0.516056  4.683101
H    -1.040555  -2.241347  5.473098
H    -0.485603  -0.681677  4.933428
H    0.905622  -2.129269  3.100187
H    0.550284  -3.466191  4.174116
H    2.641870  -2.793267  4.977281
H    1.589996  -1.937569  6.084704
H    2.970894  -0.785180  3.577282
H    3.490498  -0.549252  5.260873
H    2.311083  1.357847  4.488137
H    1.345035  0.628406  5.616042
H    0.959283  0.487730  3.953762
N    -3.697999  -0.161499  3.479954
C    -4.917057  0.458247  3.985493
H    -3.361891  0.092547  2.560724
H    -4.742739  0.886224  4.979964
H    -5.727621  -0.277507  4.069303
H    -5.220726  1.252839  3.297547
