34
Energy: -18219.2125721 eV PBE+vdW (tier 2 basis)
C    1.709565  -1.567220  0.385762
C    0.911923  -1.848849  1.636577
O    1.256423  -2.639721  2.498092
H    2.542253  -0.898137  0.645822
H    1.125499  -1.094194  -0.413801
H    2.149134  -2.500666  0.018866
N    -0.297387  -1.141414  1.759028
C    -0.868584  -1.005412  3.110228
C    -1.822087  -2.106471  3.603020
O    -2.309108  -2.010358  4.710104
H    -0.298808  -0.266891  1.237324
H    -0.036497  -1.038547  3.831555
C    -1.591285  0.353539  3.279848
C    -3.008484  0.519110  2.705654
C    -3.179122  0.615724  1.169297
C    -3.879869  -0.547484  0.476184
N    -3.054648  -1.810711  0.433531
H    -0.926397  1.140721  2.889543
H    -1.659637  0.526496  4.360419
H    -3.402548  1.446331  3.140858
H    -3.663240  -0.269374  3.109569
H    -2.221283  0.823701  0.664668
H    -3.801730  1.490992  0.936665
H    -4.114065  -0.288715  -0.563966
H    -4.820059  -0.805588  0.980477
H    -3.463828  -2.494302  -0.212371
H    -2.923666  -2.298963  1.403104
H    -2.092353  -1.610253  0.127160
N    -2.297728  -3.137343  2.731629
C    -1.395354  -4.117733  2.065707
H    -2.992125  -3.637218  3.294533
H    -0.966714  -3.705253  1.146741
H    -0.569859  -4.422779  2.716825
H    -1.998145  -4.994450  1.806889
