34
Energy: -18219.0132366 eV PBE+vdW (tier 2 basis)
C    -0.398662  -0.742602  0.954815
C    -1.068084  -0.730755  2.312177
O    -0.691328  -1.447731  3.231155
H    0.624205  -1.105774  1.087587
H    -0.926977  -1.452277  0.301647
H    -0.391205  0.223216  0.437519
N    -2.173174  0.083823  2.505446
C    -2.788296  1.079427  1.635192
C    -3.075125  0.580852  0.192540
O    -2.654452  1.204417  -0.781646
H    -2.582593  -0.055253  3.424689
H    -3.772227  1.290682  2.087240
C    -2.002864  2.401902  1.564393
C    -1.796480  3.058705  2.930420
C    -0.746348  4.183297  2.915495
C    -1.118545  5.310716  1.965100
N    -0.047222  6.398577  1.980799
H    -2.540392  3.062503  0.869785
H    -1.029374  2.200658  1.091632
H    -1.449533  2.307920  3.654574
H    -2.749616  3.450262  3.321614
H    0.226432  3.757969  2.615539
H    -0.625819  4.584423  3.935153
H    -2.057888  5.803837  2.245520
H    -1.192823  4.979005  0.922782
H    -0.277671  7.177015  1.348871
H    0.072397  6.783626  2.927860
H    0.863081  6.015638  1.690234
N    -3.817767  -0.549207  0.057362
C    -4.438473  -1.378496  1.081221
H    -3.950419  -0.819856  -0.912754
H    -3.728759  -2.077365  1.544946
H    -5.242342  -1.957111  0.614069
H    -4.893023  -0.766668  1.870800
