34
Energy: -18219.5949671 eV PBE+vdW (tier 2 basis)
C    0.785585  -0.576428  0.914579
C    0.306382  -0.526171  2.347263
O    1.094842  -0.556936  3.306268
H    1.590835  0.153974  0.771356
H    -0.007441  -0.393686  0.180799
H    1.215802  -1.569262  0.727390
N    -1.037621  -0.428054  2.516432
C    -1.715550  -0.633792  3.786537
C    -3.078547  -1.262939  3.418346
O    -3.559366  -1.061013  2.302498
H    -1.676304  -0.492401  1.719732
H    -1.106705  -1.325008  4.389364
C    -1.957831  0.655962  4.608500
C    -0.675728  1.315615  5.151150
C    -0.015286  2.321527  4.182698
C    1.503668  2.311138  4.229318
N    2.008125  2.538422  5.653369
H    -2.604316  0.395420  5.457552
H    -2.531326  1.367793  3.995675
H    0.034435  0.503870  5.385556
H    -0.921477  1.825409  6.095809
H    -0.406022  3.336856  4.353898
H    -0.275215  2.074002  3.144811
H    1.957946  3.098050  3.615928
H    1.883414  1.324542  3.926834
H    3.032454  2.477200  5.705540
H    1.614687  1.818187  6.275474
H    1.722232  3.457052  6.016897
N    -3.717402  -1.994993  4.364426
C    -3.224101  -2.416934  5.667471
H    -4.622868  -2.342566  4.061921
H    -2.230353  -2.878884  5.596935
H    -3.910113  -3.170005  6.066875
H    -3.181825  -1.588787  6.390041
