34
Energy: -18220.3327967 eV PBE+vdW (tier 2 basis)
C    1.246599  0.062929  0.220361
C    0.427509  -0.034883  1.485869
O    0.841176  -0.563993  2.513770
H    1.305617  -0.934203  -0.236634
H    0.840113  0.762498  -0.519364
H    2.268257  0.359889  0.481481
N    -0.831606  0.530008  1.428681
C    -1.814235  0.417567  2.505495
C    -1.201005  0.760667  3.880127
O    -1.519625  0.149198  4.927294
H    -1.155822  0.894479  0.539809
H    -2.541386  1.226568  2.322997
C    -2.620547  -0.892581  2.521052
C    -1.821433  -2.204087  2.686337
C    -2.558370  -3.297941  3.478197
C    -2.282794  -3.282844  4.978133
N    -2.740874  -2.009843  5.645576
H    -3.201447  -0.933491  1.588291
H    -3.378168  -0.780056  3.311464
H    -0.851997  -2.001857  3.160732
H    -1.576198  -2.592888  1.689995
H    -2.234171  -4.289796  3.132458
H    -3.644494  -3.263940  3.289567
H    -2.779559  -4.120123  5.484307
H    -1.204958  -3.353140  5.173240
H    -2.529046  -2.028703  6.648976
H    -2.248368  -1.111193  5.230830
H    -3.755708  -1.893544  5.553942
N    -0.410908  1.835931  3.925965
C    0.270015  2.272669  5.137094
H    -0.128966  2.239977  3.039156
H    0.634613  3.293173  4.988375
H    1.118765  1.614381  5.368993
H    -0.428491  2.259231  5.979874
