34
Energy: -18218.9352774 eV PBE+vdW (tier 2 basis)
C    -2.549885  1.809710  0.939076
C    -1.245496  1.105856  1.238295
O    -0.178797  1.692555  1.375026
H    -3.057496  1.390837  0.058977
H    -2.336724  2.867121  0.765162
H    -3.247244  1.721098  1.784691
N    -1.280839  -0.277785  1.346576
C    -2.461068  -1.122302  1.446667
C    -3.333249  -1.022916  2.731446
O    -4.538248  -1.230363  2.605650
H    -0.399991  -0.649644  1.694007
H    -3.176972  -0.805679  0.673853
C    -2.111013  -2.598745  1.179946
C    -1.914354  -2.959614  -0.303015
C    -0.690993  -2.322610  -0.979770
C    -0.595747  -2.580182  -2.473597
N    -0.459230  -4.074259  -2.772300
H    -2.939940  -3.208241  1.562855
H    -1.220055  -2.883625  1.764325
H    -2.826958  -2.674640  -0.853023
H    -1.853522  -4.063185  -0.354069
H    0.241669  -2.640971  -0.483677
H    -0.722879  -1.230293  -0.858403
H    0.279131  -2.100862  -2.928313
H    -1.496438  -2.254067  -3.009422
H    0.400904  -4.454462  -2.354422
H    -0.432381  -4.264518  -3.782360
H    -1.252223  -4.593075  -2.368900
N    -2.777079  -0.719171  3.935687
C    -1.381258  -0.585583  4.338286
H    -3.475123  -0.672929  4.672872
H    -1.342795  -0.626907  5.431681
H    -0.934582  0.365729  4.020237
H    -0.765568  -1.416166  3.966455
