34
Energy: -18220.060832 eV PBE+vdW (tier 2 basis)
C    0.486518  -0.810580  -0.578136
C    0.319619  -1.421917  0.782453
O    0.946286  -2.467002  1.101201
H    1.492238  -1.043204  -0.942318
H    0.330536  0.273812  -0.577493
H    -0.228388  -1.261870  -1.281869
N    -0.507104  -0.845126  1.675203
C    -1.705482  -0.057790  1.441064
C    -2.225307  0.255995  2.863723
O    -1.907704  -0.480001  3.807801
H    -0.505354  -1.203669  2.637278
H    -1.455958  0.879067  0.924308
C    -2.794465  -0.828528  0.606857
C    -2.641204  -2.356174  0.555097
C    -2.786714  -3.118984  1.891865
C    -1.923963  -4.377946  1.994981
N    -0.530708  -4.091580  2.514000
H    -2.768740  -0.449915  -0.423825
H    -3.788551  -0.569157  0.999211
H    -1.679688  -2.610403  0.087943
H    -3.395023  -2.733916  -0.150299
H    -3.832330  -3.430782  2.018918
H    -2.578295  -2.470283  2.755944
H    -1.800222  -4.870315  1.021769
H    -2.369337  -5.105374  2.684702
H    0.013677  -4.959611  2.573471
H    -0.585802  -3.711635  3.466389
H    0.085590  -3.376425  1.911244
N    -3.048906  1.312306  3.010808
C    -3.422000  2.307739  2.010420
H    -3.377410  1.447174  3.963055
H    -2.549068  2.861975  1.638746
H    -4.097096  3.026705  2.483258
H    -3.954843  1.860734  1.161101
