34
Energy: -18219.3708024 eV PBE+vdW (tier 2 basis)
C    -2.527106  0.175720  -0.395627
C    -2.202324  0.655848  1.001957
O    -1.104400  0.436903  1.530188
H    -2.234798  -0.876664  -0.486857
H    -1.915730  0.742819  -1.110308
H    -3.582421  0.285544  -0.671746
N    -3.191142  1.352244  1.635844
C    -3.106514  1.980351  2.960183
C    -2.270772  3.290462  3.031871
O    -2.739320  4.264258  3.616158
H    -4.013607  1.582339  1.090597
H    -4.125703  2.317601  3.188339
C    -2.646093  1.028811  4.081800
C    -3.471903  -0.253591  4.195455
C    -2.916968  -1.167573  5.297894
C    -3.699574  -2.464374  5.398271
N    -3.112989  -3.365075  6.485029
H    -2.710215  1.603090  5.018386
H    -1.591412  0.767688  3.925840
H    -3.453088  -0.791323  3.235182
H    -4.526497  -0.012677  4.406155
H    -2.945494  -0.638516  6.265472
H    -1.858501  -1.387540  5.078753
H    -3.663571  -3.048809  4.470404
H    -4.749792  -2.304431  5.672697
H    -3.135024  -2.893908  7.399981
H    -2.128677  -3.586737  6.280641
H    -3.625427  -4.252786  6.573952
N    -1.042103  3.234481  2.462175
C    -0.127802  4.363839  2.469084
H    -0.734907  2.337326  2.082561
H    -0.658283  5.230172  2.876393
H    0.211760  4.592897  1.450739
H    0.751189  4.159638  3.096538
