34
Energy: -18219.6635025 eV PBE+vdW (tier 2 basis)
C    -0.762508  -0.498340  -0.246094
C    -0.672421  0.095058  1.118727
O    0.050290  1.129235  1.286329
H    0.240496  -0.837412  -0.541096
H    -1.455679  -1.343350  -0.305575
H    -1.061628  0.279549  -0.959232
N    -1.356087  -0.470642  2.123387
C    -1.166579  -0.268652  3.583833
C    -1.360563  1.198950  3.960559
O    -0.711566  2.101084  3.357280
H    -1.913379  -1.281379  1.873248
H    -1.959151  -0.865290  4.050507
C    0.202573  -0.833202  4.035563
C    0.454028  -0.885716  5.549940
C    0.896311  0.417360  6.238400
C    2.110713  1.107435  5.602805
N    3.205668  0.157933  5.384204
H    1.014006  -0.283575  3.539305
H    0.238092  -1.858124  3.638557
H    1.252956  -1.624536  5.691594
H    -0.428347  -1.299753  6.064652
H    1.133915  0.166702  7.284475
H    0.080040  1.152699  6.298693
H    1.834941  1.526219  4.622239
H    2.377788  1.975783  6.233963
H    3.973186  0.604367  4.883184
H    -0.189412  1.631324  2.290396
H    3.592656  -0.158283  6.274958
N    -2.192897  1.541499  4.941301
C    -2.979670  0.687036  5.827877
H    -2.201288  2.542645  5.132571
H    -3.510468  -0.088999  5.265424
H    -3.730265  1.312290  6.319804
H    -2.352837  0.220102  6.598441
