34
Energy: -18219.5060106 eV PBE+vdW (tier 2 basis)
C    0.843927  -0.732744  0.057410
C    0.119371  -0.813495  1.384524
O    0.131683  -1.817176  2.093972
H    1.848501  -1.155350  0.170171
H    0.309040  -1.358845  -0.669287
H    0.913214  0.284414  -0.347224
N    -0.568187  0.314187  1.756073
C    -1.445952  0.327379  2.910061
C    -2.331592  1.577129  2.781789
O    -1.897315  2.620340  2.277635
H    -0.610486  1.135152  1.158106
H    -2.077872  -0.575113  2.875561
C    -0.692382  0.267051  4.276175
C    0.632170  1.037107  4.345054
C    0.503217  2.566700  4.329083
C    1.826176  3.291288  4.180703
N    2.775767  2.937816  5.328990
H    -0.470642  -0.790024  4.465134
H    -1.375159  0.603199  5.071804
H    1.263285  0.713051  3.501417
H    1.138554  0.694343  5.266580
H    -0.117456  2.880911  3.473855
H    -0.026861  2.926824  5.227060
H    2.355392  3.000436  3.264150
H    1.721290  4.382419  4.199093
H    3.699853  3.374150  5.220196
H    2.383831  3.238456  6.231283
H    2.901716  1.916515  5.374775
N    -3.580512  1.446541  3.282379
C    -4.560187  2.522481  3.284040
H    -3.870597  0.529975  3.604925
H    -4.914556  2.723915  4.303120
H    -5.420100  2.267254  2.651437
H    -4.078125  3.418646  2.882519
