34
Energy: -18220.1394381 eV PBE+vdW (tier 2 basis)
C    -1.278022  -0.739952  -0.307940
C    -1.095970  -1.014877  1.164535
O    -0.321333  -1.852542  1.608274
H    -0.365705  -0.263315  -0.691275
H    -2.133404  -0.092166  -0.535031
H    -1.388420  -1.692677  -0.838482
N    -1.884753  -0.269516  2.035541
C    -1.527382  -0.307620  3.451977
C    -1.610787  -1.744996  3.984140
O    -2.577289  -2.515497  3.745647
H    -2.238647  0.617686  1.686944
H    -0.474619  -0.005546  3.553694
C    -2.351657  0.711057  4.279677
C    -3.877396  0.805361  4.092078
C    -4.736896  -0.344988  4.671876
C    -5.566363  -1.125179  3.655064
N    -4.706023  -1.754524  2.591483
H    -1.930498  1.701342  4.048915
H    -2.123764  0.538788  5.342240
H    -4.116327  0.965825  3.027223
H    -4.182005  1.743389  4.574180
H    -5.454817  0.063595  5.395487
H    -4.113397  -1.047244  5.240788
H    -6.310132  -0.485611  3.161745
H    -6.102642  -1.942334  4.152065
H    -5.192267  -2.518633  2.114777
H    -3.735587  -2.120540  3.051727
H    -4.423549  -1.072678  1.881108
N    -0.647082  -2.157119  4.815235
C    0.646165  -1.531054  5.078586
H    -0.775672  -3.113787  5.135626
H    1.196678  -2.174946  5.770517
H    0.533500  -0.550076  5.556156
H    1.231143  -1.433041  4.154160
