34
Energy: -18219.4763932 eV PBE+vdW (tier 2 basis)
C    -0.378079  0.095244  0.415132
C    -0.558322  0.269548  1.889469
O    0.347960  0.793531  2.591772
H    -0.358965  -0.974972  0.171445
H    -1.214426  0.518366  -0.157568
H    0.555495  0.578746  0.116970
N    -1.690167  -0.136103  2.524398
C    -3.097678  -0.166212  2.108927
C    -3.301168  -0.916891  0.764498
O    -2.592682  -1.878423  0.495803
H    -1.559561  -0.187490  3.531836
H    -3.580591  -0.852839  2.824018
C    -3.762784  1.213514  2.343979
C    -3.386474  2.439441  1.486418
C    -1.993958  3.099578  1.563496
C    -1.498126  3.677969  2.889367
N    -0.955820  2.658171  3.871180
H    -3.632808  1.450422  3.415643
H    -4.852728  1.074823  2.258162
H    -4.129925  3.216063  1.724522
H    -3.552043  2.200093  0.425283
H    -2.039425  3.968230  0.888932
H    -1.209721  2.468991  1.130658
H    -2.280115  4.249111  3.407461
H    -0.663353  4.359948  2.690152
H    -0.377688  3.119641  4.581712
H    -0.336569  1.865869  3.388077
H    -1.718244  2.188855  4.367816
N    -4.328256  -0.486440  -0.013716
C    -4.742624  -1.200051  -1.215946
H    -4.918913  0.266463  0.316422
H    -3.947581  -1.901919  -1.483601
H    -5.669101  -1.764338  -1.043994
H    -4.899594  -0.493373  -2.039275
