34
Energy: -18220.0355474 eV PBE+vdW (tier 2 basis)
C    -0.879928  2.008618  1.178494
C    -2.221754  2.436101  1.736506
O    -2.655033  3.570431  1.637203
H    -0.485397  2.840490  0.589899
H    -0.952409  1.118885  0.537817
H    -0.165079  1.789868  1.985364
N    -3.001763  1.459697  2.365731
C    -2.580483  0.145646  2.811717
C    -3.346913  -0.988413  2.104190
O    -3.245670  -2.188180  2.471431
H    -3.822082  1.865664  2.814727
H    -1.543434  0.016034  2.466486
C    -2.600481  -0.014030  4.359402
C    -1.234426  -0.355151  4.983458
C    -0.534817  -1.639216  4.507942
C    -1.040111  -2.966179  5.066058
N    -2.474725  -3.262258  4.685316
H    -3.377162  -0.736435  4.647691
H    -2.927700  0.943709  4.784624
H    -1.339078  -0.376547  6.079797
H    -0.555487  0.485681  4.775704
H    0.522783  -1.584619  4.804281
H    -0.522227  -1.696816  3.408154
H    -0.972126  -2.998548  6.160764
H    -0.435661  -3.789841  4.669172
H    -2.639038  -4.270497  4.607429
H    -2.755458  -2.775817  3.725709
H    -3.123906  -2.909803  5.394562
N    -4.084198  -0.642478  1.053662
C    -4.824402  -1.591960  0.232558
H    -4.091332  0.349919  0.825726
H    -4.142884  -2.188514  -0.387885
H    -5.507877  -1.036812  -0.415660
H    -5.400135  -2.272603  0.869911
