34
Energy: -18219.8974743 eV PBE+vdW (tier 2 basis)
C    -0.805465  0.831546  -0.019745
C    -0.395787  0.748525  1.435820
O    0.543745  1.393575  1.868619
H    -0.904687  1.887325  -0.296070
H    0.020178  0.423034  -0.618151
H    -1.718457  0.292697  -0.287616
N    -1.033796  -0.167720  2.284004
C    -2.389805  -0.714010  2.251981
C    -2.634996  -1.672359  1.070641
O    -3.780600  -1.888756  0.603433
H    -0.630016  -0.098172  3.217052
H    -2.414666  -1.412048  3.107833
C    -3.519303  0.297745  2.569277
C    -3.779048  1.501091  1.647558
C    -4.407471  1.278958  0.263092
C    -5.858966  0.809246  0.225593
N    -6.029605  -0.619497  0.713486
H    -3.256702  0.709385  3.554757
H    -4.437183  -0.279498  2.759061
H    -2.836309  2.048655  1.509037
H    -4.422335  2.198847  2.207104
H    -3.801383  0.605178  -0.357788
H    -4.399431  2.244060  -0.265133
H    -6.231399  0.833733  -0.804529
H    -6.512424  1.448877  0.831914
H    -6.393799  -0.647353  1.669589
H    -5.060882  -1.151898  0.711766
H    -6.690467  -1.138143  0.127637
N    -1.561816  -2.341743  0.647325
C    -1.573475  -3.365220  -0.386994
H    -0.678708  -2.080304  1.081167
H    -2.610188  -3.582371  -0.656844
H    -1.031574  -3.019895  -1.277192
H    -1.096582  -4.279070  -0.013335
