34
Energy: -18220.0389403 eV PBE+vdW (tier 2 basis)
C    -1.949107  1.203678  0.405616
C    -0.789682  0.399813  0.956926
O    0.297433  0.335128  0.411083
H    -2.749030  0.544417  0.037629
H    -1.575681  1.789293  -0.438202
H    -2.384550  1.884257  1.150286
N    -0.985566  -0.269467  2.170450
C    -2.245946  -0.541028  2.834960
C    -2.342433  0.132340  4.219005
O    -3.293030  -0.117992  5.005100
H    -0.199418  -0.878901  2.393539
H    -3.026732  -0.037033  2.245265
C    -2.588449  -2.057414  2.899773
C    -3.901883  -2.446741  2.195613
C    -5.197592  -1.776987  2.682691
C    -5.817258  -2.297451  3.976160
N    -4.921111  -2.108641  5.180994
H    -2.564025  -2.398818  3.944250
H    -1.774639  -2.600445  2.401877
H    -4.015553  -3.541694  2.234883
H    -3.789236  -2.207405  1.127366
H    -5.071495  -0.685728  2.761630
H    -5.969882  -1.922299  1.913280
H    -6.064229  -3.364480  3.907750
H    -6.744337  -1.752666  4.188567
H    -5.469694  -1.978486  6.036428
H    -4.328077  -2.929916  5.331238
H    -4.238793  -1.240312  5.053896
N    -1.396931  1.022844  4.505511
C    -1.336781  1.812986  5.726175
H    -0.684705  1.144221  3.786111
H    -2.135720  1.486187  6.397045
H    -1.469963  2.878027  5.497879
H    -0.365991  1.673199  6.216363
