34
Energy: -18218.8111863 eV PBE+vdW (tier 2 basis)
C    0.171381  0.221240  -0.011981
C    0.052534  0.081945  1.486685
O    1.018767  0.168949  2.243785
H    1.122066  -0.209235  -0.341952
H    -0.656682  -0.244047  -0.560210
H    0.187477  1.293257  -0.255338
N    -1.217723  -0.141778  1.968505
C    -1.526317  0.055476  3.387085
C    -0.962507  1.437738  3.846951
O    -1.397989  2.412765  3.242993
H    -1.979629  0.021425  1.319734
H    -2.602233  0.278109  3.412012
C    -1.359573  -1.225794  4.241436
C    -0.144804  -2.112250  3.941846
C    0.095273  -3.220955  4.979313
C    -1.039357  -4.231147  5.036684
N    -0.706962  -5.351882  6.020463
H    -2.279208  -1.814235  4.085071
H    -1.373545  -0.930170  5.302574
H    0.764460  -1.505849  3.880908
H    -0.256686  -2.564432  2.944719
H    0.237459  -2.769259  5.976287
H    1.032583  -3.743188  4.724432
H    -1.983627  -3.797156  5.385903
H    -1.212358  -4.718698  4.068864
H    -1.455648  -6.055158  6.078312
H    0.159735  -5.833358  5.743340
H    -0.555006  -4.973088  6.965396
N    -0.164948  1.599510  4.948947
C    0.868236  0.721890  5.483484
H    -0.000820  2.592736  5.096581
H    0.449691  -0.095469  6.088458
H    1.501142  1.317867  6.148892
H    1.498528  0.310773  4.684167
