34
Energy: -18218.9786662 eV PBE+vdW (tier 2 basis)
C    0.052284  -1.565657  2.060200
C    -1.422524  -1.704372  2.096414
O    -1.975864  -2.908633  2.137150
H    0.479425  -2.362627  1.436677
H    0.447084  -1.683219  3.081303
H    0.348180  -0.599259  1.641856
N    -2.301595  -0.732178  2.121104
C    -2.128109  0.745682  2.114839
C    -1.679088  1.167729  0.684698
O    -0.542855  0.878829  0.310224
H    -3.269328  -1.056299  2.150313
H    -3.134939  1.117003  2.340237
C    -1.161670  1.247646  3.206279
C    -1.471172  2.667091  3.712885
C    -1.423285  3.796516  2.676714
C    -0.070193  4.016686  1.995722
N    -0.231863  4.931495  0.860514
H    -0.133856  1.193400  2.825484
H    -1.230369  0.558352  4.060951
H    -0.753113  2.879975  4.519636
H    -2.462238  2.663739  4.193918
H    -1.728206  4.727764  3.179354
H    -2.172532  3.640172  1.886499
H    0.664669  4.353376  2.753490
H    0.312940  3.069737  1.588325
H    -1.298693  -3.608719  2.103714
H    -0.458719  5.873241  1.184419
H    0.640875  5.012655  0.339171
N    -2.566476  1.821685  -0.095127
C    -3.933797  2.231769  0.201453
H    -2.161557  2.142823  -0.971562
H    -4.380510  2.611402  -0.722195
H    -3.977466  3.035763  0.950412
H    -4.549600  1.386816  0.535939
