34
Energy: -18219.3095631 eV PBE+vdW (tier 2 basis)
C    0.263791  1.047340  0.646420
C    -0.255986  -0.254818  1.216691
O    0.300861  -1.333237  1.028581
H    1.328692  1.142775  0.887932
H    0.183597  1.006658  -0.447846
H    -0.271987  1.934413  1.005318
N    -1.407532  -0.156469  1.965397
C    -2.103010  -1.336863  2.468611
C    -3.614338  -1.126463  2.238340
O    -4.317174  -0.614085  3.111568
H    -1.862561  0.744826  2.064111
H    -1.716263  -2.178692  1.876826
C    -1.844648  -1.612121  3.956413
C    -0.363963  -1.805970  4.291338
C    -0.115807  -2.256027  5.741389
C    -0.590568  -1.224735  6.752598
N    -0.312850  -1.703796  8.175465
H    -2.412161  -2.517514  4.228387
H    -2.296598  -0.786257  4.526524
H    0.196217  -0.878734  4.096529
H    0.078016  -2.559962  3.626027
H    0.962086  -2.440174  5.882865
H    -0.636325  -3.212472  5.921610
H    -0.069729  -0.264534  6.647104
H    -1.671032  -1.045926  6.702189
H    -0.798645  -2.592543  8.359293
H    0.693050  -1.871785  8.315431
H    -0.622578  -1.022637  8.881526
N    -4.104079  -1.488512  1.024915
C    -3.383955  -2.095541  -0.088031
H    -5.096325  -1.302908  0.911802
H    -3.077427  -3.128911  0.129047
H    -2.494815  -1.515569  -0.366088
H    -4.051890  -2.119279  -0.954663
