34
Energy: -18220.001228 eV PBE+vdW (tier 2 basis)
C    -0.640205  -1.330762  2.685761
C    -0.813878  -0.164138  3.617484
O    -0.622995  -0.291056  4.856012
H    -0.092607  -2.118000  3.210980
H    -1.616857  -1.737728  2.384969
H    -0.102462  -1.050399  1.771790
N    -1.191511  1.031748  3.128491
C    -1.888748  1.344564  1.891742
C    -1.693588  2.867533  1.713186
O    -1.470607  3.561598  2.711382
H    -1.088016  1.864053  3.720775
H    -1.452080  0.791055  1.049800
C    -3.399319  0.998825  2.019690
C    -4.112734  1.717685  3.192761
C    -4.763852  0.814491  4.254330
C    -3.848913  -0.090798  5.075817
N    -2.801391  0.657658  5.881965
H    -3.482288  -0.094156  2.119425
H    -3.898337  1.241374  1.072402
H    -4.909402  2.355534  2.789404
H    -3.420197  2.430187  3.668358
H    -5.495542  0.146588  3.773974
H    -5.352772  1.443023  4.941081
H    -4.442507  -0.683030  5.780747
H    -3.296182  -0.797695  4.445697
H    -1.783775  0.361231  5.536594
H    -2.907026  1.672449  5.781380
H    -2.870556  0.441349  6.880300
N    -1.829573  3.386364  0.474688
C    -1.985599  2.673264  -0.788287
H    -1.717802  4.396042  0.441351
H    -1.151032  1.983958  -0.976889
H    -2.931261  2.117303  -0.837355
H    -1.994563  3.410874  -1.595873
