34
Energy: -18219.1680526 eV PBE+vdW (tier 2 basis)
C    -0.000919  0.288443  0.663617
C    -0.199944  0.064356  2.147875
O    0.737949  0.039192  2.932296
H    -0.825672  0.804017  0.158609
H    0.122380  -0.685754  0.168718
H    0.927935  0.850311  0.530981
N    -1.482596  -0.169894  2.625418
C    -2.773577  -0.120761  1.957610
C    -2.848866  -0.884574  0.604202
O    -3.256932  -0.308534  -0.410631
H    -1.480880  -0.363879  3.623002
H    -3.478595  -0.626317  2.638424
C    -3.290019  1.306913  1.709333
C    -3.449969  2.204842  2.933574
C    -3.715475  3.675220  2.566867
C    -4.886256  3.928394  1.619594
N    -4.539290  3.591807  0.169762
H    -4.258529  1.166077  1.199316
H    -2.595826  1.770635  0.987444
H    -2.538351  2.171307  3.547002
H    -4.268723  1.832227  3.569117
H    -2.804082  4.135602  2.147748
H    -3.931657  4.247612  3.480304
H    -5.187299  4.982496  1.614582
H    -5.763592  3.317464  1.868575
H    -5.340311  3.736466  -0.458062
H    -4.234128  2.603715  0.090432
H    -3.764624  4.178277  -0.166717
N    -2.477300  -2.185432  0.590863
C    -2.032190  -3.030054  1.692844
H    -2.544096  -2.609515  -0.330397
H    -2.188998  -4.075450  1.407744
H    -2.619751  -2.844657  2.600291
H    -0.968877  -2.885910  1.927269
