34
Energy: -18218.5175878 eV PBE+vdW (tier 2 basis)
C    -0.401115  0.618518  -0.526118
C    -0.018648  0.303087  0.906098
O    1.147494  0.251952  1.270231
H    0.505463  0.921952  -1.055764
H    -0.813508  -0.273099  -1.018313
H    -1.143911  1.424059  -0.601525
N    -1.030565  0.066921  1.824430
C    -2.472319  -0.039679  1.622297
C    -2.812191  -1.147578  0.574869
O    -2.378193  -2.268411  0.810611
H    -0.660469  -0.328620  2.683441
H    -2.841596  -0.526577  2.538355
C    -3.156563  1.345938  1.578965
C    -2.878881  2.120767  2.873640
C    -3.313820  3.595035  2.863630
C    -4.821818  3.764977  2.765834
N    -5.199998  5.241560  2.864538
H    -4.237886  1.196258  1.436787
H    -2.795673  1.933558  0.722264
H    -1.796551  2.103430  3.061337
H    -3.346194  1.607158  3.729878
H    -2.826045  4.116456  2.022741
H    -2.955468  4.072884  3.790740
H    -5.351769  3.261376  3.584352
H    -5.232531  3.412834  1.812087
H    -6.216697  5.387984  2.803919
H    -4.756868  5.784000  2.110020
H    -4.875712  5.641616  3.756209
N    -3.601632  -0.933385  -0.524475
C    -4.087530  0.272979  -1.174878
H    -3.739888  -1.803989  -1.031221
H    -4.938808  0.728541  -0.646952
H    -3.299313  1.025415  -1.304047
H    -4.435891  -0.003773  -2.175270
