34
Energy: -18220.441143 eV PBE+vdW (tier 2 basis)
C    1.111151  0.669762  0.429643
C    0.752057  0.560406  1.891229
O    1.555069  0.694962  2.804828
H    2.061016  0.152489  0.256660
H    1.268277  1.728989  0.183623
H    0.345346  0.264550  -0.242542
N    -0.582925  0.280321  2.171082
C    -1.048297  0.391958  3.543667
C    -0.747915  -0.869191  4.368427
O    -0.724394  -0.825656  5.626482
H    -1.265575  0.371878  1.424923
H    -0.443826  1.178241  4.019860
C    -2.550373  0.756871  3.554220
C    -3.254064  0.916287  4.911527
C    -2.975484  2.199619  5.716159
C    -1.562384  2.444363  6.243385
N    -1.049018  1.282556  7.047147
H    -3.086956  -0.021042  2.988144
H    -2.657615  1.690285  2.979093
H    -3.085800  0.023999  5.532401
H    -4.334160  0.914445  4.708231
H    -3.673033  2.222336  6.568877
H    -3.233578  3.079785  5.107640
H    -1.546407  3.338160  6.879426
H    -0.836934  2.603554  5.436724
H    -0.143206  1.501003  7.474470
H    -0.911797  0.371042  6.393775
H    -1.695524  1.045440  7.807370
N    -0.548313  -1.998196  3.696020
C    -0.224869  -3.279902  4.305631
H    -0.511535  -1.903758  2.683602
H    0.837609  -3.516834  4.162813
H    -0.833424  -4.070233  3.851779
H    -0.437733  -3.225124  5.376444
