34
Energy: -18220.4776561 eV PBE+vdW (tier 2 basis)
C    -3.257553  -2.623116  0.585639
C    -2.431781  -1.944367  1.647408
O    -1.273340  -2.287598  1.910227
H    -3.262392  -3.703231  0.773494
H    -4.289853  -2.258831  0.528579
H    -2.771949  -2.465222  -0.386370
N    -3.027635  -0.908257  2.317860
C    -2.281607  -0.064379  3.249265
C    -2.164914  -0.749179  4.635468
O    -2.766296  -0.340054  5.665763
H    -3.989460  -0.667851  2.105566
H    -1.258988  0.011067  2.844850
C    -2.900270  1.327346  3.346156
C    -1.982529  2.348438  4.053565
C    -2.719492  3.415013  4.881738
C    -2.993362  3.034557  6.333718
N    -3.882110  1.825092  6.472209
H    -3.876978  1.245416  3.848675
H    -3.119441  1.679968  2.328970
H    -1.371208  2.849416  3.292168
H    -1.263810  1.828606  4.706428
H    -3.656078  3.714502  4.383265
H    -2.111152  4.329377  4.929489
H    -3.467283  3.863679  6.873865
H    -2.058826  2.780979  6.851127
H    -3.420609  0.915335  6.016843
H    -4.796756  1.989885  6.039234
H    -4.051374  1.611320  7.460970
N    -1.386571  -1.824825  4.658300
C    -1.195848  -2.653075  5.840930
H    -1.026678  -2.131423  3.739341
H    -0.465518  -3.431343  5.603821
H    -0.821056  -2.049605  6.676325
H    -2.138283  -3.124638  6.150112
