34
Energy: -18218.9997761 eV PBE+vdW (tier 2 basis)
C    -0.259952  -0.605823  -0.383484
C    -0.433076  -0.203232  1.064873
O    0.495896  0.223727  1.742845
H    0.796996  -0.837531  -0.541701
H    -0.879721  -1.454856  -0.692354
H    -0.515460  0.243229  -1.034870
N    -1.690924  -0.296668  1.636070
C    -2.983007  -0.660377  1.055534
C    -3.021149  -2.099686  0.467349
O    -3.308501  -2.289083  -0.712969
H    -1.677018  -0.023867  2.614227
H    -3.683878  -0.649321  1.905588
C    -3.497476  0.329950  -0.005794
C    -3.308776  1.797733  0.383962
C    -3.825777  2.751520  -0.701905
C    -3.359034  4.189480  -0.543818
N    -3.799974  4.759822  0.803014
H    -4.559007  0.113328  -0.192526
H    -2.989989  0.128863  -0.958880
H    -2.237389  1.987162  0.563331
H    -3.824697  1.983828  1.345914
H    -4.925103  2.714844  -0.772325
H    -3.458398  2.423141  -1.686115
H    -3.771168  4.859105  -1.307868
H    -2.264640  4.270733  -0.552619
H    -3.464211  5.721448  0.943028
H    -3.435642  4.176949  1.570028
H    -4.825933  4.765797  0.881888
N    -2.728448  -3.123355  1.312959
C    -2.392559  -3.083919  2.728415
H    -2.743435  -4.030728  0.856387
H    -1.348964  -2.788217  2.904740
H    -3.051708  -2.398561  3.278294
H    -2.546058  -4.083900  3.147173
