34
Energy: -18219.066165 eV PBE+vdW (tier 2 basis)
C    0.056110  -0.726562  1.020855
C    -0.632362  -0.465448  2.307048
O    0.158395  -0.563504  3.363440
H    0.185927  -1.812532  0.902417
H    -0.503552  -0.348785  0.162261
H    1.055408  -0.277329  1.050984
N    -1.894182  -0.184329  2.447870
C    -2.938794  0.039224  1.442377
C    -3.840778  1.079742  2.169377
O    -3.751796  1.154330  3.403629
H    -2.310942  0.120101  3.364770
H    -2.487514  0.457935  0.532828
C    -3.784961  -1.211602  1.109212
C    -3.052646  -2.478460  0.637198
C    -2.408860  -3.396750  1.692994
C    -3.330881  -3.861973  2.845744
N    -3.434746  -3.030069  4.041005
H    -4.470022  -0.891399  0.309772
H    -4.432128  -1.437931  1.968411
H    -2.313556  -2.213427  -0.136567
H    -3.806275  -3.080722  0.107209
H    -1.505436  -2.956024  2.141746
H    -2.055769  -4.288974  1.152670
H    -4.349012  -4.027732  2.459023
H    -2.985058  -4.849306  3.182129
H    -0.310243  -0.416151  4.208367
H    -2.559167  -2.957762  4.554477
H    -3.823851  -2.102942  3.892360
N    -4.687257  1.788033  1.412304
C    -5.656552  2.735191  1.957554
H    -4.669274  1.650240  0.407126
H    -6.679683  2.395475  1.754224
H    -5.508027  3.725466  1.511165
H    -5.504966  2.797518  3.038330
