34
Energy: -18218.4818571 eV PBE+vdW (tier 2 basis)
C    -0.518224  -0.118050  -0.105028
C    -0.141024  0.414531  1.260381
O    0.959813  0.897509  1.483277
H    -0.597000  -1.213510  -0.078253
H    -1.466072  0.296369  -0.472241
H    0.278803  0.154582  -0.801351
N    -1.071041  0.358988  2.288032
C    -2.386825  -0.268873  2.401546
C    -2.293376  -1.826937  2.363016
O    -1.809847  -2.370039  3.351614
H    -0.637185  0.612665  3.171262
H    -2.635747  -0.125956  3.463378
C    -3.495095  0.465178  1.622532
C    -4.892829  0.100355  2.139494
C    -6.009903  0.868529  1.423732
C    -7.416701  0.512650  1.880302
N    -7.617271  0.858604  3.354632
H    -3.440875  0.291532  0.541200
H    -3.319640  1.541756  1.767811
H    -4.902935  0.310215  3.226595
H    -5.069237  -0.983217  2.039453
H    -5.977426  0.654744  0.344633
H    -5.852855  1.956751  1.510828
H    -8.190142  1.063774  1.332600
H    -7.622516  -0.562176  1.797642
H    -8.552494  0.591525  3.688573
H    -7.499708  1.868552  3.514971
H    -6.918830  0.372518  3.935228
N    -2.716166  -2.593053  1.305900
C    -3.334018  -2.287308  0.024712
H    -2.551657  -3.577749  1.500274
H    -3.301548  -3.194865  -0.587024
H    -2.796890  -1.509284  -0.526857
H    -4.393235  -1.995639  0.116241
