34
Energy: -18219.399204 eV PBE+vdW (tier 2 basis)
C    -2.457127  1.111849  -1.003387
C    -1.494849  0.792564  0.118462
O    -0.304165  0.562763  -0.070206
H    -2.122798  2.030331  -1.502092
H    -2.413644  0.305741  -1.745657
H    -3.494517  1.247084  -0.675303
N    -2.037607  0.801403  1.392670
C    -1.249287  0.304820  2.519924
C    -2.089805  0.013336  3.767297
O    -1.749895  -0.889255  4.535706
H    -3.044531  0.684164  1.449402
H    -0.803003  -0.658943  2.232688
C    -0.110018  1.295003  2.872951
C    0.810595  0.833787  4.012511
C    1.428297  -0.553305  3.780879
C    2.390542  -0.995186  4.866159
N    3.619539  -0.085029  4.907738
H    -0.552675  2.266190  3.137342
H    0.473163  1.442598  1.954892
H    0.263253  0.816627  4.967530
H    1.591398  1.612430  4.110794
H    0.622237  -1.301834  3.783963
H    1.911675  -0.616434  2.791243
H    1.941389  -0.938237  5.865991
H    2.773059  -2.009986  4.706104
H    4.259749  -0.327805  5.674073
H    4.142260  -0.140608  4.023255
H    3.325296  0.894569  5.028445
N    -3.159722  0.823439  3.984147
C    -4.010211  0.703274  5.159607
H    -3.284408  1.629044  3.380050
H    -3.910077  -0.312986  5.552464
H    -5.054902  0.886662  4.884587
H    -3.717426  1.412935  5.946704
