34
Energy: -18220.3997838 eV PBE+vdW (tier 2 basis)
C    1.536937  1.380201  1.507033
C    0.795276  0.441688  2.427546
O    1.407498  -0.247249  3.260415
H    2.099003  2.100491  2.114546
H    2.271221  0.797207  0.936700
H    0.894230  1.926632  0.807823
N    -0.552221  0.396941  2.256746
C    -1.567077  -0.457743  2.883791
C    -2.207493  0.229440  4.107589
O    -1.540124  0.736075  5.026805
H    -0.915055  1.025322  1.548479
H    -2.350145  -0.508589  2.114272
C    -1.151641  -1.943002  3.157490
C    -1.062430  -2.486957  4.603640
C    0.339826  -2.599198  5.249292
C    0.696549  -1.604541  6.350080
N    0.820821  -0.199753  5.840256
H    -0.210011  -2.135875  2.629848
H    -1.907995  -2.545670  2.639563
H    -1.471231  -3.504424  4.562114
H    -1.749353  -1.945413  5.272349
H    1.116522  -2.576669  4.471876
H    0.423912  -3.586820  5.723787
H    -0.056489  -1.600190  7.149303
H    1.660632  -1.877339  6.796958
H    1.305590  -0.193057  4.904536
H    1.302925  0.410367  6.504700
H    -0.128766  0.216157  5.601786
N    -3.552935  0.221155  4.117643
C    -4.363434  0.761934  5.201278
H    -4.034938  -0.172627  3.316658
H    -5.035839  -0.009900  5.595442
H    -4.961030  1.611337  4.847294
H    -3.692733  1.103068  5.994360
