34
Energy: -18219.2870187 eV PBE+vdW (tier 2 basis)
C    -0.515046  -1.760242  0.386733
C    -0.193522  -1.062141  1.692903
O    0.831992  -1.296845  2.314318
H    -1.012588  -2.713057  0.617207
H    0.428113  -1.993105  -0.116686
H    -1.177330  -1.208289  -0.290046
N    -1.136583  -0.190364  2.235361
C    -2.204575  0.536061  1.559883
C    -3.294129  -0.371853  0.921105
O    -3.794259  -0.074044  -0.167475
H    -0.800428  0.208723  3.108915
H    -2.718299  1.101154  2.354313
C    -1.743895  1.550004  0.497441
C    -0.642807  2.523880  0.915427
C    -0.433941  3.670330  -0.089468
C    -0.205114  3.252942  -1.540118
N    -1.507840  2.855284  -2.233147
H    -2.655254  2.094462  0.199927
H    -1.413815  0.953308  -0.372542
H    0.304209  1.981866  1.054996
H    -0.882200  2.973486  1.890644
H    0.448163  4.257023  0.204267
H    -1.279089  4.379131  -0.047520
H    0.460547  2.384313  -1.625254
H    0.211866  4.069937  -2.140268
H    -1.974962  2.090338  -1.712165
H    -1.347020  2.541865  -3.198920
H    -2.163179  3.647143  -2.263650
N    -3.641204  -1.443203  1.662867
C    -4.652176  -2.406275  1.256947
H    -3.110104  -1.610455  2.511975
H    -5.405711  -2.526453  2.044985
H    -4.201613  -3.385138  1.043523
H    -5.135498  -2.030409  0.350290
