34
Energy: -18219.9803027 eV PBE+vdW (tier 2 basis)
C    -0.645253  -1.965793  0.372946
C    -0.443474  -1.264884  1.691404
O    0.567143  -0.552715  1.881734
H    -1.612110  -2.473116  0.283726
H    -0.544104  -1.233804  -0.437837
H    0.154977  -2.705791  0.238954
N    -1.412307  -1.433041  2.619651
C    -1.465835  -0.901583  3.991565
C    -1.955227  0.565050  4.116081
O    -2.172395  1.007710  5.240144
H    -2.193391  -2.017389  2.341354
H    -2.297014  -1.449383  4.454472
C    -0.185232  -1.249272  4.826890
C    0.498711  -0.130780  5.634872
C    1.082322  1.065035  4.858282
C    2.512567  0.918303  4.356374
N    2.671058  -0.268530  3.427214
H    0.516744  -1.742094  4.141610
H    -0.470128  -2.029207  5.544514
H    1.290409  -0.599193  6.244209
H    -0.233371  0.261417  6.349222
H    1.089847  1.943210  5.519138
H    0.436618  1.341589  4.013852
H    3.227834  0.781946  5.177664
H    2.815635  1.801829  3.782089
H    3.515243  -0.188829  2.851326
H    1.812097  -0.367594  2.785427
H    2.747473  -1.139734  3.961735
N    -2.160779  1.257641  2.969023
C    -2.697265  2.610487  2.958472
H    -1.966103  0.804864  2.085229
H    -2.931850  2.886510  3.991067
H    -1.964824  3.321869  2.553886
H    -3.612409  2.659915  2.355075
