34
Energy: -18220.1661437 eV PBE+vdW (tier 2 basis)
C    0.822559  -0.204240  0.666947
C    0.351803  0.116041  2.057665
O    1.183478  0.275267  2.984754
H    1.390076  -1.143635  0.696176
H    1.514486  0.578076  0.331466
H    0.007503  -0.302041  -0.058226
N    -0.976964  0.199825  2.255478
C    -1.627546  0.391215  3.554686
C    -2.803170  -0.620875  3.642787
O    -3.958615  -0.250291  3.473761
H    -1.584914  0.081707  1.449636
H    -0.870180  0.133186  4.305982
C    -2.145564  1.822628  3.751544
C    -1.086450  2.936984  3.712103
C    -0.461426  3.328260  5.062457
C    0.349330  2.277659  5.812871
N    1.554705  1.824137  5.027570
H    -2.700755  1.852570  4.701153
H    -2.905633  2.001867  2.980094
H    -1.564454  3.846918  3.324836
H    -0.304800  2.701706  2.971653
H    -1.261288  3.643019  5.749791
H    0.168290  4.222805  4.923574
H    -0.234115  1.375847  6.035784
H    0.709846  2.683886  6.765949
H    2.086356  2.630835  4.680843
H    1.291322  1.195740  4.167791
H    2.191784  1.272464  5.612230
N    -2.478775  -1.919420  3.900430
C    -1.164085  -2.537603  3.972218
H    -3.286722  -2.537111  3.892704
H    -1.244805  -3.473757  4.534416
H    -0.448245  -1.897563  4.502094
H    -0.751487  -2.766527  2.977519
