34
Energy: -18219.8377498 eV PBE+vdW (tier 2 basis)
C    -0.506348  0.075708  0.190467
C    -0.286246  -0.035003  1.677121
O    0.869353  -0.232169  2.108041
H    0.026448  -0.739245  -0.312142
H    -0.062221  1.020333  -0.151872
H    -1.561453  0.057781  -0.104282
N    -1.399217  0.072792  2.441502
C    -1.542763  0.162068  3.896522
C    -1.323926  1.626010  4.347485
O    -0.514176  2.356624  3.778684
H    -2.246126  0.267982  1.919659
H    -2.597502  -0.080261  4.078981
C    -0.687117  -0.909260  4.640403
C    0.030020  -0.582390  5.965543
C    1.070269  0.561881  6.107886
C    1.983033  0.959218  4.944930
N    2.492886  -0.205528  4.127899
H    0.032785  -1.302237  3.917821
H    -1.352811  -1.756442  4.853866
H    0.516686  -1.526698  6.255669
H    -0.713432  -0.412688  6.757350
H    1.692676  0.304906  6.977770
H    0.559007  1.492968  6.384407
H    2.850128  1.507605  5.329830
H    1.450500  1.597071  4.229406
H    1.768787  -0.369000  3.337728
H    2.641901  -1.050689  4.687237
H    3.380583  0.025054  3.670318
N    -2.062650  2.050594  5.408268
C    -3.166358  1.371540  6.079168
H    -1.913655  3.031726  5.630046
H    -3.409632  1.928073  6.989818
H    -2.894873  0.353893  6.384684
H    -4.072836  1.329491  5.456709
