34
Energy: -18219.0966436 eV PBE+vdW (tier 2 basis)
C    -0.649606  -0.213319  -0.265755
C    -0.730666  -0.602882  1.197431
O    -0.082454  -1.544809  1.654051
H    -0.724733  -1.118467  -0.878656
H    0.341463  0.221607  -0.453989
H    -1.412786  0.506640  -0.584926
N    -1.564506  0.183484  1.953973
C    -1.806465  0.191869  3.400059
C    -1.227127  1.418518  4.162620
O    -1.966421  1.987166  4.964491
H    -2.009798  0.949910  1.460590
H    -2.884637  0.372925  3.522173
C    -1.451602  -1.087122  4.179194
C    -2.185858  -2.363424  3.744612
C    -3.712924  -2.291317  3.862274
C    -4.422190  -3.545817  3.379274
N    -3.981338  -4.759398  4.195312
H    -1.692503  -0.864002  5.230159
H    -0.376289  -1.283586  4.126069
H    -1.784486  -3.170510  4.387012
H    -1.888528  -2.612700  2.714883
H    -4.023247  -2.055951  4.894380
H    -4.105646  -1.471407  3.243210
H    -4.173508  -3.785172  2.337474
H    -5.512252  -3.489114  3.482052
H    -4.403968  -5.631858  3.853965
H    -2.955876  -4.854278  4.150876
H    -4.235390  -4.647134  5.186190
N    0.056972  1.814786  3.959357
C    1.103154  1.253816  3.116209
H    0.292285  2.639112  4.505720
H    1.028489  0.163855  3.043344
H    2.074092  1.490056  3.565580
H    1.086304  1.673132  2.098678
