34
Energy: -18219.0627424 eV PBE+vdW (tier 2 basis)
C    -1.485133  0.225096  -0.568588
C    -0.692599  0.079304  0.718954
O    0.500369  0.353527  0.783666
H    -0.815697  0.648412  -1.321676
H    -2.350242  0.890487  -0.448476
H    -1.860718  -0.740396  -0.934641
N    -1.363082  -0.363245  1.841523
C    -2.700497  -0.933974  1.951369
C    -3.357333  -0.364850  3.236417
O    -3.340903  -1.008821  4.283895
H    -0.770265  -0.417653  2.668210
H    -3.272578  -0.618409  1.069067
C    -2.684809  -2.470504  2.048883
C    -1.934091  -3.161679  0.909793
C    -1.718504  -4.654806  1.199279
C    -0.895419  -5.315212  0.106912
N    -0.638556  -6.785241  0.434987
H    -3.724685  -2.827619  2.098259
H    -2.234585  -2.730432  3.018511
H    -0.952317  -2.681613  0.774773
H    -2.478554  -3.046937  -0.041369
H    -2.692002  -5.163598  1.298119
H    -1.200704  -4.757920  2.167696
H    0.094027  -4.854176  -0.005784
H    -1.399294  -5.306423  -0.867603
H    -0.078284  -7.252102  -0.290814
H    -1.524897  -7.299755  0.530749
H    -0.135998  -6.875763  1.328982
N    -3.908723  0.875306  3.154593
C    -3.902254  1.793145  2.025797
H    -4.255630  1.219584  4.045256
H    -4.497088  2.671703  2.293885
H    -4.366693  1.346597  1.135304
H    -2.887675  2.132002  1.771269
