34
Energy: -18219.1650836 eV PBE+vdW (tier 2 basis)
C    0.342385  0.235171  1.438506
C    -0.315111  0.180741  2.801669
O    0.333010  0.232121  3.838014
H    1.333348  0.680123  1.562503
H    0.473477  -0.787371  1.055934
H    -0.224516  0.787922  0.679958
N    -1.690638  0.011312  2.875639
C    -2.718614  0.085227  1.847399
C    -2.435740  -0.770169  0.579705
O    -2.418407  -0.239576  -0.536635
H    -2.006414  -0.052637  3.839772
H    -3.628478  -0.329582  2.310949
C    -3.034082  1.514452  1.374439
C    -3.276809  2.564217  2.456069
C    -3.762583  3.908227  1.885249
C    -2.894568  4.519024  0.787274
N    -3.115843  3.844480  -0.566211
H    -3.908735  1.434603  0.706916
H    -2.168102  1.802127  0.752416
H    -2.354798  2.722793  3.034384
H    -4.031550  2.210726  3.174325
H    -3.804545  4.653640  2.692237
H    -4.800127  3.821234  1.518711
H    -3.122818  5.579462  0.629389
H    -1.822231  4.422601  1.001102
H    -4.091276  3.950182  -0.873576
H    -2.510649  4.244306  -1.294702
H    -2.921115  2.827767  -0.500324
N    -2.231376  -2.096527  0.749787
C    -2.251331  -2.878434  1.979933
H    -2.041047  -2.588190  -0.119164
H    -3.079523  -2.574958  2.632285
H    -1.312226  -2.793693  2.543071
H    -2.408998  -3.929112  1.715990
