34
Energy: -18219.7666238 eV PBE+vdW (tier 2 basis)
C    -0.514991  1.017995  0.184725
C    -0.757533  1.482831  1.588911
O    -0.228452  2.536694  2.026085
H    -1.430153  0.679366  -0.316982
H    0.168592  0.156861  0.201475
H    -0.053027  1.827572  -0.385224
N    -1.523201  0.730872  2.423887
C    -2.679507  -0.108560  2.065576
C    -2.275296  -1.336466  1.184197
O    -2.871125  -1.598103  0.146893
H    -1.523932  1.087066  3.376194
H    -3.011858  -0.533549  3.022639
C    -3.856800  0.678947  1.419855
C    -3.745129  2.206357  1.415252
C    -3.860768  2.913435  2.781553
C    -3.246152  4.315093  2.799639
N    -1.778178  4.302224  3.176938
H    -4.786895  0.374464  1.919793
H    -3.950445  0.320649  0.385592
H    -4.543401  2.595267  0.766341
H    -2.815419  2.513028  0.912898
H    -3.421976  2.314425  3.596215
H    -4.921766  3.008578  3.050902
H    -3.747270  4.974215  3.518357
H    -3.312031  4.786356  1.810882
H    -1.340356  5.206583  2.967027
H    -1.163088  3.525099  2.687077
H    -1.674124  4.155252  4.186994
N    -1.246205  -2.065059  1.682898
C    -0.744543  -3.271751  1.040644
H    -0.813377  -1.760932  2.547764
H    -0.902824  -4.150309  1.679584
H    0.326817  -3.179517  0.820353
H    -1.294808  -3.408666  0.105104
