34
Energy: -18219.919733 eV PBE+vdW (tier 2 basis)
C    -0.651978  -0.874342  -1.407018
C    -0.528710  0.249225  -0.397634
O    -0.101542  1.348886  -0.704548
H    0.271045  -0.894679  -1.997946
H    -1.465562  -0.631578  -2.103806
H    -0.833481  -1.869759  -0.987621
N    -0.869194  0.005481  0.938986
C    -1.623671  -1.094302  1.526311
C    -0.787360  -2.366958  1.754249
O    -1.332815  -3.410121  2.200447
H    -0.789102  0.853959  1.493975
H    -1.835785  -0.762474  2.556472
C    -2.992542  -1.387622  0.842999
C    -4.212398  -0.780914  1.566239
C    -5.046711  -1.718432  2.452688
C    -4.381665  -2.370742  3.666348
N    -3.629429  -3.631996  3.324146
H    -3.118963  -2.470829  0.706890
H    -2.948040  -0.974685  -0.169247
H    -4.902646  -0.376468  0.813805
H    -3.893577  0.092322  2.157849
H    -5.508988  -2.506431  1.832876
H    -5.893835  -1.137612  2.845099
H    -5.142530  -2.646025  4.406636
H    -3.667000  -1.699494  4.160600
H    -3.376779  -4.144362  4.176337
H    -2.673372  -3.459038  2.769428
H    -4.218601  -4.257880  2.763911
N    0.517725  -2.288269  1.517589
C    1.470763  -3.367192  1.733810
H    0.850082  -1.382558  1.191180
H    0.925451  -4.262277  2.044259
H    2.189567  -3.089459  2.514963
H    2.016793  -3.576351  0.806071
