34
Energy: -18218.9014058 eV PBE+vdW (tier 2 basis)
C    0.193415  0.984728  0.683096
C    0.251038  -0.301031  1.475826
O    1.259285  -0.703505  2.039656
H    1.203267  1.398869  0.632631
H    -0.182768  0.822850  -0.336531
H    -0.468164  1.720316  1.163314
N    -0.913529  -1.059630  1.543920
C    -2.253679  -0.621269  1.209336
C    -2.922383  0.447525  2.118374
O    -3.697562  1.242505  1.585140
H    -0.806744  -1.845650  2.180568
H    -2.219007  -0.114146  0.234769
C    -3.174759  -1.853150  1.054552
C    -4.546339  -1.533474  0.442566
C    -5.579391  -2.669005  0.461669
C    -5.291901  -3.867412  -0.432850
N    -4.191286  -4.754563  0.146879
H    -3.296742  -2.339772  2.039561
H    -2.590791  -2.542546  0.409491
H    -4.410001  -1.180884  -0.591755
H    -4.976534  -0.677325  0.979160
H    -6.542337  -2.267184  0.113541
H    -5.770838  -3.012948  1.493363
H    -6.166216  -4.518344  -0.551400
H    -4.941193  -3.566037  -1.428400
H    -3.337656  -4.195426  0.310564
H    -4.479095  -5.147807  1.052651
H    -3.955936  -5.536536  -0.478133
N    -2.671851  0.486401  3.455225
C    -1.849710  -0.364160  4.309164
H    -3.155486  1.258641  3.905894
H    -2.085255  -0.118711  5.349846
H    -0.773352  -0.209428  4.158473
H    -2.080813  -1.429879  4.173027
