34
Energy: -18219.7837558 eV PBE+vdW (tier 2 basis)
C    -0.215693  -1.656801  -0.064087
C    -0.131724  -0.913436  1.225422
O    0.936089  -1.009933  1.913441
H    -0.134573  -2.731381  0.151598
H    -1.146217  -1.471927  -0.609836
H    0.643180  -1.389278  -0.691859
N    -1.171316  -0.166068  1.618175
C    -1.433516  0.384573  2.972812
C    -0.286766  1.276076  3.447227
O    0.904222  0.858390  3.443412
H    -1.966209  -0.150065  0.986754
H    -2.328334  1.010645  2.850539
C    -1.759778  -0.753935  3.967949
C    -2.178583  -0.311247  5.377980
C    -1.050607  0.013243  6.373774
C    0.006804  -1.085653  6.538660
N    -0.615742  -2.393217  6.763790
H    -0.910129  -1.447765  4.027824
H    -2.584744  -1.318835  3.510357
H    -2.764175  -1.140918  5.793456
H    -2.873957  0.542975  5.315895
H    -1.524538  0.205195  7.349408
H    -0.531074  0.948600  6.118605
H    0.615192  -1.161137  5.623575
H    0.705489  -0.768497  7.335532
H    -1.084853  -2.418151  7.670715
H    0.981805  -0.201426  2.720273
H    0.091230  -3.127474  6.789374
N    -0.597376  2.486727  3.900729
C    0.372508  3.413981  4.477015
H    -1.577323  2.749462  3.920514
H    0.131903  4.432472  4.155539
H    1.372359  3.142746  4.128372
H    0.348826  3.364465  5.574043
