34
Energy: -18219.9174744 eV PBE+vdW (tier 2 basis)
C    -0.613946  0.412137  0.098018
C    -0.668267  0.853372  1.534727
O    -0.394620  2.034271  1.840600
H    0.200040  0.924133  -0.424557
H    -0.509928  -0.672561  -0.021916
H    -1.560845  0.718768  -0.370282
N    -0.999037  -0.102904  2.442239
C    -1.703494  0.114452  3.708936
C    -3.149127  0.595642  3.371407
O    -3.373402  1.194846  2.325507
H    -1.226625  -0.995771  2.014771
H    -1.751916  -0.877149  4.183299
C    -1.039018  1.070253  4.717523
C    0.329479  0.620392  5.261278
C    1.587322  1.071709  4.500591
C    1.793678  2.596016  4.485332
N    1.481799  3.194157  3.136981
H    -1.731989  1.139165  5.566792
H    -1.011056  2.081532  4.291409
H    0.348361  -0.477164  5.337076
H    0.423042  0.983352  6.296288
H    1.587543  0.680871  3.472147
H    2.459959  0.615376  4.986248
H    2.823730  2.873949  4.734451
H    1.134732  3.093275  5.207579
H    1.306557  4.202734  3.195022
H    0.618251  2.705601  2.666264
H    2.265848  3.061787  2.489461
N    -4.117504  0.335400  4.290678
C    -4.043599  -0.497318  5.484074
H    -5.029205  0.692941  4.019883
H    -3.691868  -1.514230  5.258910
H    -3.401053  -0.062771  6.263051
H    -5.050742  -0.584159  5.902546
