34
Energy: -18220.1849481 eV PBE+vdW (tier 2 basis)
C    -2.161809  0.427058  -1.103260
C    -1.818614  0.937135  0.265611
O    -1.428921  2.126021  0.418224
H    -1.296546  0.570295  -1.762785
H    -2.984111  1.027691  -1.512951
H    -2.448709  -0.629555  -1.108252
N    -1.932323  0.089371  1.294150
C    -1.627808  0.442466  2.673090
C    -1.405932  -0.909352  3.387820
O    -2.154721  -1.844590  3.111500
H    -2.292841  -0.857619  1.169187
H    -0.713577  1.051645  2.670939
C    -2.813875  1.204869  3.321564
C    -2.489819  1.979717  4.607364
C    -2.080251  3.452974  4.449673
C    -0.827985  3.796498  3.636657
N    -1.095648  3.963834  2.161972
H    -3.597039  0.459820  3.518126
H    -3.238672  1.884666  2.567026
H    -1.727187  1.446492  5.194102
H    -3.383927  1.975773  5.245702
H    -1.912514  3.861051  5.456740
H    -2.930402  4.033058  4.050172
H    -0.042105  3.036805  3.734699
H    -0.410524  4.748765  3.985851
H    -1.272726  3.039686  1.565383
H    -1.907837  4.574686  2.017879
H    -0.300894  4.423991  1.703520
N    -0.416281  -1.010054  4.310379
C    0.674753  -0.084139  4.584696
H    -0.371335  -1.929116  4.743018
H    0.344746  0.802912  5.144641
H    1.182816  0.235153  3.664092
H    1.414451  -0.602473  5.202594
