34
Energy: -18220.0905007 eV PBE+vdW (tier 2 basis)
C    1.304151  -0.149835  0.873843
C    1.149531  -0.841154  2.198553
O    1.975365  -1.729332  2.544480
H    1.058292  -0.844999  0.059149
H    2.362299  0.112051  0.754729
H    0.691590  0.750830  0.769175
N    0.139872  -0.512229  3.021909
C    -1.152411  0.085301  2.707648
C    -1.802341  0.353036  4.084386
O    -1.445772  -0.316490  5.059596
H    0.156112  -0.885045  3.977959
H    -1.012228  1.028448  2.161237
C    -2.031075  -0.866136  1.847352
C    -2.594740  -2.129184  2.528045
C    -1.613282  -3.103729  3.208576
C    -0.581683  -3.752162  2.277085
N    0.740080  -3.953762  2.978752
H    -1.445457  -1.129175  0.953055
H    -2.886502  -0.291396  1.464736
H    -3.179415  -2.672557  1.769821
H    -3.321710  -1.827591  3.295770
H    -1.107048  -2.577812  4.029829
H    -2.202562  -3.896804  3.690261
H    -0.356539  -3.128955  1.402945
H    -0.925957  -4.725095  1.908113
H    1.319606  -4.650626  2.498430
H    1.310486  -2.998165  2.964813
H    0.605566  -4.275792  3.943177
N    -2.781482  1.279964  4.153356
C    -3.209673  2.220339  3.122946
H    -3.179216  1.380406  5.083362
H    -2.383089  2.857688  2.779746
H    -3.973910  2.872521  3.555477
H    -3.659000  1.712961  2.259147
