34
Energy: -18219.2884426 eV PBE+vdW (tier 2 basis)
C    -0.910347  -0.941580  -0.654124
C    -0.404466  -0.389412  0.640552
O    0.843164  -0.315326  0.850736
H    -0.874056  -0.172502  -1.437312
H    -0.220093  -1.736758  -0.958177
H    -1.927014  -1.337925  -0.585766
N    -1.226457  -0.009610  1.638359
C    -2.614622  0.460709  1.795444
C    -3.512587  0.329714  0.538997
O    -4.361606  -0.554396  0.531849
H    -0.713727  0.112072  2.504135
H    -3.103478  -0.228778  2.498993
C    -2.594756  1.873189  2.423458
C    -1.920033  2.040747  3.803993
C    -0.397914  1.781711  3.964187
C    0.515485  2.416633  2.897397
N    1.647301  1.499495  2.505513
H    -3.644437  2.178377  2.545466
H    -2.162730  2.591655  1.715679
H    -2.434031  1.410366  4.544503
H    -2.118382  3.076151  4.116843
H    -0.196292  0.698574  4.033264
H    -0.101030  2.155385  4.954084
H    -0.026349  2.628065  1.968330
H    0.941164  3.361915  3.252789
H    1.283533  0.640141  1.832043
H    2.119230  1.114891  3.331170
H    2.358483  2.007469  1.968187
N    -3.384391  1.196347  -0.508928
C    -2.441288  2.272104  -0.770174
H    -4.084697  1.019385  -1.225011
H    -2.309510  2.365739  -1.854423
H    -1.454210  2.057740  -0.343716
H    -2.789659  3.243089  -0.387263
