34
Energy: -18220.2582168 eV PBE+vdW (tier 2 basis)
C    -0.000834  0.334251  -0.033368
C    -0.270724  0.440091  1.448106
O    -0.132119  1.479272  2.083771
H    1.008057  0.712041  -0.237593
H    -0.703506  0.989302  -0.564181
H    -0.093149  -0.683574  -0.430386
N    -0.680375  -0.727413  2.068734
C    -1.100670  -0.718368  3.459952
C    -0.312596  -1.778568  4.247527
O    -0.859581  -2.808615  4.726713
H    -0.852017  -1.553806  1.506265
H    -0.810347  0.283913  3.819311
C    -2.616756  -0.882115  3.613680
C    -3.112580  -0.606858  5.044006
C    -4.394375  -1.355096  5.442474
C    -4.334732  -2.874745  5.296555
N    -3.082167  -3.444224  5.913392
H    -2.890588  -1.893993  3.278251
H    -3.096302  -0.187965  2.911439
H    -3.290697  0.469788  5.167924
H    -2.317360  -0.842206  5.769727
H    -5.243952  -1.015071  4.831948
H    -4.652151  -1.099084  6.481737
H    -4.318274  -3.189048  4.246345
H    -5.199086  -3.350243  5.775231
H    -3.089749  -4.469269  5.887014
H    -2.994504  -3.166162  6.897187
H    -2.182055  -3.108111  5.378444
N    1.006519  -1.611143  4.401183
C    1.863091  -0.541654  3.898797
H    1.461798  -2.385137  4.880563
H    2.295592  -0.807161  2.924451
H    2.675017  -0.380587  4.615648
H    1.306096  0.393783  3.786206
