34
Energy: -18219.8852101 eV PBE+vdW (tier 2 basis)
C    -2.656404  -0.297799  0.788620
C    -1.894366  0.689364  1.642583
O    -1.557796  1.793641  1.264762
H    -3.308915  0.248352  0.100473
H    -3.243981  -1.020840  1.369433
H    -1.936277  -0.864471  0.180050
N    -1.606911  0.231768  2.954844
C    -0.521769  0.881433  3.721363
C    -0.193247  -0.072605  4.881153
O    -1.048170  -0.869921  5.297678
H    -1.538884  -0.787076  3.017502
H    0.351418  0.982675  3.056618
C    -0.860727  2.309141  4.229722
C    -1.590552  2.509569  5.568780
C    -3.115210  2.300132  5.661807
C    -3.603975  0.887236  5.972304
N    -3.785584  0.046771  4.730378
H    -1.381627  2.833082  3.417883
H    0.106189  2.824514  4.321542
H    -1.413515  3.561235  5.834333
H    -1.100705  1.929989  6.368000
H    -3.622736  2.695736  4.765790
H    -3.480732  2.923463  6.489999
H    -4.574943  0.901503  6.481300
H    -2.886865  0.345589  6.598560
H    -2.965161  0.166257  4.047668
H    -4.650825  0.297639  4.239823
H    -3.822051  -0.949950  4.970530
N    1.037851  0.058258  5.410568
C    1.512318  -0.708878  6.554969
H    1.678874  0.711976  4.973340
H    0.720658  -1.402222  6.852266
H    1.749369  -0.044929  7.396119
H    2.409252  -1.280630  6.287239
