34
Energy: -18220.0618761 eV PBE+vdW (tier 2 basis)
C    0.062748  -0.155532  2.236475
C    -0.219186  -1.265170  3.227190
O    0.650102  -1.818526  3.877270
H    1.118099  0.113235  2.327693
H    -0.121992  -0.488513  1.204629
H    -0.550494  0.738170  2.417734
N    -1.555825  -1.636940  3.417774
C    -2.664102  -1.359587  2.521182
C    -3.936749  -1.017641  3.329384
O    -5.091650  -1.279866  2.910880
H    -1.624344  -2.479239  3.989195
H    -2.410057  -0.431713  1.984023
C    -2.929622  -2.454143  1.466375
C    -3.548187  -1.909341  0.159047
C    -4.508266  -2.872113  -0.562442
C    -5.974800  -2.712758  -0.178103
N    -6.223231  -2.958667  1.289298
H    -3.550404  -3.243572  1.917744
H    -1.970429  -2.936834  1.239318
H    -2.729593  -1.647263  -0.524175
H    -4.077879  -0.963995  0.354726
H    -4.188424  -3.917796  -0.425075
H    -4.468515  -2.696238  -1.646704
H    -6.613436  -3.401947  -0.744426
H    -6.319267  -1.688869  -0.373241
H    -7.215640  -2.835061  1.517697
H    -5.654007  -2.266460  1.928318
H    -5.970958  -3.918775  1.547461
N    -3.725007  -0.388001  4.485520
C    -4.768849  0.079095  5.385237
H    -2.748012  -0.280255  4.753139
H    -5.741374  -0.101903  4.920151
H    -4.718139  -0.455746  6.342136
H    -4.650533  1.153310  5.572171
