34
Energy: -18219.8959974 eV PBE+vdW (tier 2 basis)
C    -1.470336  2.116682  -1.070275
C    -0.599330  1.655753  0.061825
O    0.616831  1.966054  0.104887
H    -1.143206  3.121855  -1.358815
H    -2.536266  2.130002  -0.822604
H    -1.319736  1.469082  -1.946245
N    -1.144708  0.919063  1.065503
C    -2.152772  -0.138767  0.903705
C    -3.299557  -0.100561  1.941463
O    -4.009746  -1.088971  2.082144
H    -0.487195  0.747239  1.826600
H    -2.628553  0.001279  -0.077727
C    -1.435748  -1.500686  0.929341
C    -0.412661  -1.686921  -0.212692
C    0.972663  -2.191388  0.224423
C    1.831891  -1.260393  1.077908
N    2.300993  -0.023664  0.339893
H    -2.206874  -2.279023  0.904903
H    -0.953308  -1.605452  1.916318
H    -0.294695  -0.752917  -0.785740
H    -0.809606  -2.407651  -0.939266
H    1.554523  -2.489078  -0.663623
H    0.854480  -3.115347  0.810864
H    2.730197  -1.791826  1.413856
H    1.307480  -0.905452  1.974651
H    3.128670  0.375136  0.796988
H    1.560114  0.789776  0.296523
H    2.575186  -0.255720  -0.621955
N    -3.449238  1.069131  2.613382
C    -4.524624  1.289977  3.569460
H    -2.825503  1.835222  2.386383
H    -4.121998  1.614636  4.536945
H    -5.057232  0.342694  3.698744
H    -5.229038  2.047509  3.201372
