34
Energy: -18219.3171731 eV PBE+vdW (tier 2 basis)
C    2.099664  0.392708  1.098668
C    0.934792  1.127043  1.725067
O    1.087262  2.182985  2.350210
H    1.857279  -0.619274  0.752817
H    2.457603  0.977830  0.240551
H    2.923846  0.347026  1.819860
N    -0.292840  0.543182  1.563703
C    -1.592638  1.150166  1.895753
C    -2.038744  2.284264  0.925193
O    -3.146618  2.227008  0.398678
H    -0.339047  -0.224064  0.901501
H    -2.333650  0.360943  1.712078
C    -1.763463  1.636618  3.346897
C    -1.602252  0.588629  4.459889
C    -0.147927  0.203664  4.784524
C    0.036450  -0.360375  6.181468
N    -0.821601  -1.611678  6.377179
H    -2.788118  2.031824  3.398479
H    -1.088077  2.477587  3.547490
H    -2.196565  -0.305771  4.195569
H    -2.064672  1.016887  5.367289
H    0.494984  1.094487  4.720627
H    0.253853  -0.498029  4.037843
H    -0.290115  0.342327  6.959005
H    1.069228  -0.664445  6.389063
H    -0.746664  -1.988138  7.330795
H    -0.544777  -2.352291  5.718882
H    -1.811124  -1.391980  6.193961
N    -1.159365  3.298675  0.752648
C    -1.465987  4.432927  -0.106939
H    -0.287363  3.283603  1.280146
H    -1.720044  4.094057  -1.119182
H    -2.319069  5.006750  0.280149
H    -0.587479  5.083428  -0.155150
