34
Energy: -18218.9468253 eV PBE+vdW (tier 2 basis)
C    -0.462186  -0.851348  0.243897
C    -0.282131  -0.721855  1.742135
O    0.780649  -0.972178  2.295085
H    0.509923  -0.674590  -0.225397
H    -0.764418  -1.881872  0.007620
H    -1.210345  -0.179879  -0.192110
N    -1.375098  -0.360563  2.514908
C    -2.715826  0.048517  2.113860
C    -3.407109  -0.939875  1.142866
O    -4.016468  -0.541172  0.144154
H    -1.139905  -0.306646  3.501938
H    -3.316170  -0.013039  3.039722
C    -2.707933  1.527058  1.646441
C    -3.991899  2.169494  1.098672
C    -5.265412  1.911147  1.917925
C    -6.453915  2.532762  1.207445
N    -7.762527  2.192364  1.919077
H    -1.937484  1.635755  0.871730
H    -2.342061  2.104854  2.508725
H    -4.162314  1.798884  0.081430
H    -3.820543  3.255871  1.035389
H    -5.169551  2.321030  2.937634
H    -5.429875  0.824547  1.999700
H    -6.403969  3.628104  1.170456
H    -6.558721  2.147964  0.185393
H    -8.578144  2.606756  1.448428
H    -7.751770  2.531071  2.890654
H    -7.899926  1.172796  1.950217
N    -3.380193  -2.263139  1.456980
C    -2.798524  -2.958852  2.599355
H    -3.836757  -2.833485  0.750561
H    -3.284607  -3.937035  2.682498
H    -2.981981  -2.417583  3.535231
H    -1.716476  -3.113817  2.494711
