34
Energy: -18220.0505945 eV PBE+vdW (tier 2 basis)
C    -0.334780  -0.851085  1.935041
C    -1.138822  -0.273903  3.076044
O    -0.824549  -0.432423  4.252516
H    -0.584319  -1.913431  1.804527
H    0.722645  -0.803848  2.215340
H    -0.481718  -0.336848  0.977954
N    -2.271722  0.462965  2.787133
C    -3.037102  0.574375  1.557619
C    -4.172997  1.561396  1.842936
O    -4.788900  1.547750  2.935436
H    -2.649286  0.944766  3.598197
H    -2.402934  0.991666  0.756817
C    -3.623503  -0.762082  1.014038
C    -4.817624  -1.420617  1.730787
C    -4.575901  -2.301856  2.972538
C    -4.128938  -1.663386  4.285338
N    -4.983198  -0.474245  4.659997
H    -2.796770  -1.481269  0.929542
H    -3.936779  -0.554911  -0.020360
H    -5.279249  -2.090413  0.991417
H    -5.597244  -0.670018  1.936302
H    -3.825052  -3.071667  2.738060
H    -5.508638  -2.857717  3.160203
H    -3.096792  -1.298893  4.262624
H    -4.207305  -2.390717  5.102710
H    -4.712347  -0.111714  5.580926
H    -5.976531  -0.727707  4.711085
H    -4.875806  0.332748  3.943152
N    -4.506641  2.403113  0.861223
C    -5.607376  3.357540  0.962070
H    -3.925238  2.421935  0.030416
H    -5.852902  3.717687  -0.040895
H    -5.330985  4.210301  1.595647
H    -6.484624  2.868101  1.397949
