34
Energy: -18220.3450121 eV PBE+vdW (tier 2 basis)
C    -0.018700  1.393776  0.037354
C    -0.115287  1.331378  1.537745
O    0.681409  1.990114  2.259306
H    -0.771337  0.782549  -0.471218
H    0.981256  1.054312  -0.262468
H    -0.117874  2.436263  -0.290778
N    -1.055099  0.534468  2.051486
C    -1.298509  0.264311  3.459420
C    -2.386095  -0.843478  3.446249
O    -2.985968  -1.106091  2.403506
H    -1.706277  0.010556  1.452062
H    -0.379725  -0.151060  3.906572
C    -1.729333  1.523643  4.265278
C    -0.641156  2.028088  5.227449
C    -0.705806  3.527923  5.550891
C    -0.487287  4.466674  4.366398
N    0.802410  4.168383  3.642953
H    -2.649678  1.311547  4.826392
H    -2.006721  2.293052  3.531734
H    0.346392  1.780781  4.809491
H    -0.701081  1.476575  6.176872
H    0.033274  3.762331  6.333544
H    -1.684340  3.788519  5.981771
H    -0.455398  5.510566  4.700378
H    -1.279908  4.378930  3.613148
H    1.034017  4.913134  2.977478
H    0.732984  3.235299  3.075802
H    1.587918  4.090990  4.298991
N    -2.609066  -1.451554  4.631263
C    -3.608768  -2.495799  4.815683
H    -2.023225  -1.205134  5.421295
H    -4.332891  -2.206914  5.587841
H    -3.133369  -3.442159  5.103320
H    -4.132015  -2.633912  3.865286
