34
Energy: -18219.4718351 eV PBE+vdW (tier 2 basis)
C    -0.293260  1.170073  -0.185794
C    -0.278105  0.705522  1.252191
O    0.715992  0.889618  1.978732
H    0.582890  0.759814  -0.702832
H    -1.197233  0.890146  -0.738078
H    -0.192226  2.263111  -0.201097
N    -1.410297  0.098998  1.691507
C    -1.746949  -0.421801  3.029879
C    -1.732657  0.560523  4.236196
O    -2.392078  0.246653  5.223998
H    -2.173367  0.065617  1.025003
H    -2.814298  -0.666330  2.950863
C    -1.061042  -1.746984  3.435632
C    0.438121  -1.674279  3.783859
C    1.376471  -2.052286  2.621582
C    2.716670  -1.340320  2.669687
N    3.400228  -1.569787  4.016556
H    -1.232945  -2.496366  2.648942
H    -1.617714  -2.085716  4.318385
H    0.621474  -2.347644  4.636460
H    0.662005  -0.650330  4.127588
H    0.931313  -1.763667  1.660789
H    1.514937  -3.144130  2.574426
H    3.421881  -1.688675  1.905977
H    2.571545  -0.256425  2.575005
H    4.280342  -1.045369  4.093587
H    2.776204  -1.263685  4.776863
H    3.606980  -2.565827  4.168401
N    -1.010389  1.700619  4.137714
C    -0.985550  2.668402  5.224626
H    -0.324574  1.770529  3.387065
H    -0.613553  3.624135  4.841529
H    -0.346094  2.339785  6.057801
H    -1.998888  2.804961  5.617205
