34
Energy: -18220.259248 eV PBE+vdW (tier 2 basis)
C    1.738165  -0.381018  0.528626
C    1.137388  0.123804  1.808612
O    1.611324  1.151491  2.364562
H    2.801728  -0.593979  0.695408
H    1.681206  0.409857  -0.229929
H    1.245761  -1.282443  0.149574
N    0.109578  -0.559606  2.321665
C    -0.581546  -0.208381  3.553084
C    -1.378650  -1.476431  3.931152
O    -1.828046  -2.176315  3.023890
H    -0.297362  -1.363536  1.838116
H    0.174435  0.038503  4.312485
C    -1.537194  0.990604  3.316284
C    -1.982259  1.761870  4.560326
C    -0.881791  2.497998  5.344084
C    -0.082761  3.537134  4.544220
N    1.252013  3.018364  4.075981
H    -2.420823  0.614654  2.781651
H    -1.039938  1.672641  2.609694
H    -2.517600  1.094871  5.251131
H    -2.731240  2.503324  4.243021
H    -0.183415  1.787131  5.816120
H    -1.357891  3.021943  6.183638
H    0.120865  4.427488  5.150520
H    -0.624767  3.864467  3.647897
H    1.763351  3.746989  3.564466
H    1.232458  2.139238  3.396136
H    1.837078  2.762012  4.878923
N    -1.589226  -1.760470  5.240127
C    -0.990447  -1.162080  6.424583
H    -2.167420  -2.586239  5.374350
H    -1.008791  -1.900655  7.232599
H    -1.534079  -0.271681  6.771421
H    0.060377  -0.898500  6.251448
