34
Energy: -18219.3283 eV PBE+vdW (tier 2 basis)
C    0.381479  0.490607  1.189480
C    -0.268149  0.258619  2.522721
O    0.444918  0.076268  3.548477
H    0.217338  -0.389021  0.550785
H    1.452755  0.639549  1.345161
H    -0.035547  1.349104  0.648973
N    -1.611087  0.185008  2.646829
C    -2.688748  0.765938  1.832356
C    -2.449740  0.459076  0.323370
O    -2.270361  -0.719568  0.033873
H    -1.897394  -0.139476  3.567961
H    -3.561761  0.120996  2.013185
C    -3.059668  2.173025  2.376074
C    -1.870019  3.058735  2.796470
C    -1.533971  2.951814  4.301911
C    -0.063698  3.234826  4.660645
N    0.598708  2.014420  5.252059
H    -3.708691  2.020584  3.252324
H    -3.699203  2.682407  1.647254
H    -2.086258  4.108718  2.556764
H    -0.979841  2.800669  2.204073
H    -1.792341  1.945278  4.662048
H    -2.184098  3.631995  4.867425
H    0.041855  4.050758  5.384597
H    0.524031  3.498533  3.772557
H    1.596041  2.178327  5.429505
H    0.511881  1.149110  4.569154
H    0.168980  1.760102  6.148204
N    -2.503850  1.412048  -0.650107
C    -2.587770  2.866715  -0.632319
H    -2.437885  0.978401  -1.567827
H    -1.884765  3.314624  0.079568
H    -3.602207  3.232639  -0.419336
H    -2.309704  3.226963  -1.628102
