34
Energy: -18219.258336 eV PBE+vdW (tier 2 basis)
C    0.215162  1.427299  0.261192
C    -0.055619  0.250620  1.171698
O    0.579006  -0.800218  1.094122
H    0.918066  2.095019  0.780295
H    -0.686532  2.006786  0.022214
H    0.689377  1.079824  -0.661364
N    -1.107952  0.439551  2.057165
C    -1.163169  -0.129686  3.405408
C    -0.104443  0.606236  4.291534
O    0.844283  1.190491  3.782087
H    -1.454007  1.395411  2.045912
H    -2.166952  0.117830  3.790340
C    -0.977078  -1.655292  3.518457
C    -2.005396  -2.541759  2.795931
C    -1.833704  -2.579235  1.268619
C    -2.438360  -3.819119  0.642230
N    -2.090464  -3.842162  -0.845715
H    -1.034186  -1.896807  4.589510
H    0.036407  -1.919396  3.192579
H    -3.031079  -2.234616  3.054369
H    -1.883034  -3.562370  3.193126
H    -0.755868  -2.531608  1.041305
H    -2.277497  -1.676852  0.820178
H    -3.533563  -3.862703  0.702309
H    -2.025489  -4.745988  1.060604
H    -2.432614  -4.686978  -1.321372
H    -1.068606  -3.792182  -0.966511
H    -2.487903  -3.021918  -1.323133
N    -0.330354  0.537328  5.630231
C    0.560136  1.135474  6.613891
H    -1.170624  0.078520  5.962312
H    0.046677  1.920837  7.183989
H    1.401742  1.579679  6.073881
H    0.939670  0.377127  7.310890
