34
Energy: -18220.3428656 eV PBE+vdW (tier 2 basis)
C    -0.080757  -0.528754  0.153964
C    0.136973  -0.282516  1.623073
O    1.273617  0.061708  2.046551
H    0.237387  0.353223  -0.415714
H    -1.118536  -0.771149  -0.097310
H    0.564148  -1.361384  -0.157070
N    -0.917842  -0.469256  2.422852
C    -0.987406  -0.385705  3.875036
C    -2.505575  -0.536823  4.183019
O    -3.323551  -0.526769  3.261591
H    -1.848881  -0.647568  2.024129
H    -0.457466  -1.250752  4.308710
C    -0.367476  0.895459  4.475558
C    -0.834699  2.205534  3.823061
C    0.163286  3.367083  3.962437
C    1.250094  3.448905  2.892679
N    2.223776  2.294984  2.914515
H    0.720739  0.777473  4.412996
H    -0.594034  0.919089  5.551429
H    -1.794194  2.504773  4.265486
H    -1.047732  2.041701  2.755475
H    0.622670  3.369968  4.965165
H    -0.378114  4.321535  3.891222
H    1.835085  4.369370  3.011208
H    0.811507  3.452723  1.886085
H    2.996925  2.462895  2.261168
H    1.763160  1.342446  2.608381
H    2.636790  2.178409  3.846261
N    -2.830181  -0.667363  5.486542
C    -4.202361  -0.839317  5.948310
H    -2.084183  -0.745684  6.168479
H    -4.408741  -0.159038  6.782943
H    -4.383032  -1.872800  6.272399
H    -4.872766  -0.607802  5.115857
