34
Energy: -18218.5303961 eV PBE+vdW (tier 2 basis)
C    0.047657  -0.038016  0.596859
C    -0.284458  -0.071641  2.074018
O    0.581144  -0.103800  2.935930
H    -0.453107  0.784581  0.068878
H    -0.241975  -0.982070  0.114948
H    1.128938  0.086792  0.498739
N    -1.620286  -0.058980  2.455518
C    -2.832459  -0.160012  1.647207
C    -2.843327  -1.473661  0.801072
O    -2.764032  -2.521266  1.431827
H    -1.715515  -0.286528  3.440783
H    -3.621362  -0.401627  2.376741
C    -3.235336  1.193923  1.022623
C    -3.392422  2.271694  2.102225
C    -3.702835  3.680164  1.575094
C    -5.079640  3.861357  0.951808
N    -6.167783  3.655689  2.002717
H    -4.172792  1.050660  0.461268
H    -2.484934  1.536971  0.297500
H    -2.456974  2.325310  2.675911
H    -4.144565  1.946780  2.849564
H    -2.973123  3.954429  0.798473
H    -3.568575  4.426821  2.375216
H    -5.288404  3.133187  0.158601
H    -5.230655  4.870728  0.551731
H    -6.097980  4.365316  2.745084
H    -6.057330  2.734319  2.450814
H    -7.112646  3.707996  1.600893
N    -2.986864  -1.497406  -0.560381
C    -2.938100  -0.463685  -1.583407
H    -3.014283  -2.457803  -0.893472
H    -3.850964  0.149384  -1.614453
H    -2.848128  -0.960398  -2.554761
H    -2.066728  0.193955  -1.475455
