34
Energy: -18219.1975075 eV PBE+vdW (tier 2 basis)
C    0.157739  -1.355419  0.428872
C    -0.004309  -1.350077  1.928423
O    0.421953  -2.205853  2.669442
H    -0.782774  -1.651229  -0.059693
H    0.916138  -2.099797  0.172359
H    0.457538  -0.377608  0.027819
N    -0.670929  -0.223398  2.508840
C    -1.662566  0.607023  1.819541
C    -0.985568  1.956158  1.553002
O    0.206965  2.105239  2.053199
H    -0.888441  -0.423748  3.486530
H    -1.900715  0.162787  0.841425
C    -2.971910  0.752920  2.627923
C    -2.861756  1.626201  3.880851
C    -4.206697  1.846001  4.590413
C    -5.319740  2.445302  3.722940
N    -4.866110  3.640552  2.982898
H    -3.303009  -0.265746  2.879932
H    -3.740972  1.162809  1.962513
H    -2.446668  2.608109  3.604681
H    -2.157167  1.187246  4.604786
H    -4.028685  2.501362  5.456986
H    -4.572751  0.895110  5.006543
H    -6.187339  2.642963  4.375616
H    -5.663428  1.709318  2.979849
H    0.380444  1.201607  2.487960
H    -4.570898  4.362529  3.644883
H    -5.659634  4.046410  2.483477
N    -1.494120  2.949138  0.871784
C    -2.831950  3.037290  0.276647
H    -0.905485  3.780817  0.815122
H    -2.798325  3.798576  -0.507834
H    -3.565294  3.320434  1.053033
H    -3.109152  2.082162  -0.182030
