34
Energy: -18219.5588525 eV PBE+vdW (tier 2 basis)
C    -1.879451  -0.963012  -0.832147
C    -0.964184  -0.987048  0.375716
O    0.176058  -1.421922  0.317749
H    -2.687855  -0.224079  -0.794381
H    -2.333701  -1.957004  -0.952216
H    -1.261425  -0.778215  -1.716014
N    -1.463559  -0.561763  1.599740
C    -2.734577  0.076170  1.913646
C    -3.951882  -0.766564  1.482096
O    -4.991787  -0.244451  1.004132
H    -0.762988  -0.604276  2.334764
H    -2.796096  0.061371  3.017082
C    -2.703949  1.563793  1.462637
C    -3.955842  2.443220  1.562459
C    -4.714459  2.431814  2.905845
C    -6.214788  2.595429  2.702519
N    -6.789234  1.333410  2.078086
H    -2.360916  1.591834  0.420100
H    -1.887719  2.012619  2.048018
H    -4.634882  2.162105  0.747131
H    -3.651774  3.476619  1.342297
H    -4.368434  3.244398  3.558420
H    -4.535115  1.506392  3.476238
H    -6.431415  3.421724  2.014901
H    -6.756699  2.779062  3.637131
H    -7.538387  1.536955  1.409345
H    -7.187008  0.721348  2.797325
H    -6.018045  0.750203  1.578471
N    -3.928675  -2.098634  1.660857
C    -2.934292  -2.975829  2.279069
H    -4.778464  -2.544776  1.323528
H    -3.443439  -3.905134  2.555150
H    -2.522118  -2.531354  3.190736
H    -2.109396  -3.214390  1.597009
