34
Energy: -18220.0874733 eV PBE+vdW (tier 2 basis)
C    -0.067419  0.606876  0.511432
C    -0.191347  0.177180  1.944523
O    0.833607  0.082479  2.670911
H    0.793012  0.111777  0.048079
H    0.144041  1.686206  0.506508
H    -0.966524  0.433566  -0.087158
N    -1.399716  -0.086675  2.476662
C    -2.640112  -0.501354  1.838515
C    -3.709584  -0.362061  2.950394
O    -3.360065  -0.403945  4.134286
H    -1.476153  -0.145281  3.499894
H    -2.887404  0.157930  0.994637
C    -2.538790  -1.971568  1.351508
C    -2.236714  -2.988572  2.481333
C    -0.961920  -3.834268  2.322117
C    0.377068  -3.100728  2.332860
N    0.640886  -2.320751  3.608583
H    -1.765907  -2.009828  0.568306
H    -3.478795  -2.237128  0.849085
H    -3.075143  -3.691842  2.562160
H    -2.232690  -2.471084  3.453982
H    -0.997854  -4.384809  1.369544
H    -0.950601  -4.608725  3.105322
H    0.453521  -2.375365  1.514042
H    1.198465  -3.814728  2.209397
H    1.504974  -2.625485  4.065013
H    -0.121503  -2.439999  4.283767
H    0.741210  -1.238557  3.366655
N    -4.984516  -0.252974  2.529431
C    -6.124012  -0.172893  3.435381
H    -5.158887  -0.182158  1.532833
H    -6.660110  0.773928  3.295694
H    -5.746768  -0.223212  4.460504
H    -6.815477  -1.006931  3.261736
