34
Energy: -18219.5114893 eV PBE+vdW (tier 2 basis)
C    0.026810  1.325729  -0.096902
C    0.282530  0.371100  1.048545
O    1.413715  -0.013180  1.309916
H    0.938498  1.357969  -0.699423
H    -0.817543  1.042244  -0.735322
H    -0.165347  2.337406  0.285808
N    -0.753714  -0.074829  1.870026
C    -2.211927  -0.006560  1.901033
C    -2.857500  -1.390481  1.664238
O    -3.775956  -1.786868  2.434450
H    -0.357698  -0.661556  2.602807
H    -2.472717  0.198239  2.953105
C    -2.865855  1.127558  1.078562
C    -4.270095  1.541115  1.552748
C    -5.434949  0.611972  1.132280
C    -6.420595  0.265714  2.243463
N    -5.728779  -0.412233  3.409403
H    -2.892888  0.883751  0.007538
H    -2.213542  2.002895  1.183663
H    -4.467852  2.549318  1.166507
H    -4.235320  1.668036  2.648003
H    -5.056354  -0.322516  0.697309
H    -6.019850  1.086640  0.332945
H    -7.181021  -0.433826  1.877978
H    -6.935744  1.152932  2.632028
H    -6.368180  -1.034380  3.912882
H    -5.383003  0.273643  4.086809
H    -4.855876  -0.994213  3.052091
N    -2.455353  -2.207526  0.683625
C    -1.432064  -2.036551  -0.346010
H    -2.939537  -3.102890  0.700913
H    -1.523536  -1.065418  -0.842046
H    -0.419500  -2.142252  0.061407
H    -1.590609  -2.812110  -1.101504
