34
Energy: -18219.1653377 eV PBE+vdW (tier 2 basis)
C    -0.201468  -0.061526  -0.088809
C    -0.235826  -0.059992  1.423844
O    0.768876  -0.130180  2.122120
H    0.314966  0.845134  -0.429324
H    0.392675  -0.917790  -0.429323
H    -1.192601  -0.100022  -0.557150
N    -1.485752  0.021566  1.998610
C    -1.626185  0.114627  3.436870
C    -1.226279  -1.121072  4.285680
O    -0.849840  -0.910723  5.446027
H    -2.307163  0.078789  1.408551
H    -0.902390  0.864330  3.792696
C    -3.045384  0.600105  3.798906
C    -3.258489  0.656091  5.316030
C    -4.377849  1.578963  5.799471
C    -4.607474  1.436033  7.300006
N    -3.289566  1.574576  8.059581
H    -3.805979  -0.052150  3.340742
H    -3.175665  1.601438  3.360106
H    -2.291996  0.965524  5.747407
H    -3.433379  -0.364185  5.693516
H    -5.335357  1.341247  5.312284
H    -4.159381  2.629183  5.547824
H    -5.284805  2.193902  7.710082
H    -4.988799  0.440677  7.560476
H    -2.602379  0.891132  7.701311
H    -2.880447  2.509421  7.928198
H    -3.409403  1.418947  9.068076
N    -1.351486  -2.388004  3.816911
C    -1.738109  -2.899775  2.508078
H    -0.991534  -3.068002  4.481383
H    -2.654331  -2.424505  2.141921
H    -1.943295  -3.970409  2.615456
H    -0.944452  -2.774679  1.758758
