34
Energy: -18220.1884568 eV PBE+vdW (tier 2 basis)
C    -0.321703  1.340592  -0.299342
C    -0.045347  1.000944  1.139623
O    1.110431  1.119736  1.627053
H    0.326510  0.725629  -0.936757
H    -0.055448  2.389559  -0.483101
H    -1.365793  1.181069  -0.587823
N    -1.068846  0.547393  1.867392
C    -1.005065  0.114092  3.255643
C    -2.240318  -0.808782  3.406126
O    -3.177788  -0.682377  2.615101
H    -1.995681  0.380382  1.457531
H    -0.069596  -0.444910  3.398575
C    -1.085360  1.310464  4.261323
C    -0.000875  1.372001  5.348145
C    1.439929  1.533964  4.837557
C    1.703747  2.895591  4.182405
N    2.586905  2.737124  2.971488
H    -2.067932  1.301128  4.752762
H    -1.080214  2.232188  3.661770
H    -0.038654  0.469301  5.971766
H    -0.247183  2.201780  6.028843
H    1.648026  0.741540  4.103620
H    2.142142  1.385419  5.668990
H    2.176982  3.606014  4.869655
H    0.779059  3.350678  3.807419
H    2.806125  3.637114  2.532018
H    2.043771  2.105523  2.270611
H    3.474824  2.281401  3.209019
N    -2.272898  -1.703173  4.420548
C    -1.255798  -2.027039  5.407491
H    -3.151010  -2.214074  4.467619
H    -1.388717  -1.463163  6.342393
H    -0.252394  -1.831341  5.013616
H    -1.312344  -3.096244  5.640616
