34
Energy: -18218.9382559 eV PBE+vdW (tier 2 basis)
C    -0.112043  -0.204859  0.210425
C    -0.646652  -0.445008  1.597406
O    -0.244712  -1.334002  2.338981
H    -0.046802  -1.162424  -0.318064
H    -0.713451  0.498691  -0.376902
H    0.910246  0.187821  0.294782
N    -1.662538  0.408446  2.011342
C    -2.063271  0.401982  3.404185
C    -3.541409  0.109400  3.545726
O    -4.358658  0.905692  4.203296
H    -1.912737  1.203535  1.432585
H    -1.554039  -0.502268  3.800923
C    -1.537352  1.602306  4.227195
C    -1.622618  3.024732  3.645689
C    -3.004646  3.679473  3.480691
C    -3.725226  3.402384  2.154598
N    -5.008789  4.081966  2.118071
H    -0.474608  1.378064  4.394964
H    -1.983650  1.571311  5.236637
H    -1.085142  3.063815  2.684495
H    -1.026310  3.652352  4.321704
H    -2.901227  4.770505  3.559797
H    -3.664744  3.442037  4.344770
H    -3.104129  3.813237  1.343916
H    -3.790192  2.305916  1.957595
H    -5.699203  3.653964  2.734125
H    -5.404843  4.113942  1.180698
H    -3.914016  1.753329  4.429097
N    -4.105177  -0.981550  3.086705
C    -3.469140  -2.111328  2.406743
H    -5.112845  -1.041490  3.238934
H    -3.990469  -3.024060  2.711630
H    -2.412312  -2.189253  2.680568
H    -3.554591  -1.992200  1.319381
