34
Energy: -18220.0051811 eV PBE+vdW (tier 2 basis)
C    -1.287169  -0.738057  0.329317
C    -1.201869  -0.682537  1.828981
O    -0.356351  -1.329004  2.466979
H    -0.425691  -0.218700  -0.111099
H    -1.213188  -1.791403  0.033225
H    -2.213971  -0.316687  -0.073581
N    -2.102598  0.083342  2.532962
C    -2.634641  1.405950  2.220311
C    -1.706739  2.143556  1.241497
O    -0.484856  2.235637  1.483970
H    -2.061285  -0.123667  3.524718
H    -3.650199  1.321486  1.800548
C    -2.673915  2.292471  3.513175
C    -2.631248  1.617990  4.897937
C    -1.325168  0.947174  5.416809
C    0.034915  1.533841  5.026368
N    0.550349  1.056772  3.690370
H    -3.593090  2.890336  3.466960
H    -1.850476  3.018492  3.456612
H    -3.451908  0.891070  4.998810
H    -2.881212  2.420874  5.605350
H    -1.299043  -0.135156  5.209780
H    -1.368290  0.995580  6.513848
H    0.778185  1.229724  5.772316
H    0.025716  2.631154  4.997879
H    0.345769  0.040076  3.509379
H    1.565598  1.183464  3.632136
H    0.119106  1.576130  2.854304
N    -2.287339  2.715468  0.179757
C    -1.575650  3.520230  -0.806013
H    -3.281536  2.561370  0.046682
H    -0.558705  3.691610  -0.443222
H    -1.530871  2.998049  -1.770500
H    -2.083870  4.481998  -0.942487
