34
Energy: -18219.2529054 eV PBE+vdW (tier 2 basis)
C    -0.233198  -0.035248  -0.252898
C    -0.254302  -0.605400  1.150534
O    0.624054  -1.368790  1.557996
H    -0.610717  0.992846  -0.303711
H    -0.839160  -0.646423  -0.938034
H    0.800774  -0.064958  -0.608998
N    -1.281422  -0.212668  1.986167
C    -2.658761  0.040668  1.560155
C    -3.316471  1.270601  2.231596
O    -4.534975  1.407877  2.183513
H    -1.173989  -0.603353  2.921844
H    -2.620350  0.284543  0.488173
C    -3.568227  -1.196567  1.735550
C    -2.984082  -2.491715  1.133034
C    -2.203278  -3.357787  2.147342
C    -1.026494  -4.127337  1.572536
N    -1.472041  -5.063393  0.449608
H    -4.532837  -0.950104  1.278416
H    -3.781970  -1.347195  2.805366
H    -2.330468  -2.225231  0.282946
H    -3.809720  -3.082466  0.707832
H    -2.890373  -4.037377  2.676087
H    -1.759757  -2.729462  2.930650
H    -0.537197  -4.763807  2.319261
H    -0.274738  -3.450167  1.143480
H    -0.674396  -5.558632  0.030752
H    -1.942000  -4.531590  -0.295890
H    -2.138760  -5.767928  0.792979
N    -2.456880  2.142125  2.815142
C    -2.895929  3.380394  3.437999
H    -1.466220  1.929551  2.766529
H    -2.494633  4.252617  2.905127
H    -2.575470  3.424166  4.486792
H    -3.989308  3.407988  3.394012
