34
Energy: -18220.2920683 eV PBE+vdW (tier 2 basis)
C    -0.393685  0.839982  0.339852
C    -0.331363  0.522184  1.811939
O    0.696670  0.721012  2.477876
H    0.292221  0.164645  -0.188877
H    -1.393967  0.737114  -0.095681
H    -0.029046  1.861205  0.180350
N    -1.469128  0.012311  2.368487
C    -1.610758  -0.582152  3.703040
C    -1.438241  0.371419  4.895723
O    -2.211809  0.229461  5.884780
H    -2.270323  -0.092111  1.756954
H    -2.662893  -0.886284  3.773496
C    -0.742991  -1.859597  3.868591
C    -0.936731  -2.576329  5.215464
C    0.007812  -2.113582  6.349139
C    -0.611804  -2.203668  7.741658
N    -1.489521  -0.999468  8.038262
H    0.314881  -1.608739  3.708688
H    -1.032069  -2.532862  3.050497
H    -0.786505  -3.653906  5.066698
H    -1.987636  -2.468593  5.527484
H    0.372676  -1.088469  6.179319
H    0.912174  -2.736950  6.348232
H    -1.244284  -3.094691  7.834946
H    0.148747  -2.251289  8.529114
H    -1.830349  -0.489306  7.119418
H    -2.308137  -1.250995  8.600441
H    -0.966858  -0.296895  8.570009
N    -0.449258  1.256485  4.853876
C    -0.175163  2.206279  5.918668
H    0.166871  1.201272  4.012407
H    0.234677  3.123778  5.484253
H    0.563126  1.808781  6.632401
H    -1.101547  2.440879  6.453815
