34
Energy: -18220.4293426 eV PBE+vdW (tier 2 basis)
C    1.263679  0.558874  2.819375
C    0.105731  -0.054119  2.083884
O    0.294800  -1.074172  1.369266
H    2.039156  0.829210  2.091425
H    1.699407  -0.190519  3.491938
H    0.985824  1.446429  3.396724
N    -1.087818  0.533121  2.231916
C    -2.303641  0.248485  1.485790
C    -2.963321  1.641565  1.286060
O    -2.689646  2.557602  2.061058
H    -1.157974  1.429083  2.727944
H    -2.022829  -0.184684  0.514231
C    -3.282893  -0.662694  2.266158
C    -2.779904  -2.062927  2.657877
C    -3.048196  -3.193128  1.649842
C    -2.369525  -3.118019  0.286205
N    -0.871008  -3.128422  0.403823
H    -4.216271  -0.747482  1.687572
H    -3.549731  -0.115329  3.181630
H    -3.293022  -2.353816  3.584770
H    -1.714911  -2.020642  2.932494
H    -4.129773  -3.253705  1.454296
H    -2.786455  -4.157035  2.116792
H    -2.630914  -2.204075  -0.261663
H    -2.667550  -3.972259  -0.334512
H    -0.425797  -3.235055  -0.513769
H    -0.556303  -3.914728  0.983341
H    -0.469220  -2.189133  0.851144
N    -3.858460  1.746057  0.281930
C    -4.590571  2.981485  0.020279
H    -3.975894  0.970440  -0.358420
H    -5.477665  2.750608  -0.577399
H    -3.968882  3.708694  -0.519364
H    -4.899096  3.429286  0.970698
