34
Energy: -18220.115428 eV PBE+vdW (tier 2 basis)
C    0.104458  1.945116  0.348825
C    0.184350  1.178253  1.638848
O    1.298036  0.835977  2.098004
H    0.524266  1.324786  -0.453913
H    0.729499  2.843092  0.423797
H    -0.916250  2.235531  0.076276
N    -0.983971  0.880506  2.250164
C    -1.072114  0.063127  3.456814
C    -1.998816  -1.172772  3.385842
O    -1.547587  -2.228330  3.826084
H    -1.832473  1.231936  1.821582
H    -0.097462  -0.423543  3.522215
C    -1.322760  0.887637  4.738971
C    -0.110646  1.706032  5.213792
C    0.903129  0.949644  6.093304
C    1.592433  -0.287876  5.523369
N    2.432274  0.028243  4.308252
H    -1.642418  0.196235  5.533378
H    -2.172311  1.563783  4.565464
H    -0.474807  2.547261  5.819493
H    0.389928  2.175642  4.352288
H    0.396186  0.610380  7.009567
H    1.674275  1.659197  6.435511
H    0.883524  -1.070201  5.223249
H    2.262769  -0.722102  6.275516
H    1.849878  0.355560  3.440900
H    2.965303  -0.796337  4.010389
H    3.112339  0.768009  4.517872
N    -3.268821  -1.071214  2.912461
C    -3.992609  0.092115  2.424829
H    -3.763160  -1.959660  2.921584
H    -5.066427  -0.087202  2.542825
H    -3.808882  0.289802  1.356028
H    -3.760252  0.989114  3.013048
