34
Energy: -18218.9388838 eV PBE+vdW (tier 2 basis)
C    -0.001373  -0.012584  0.092694
C    -0.127609  0.248061  1.576548
O    0.806623  0.656333  2.260282
H    -0.541214  -0.904603  -0.245086
H    -0.396310  0.841517  -0.476643
H    1.062365  -0.107573  -0.141080
N    -1.353736  0.037907  2.186692
C    -2.647967  -0.375920  1.640976
C    -2.612998  -1.786030  0.976723
O    -2.894594  -1.935946  -0.209198
H    -1.287795  0.165343  3.191809
H    -3.300860  -0.468138  2.522774
C    -3.281434  0.630983  0.655999
C    -2.992706  2.108071  0.931087
C    -3.508038  2.639389  2.279000
C    -3.140618  4.105308  2.431896
N    -3.598942  4.656456  3.781091
H    -4.366367  0.450252  0.632980
H    -2.934844  0.386227  -0.355894
H    -3.444954  2.698456  0.119391
H    -1.908893  2.289600  0.878673
H    -3.057340  2.063383  3.103571
H    -4.601598  2.510930  2.341769
H    -2.055356  4.263524  2.395629
H    -3.613545  4.738497  1.670780
H    -3.159400  4.138953  4.554639
H    -3.359712  5.651085  3.892675
H    -4.618151  4.562716  3.888998
N    -2.259305  -2.835025  1.768908
C    -1.885641  -2.846455  3.174181
H    -2.221711  -3.715871  1.264027
H    -0.853125  -2.506252  3.338694
H    -1.975413  -3.871869  3.547705
H    -2.564143  -2.225090  3.774847
