34
Energy: -18219.8220851 eV PBE+vdW (tier 2 basis)
C    -0.076784  -0.423638  -0.908716
C    0.237792  -0.743163  0.532440
O    1.329972  -1.171079  0.898444
H    0.554077  -1.038457  -1.556905
H    0.180264  0.630527  -1.089915
H    -1.129876  -0.557709  -1.180725
N    -0.725855  -0.490452  1.488494
C    -2.154500  -0.270493  1.375876
C    -2.678650  -0.082206  2.799055
O    -2.162851  -0.686598  3.771494
H    -0.358586  -0.519380  2.434319
H    -2.353864  0.652215  0.810704
C    -2.971510  -1.426534  0.685583
C    -2.362512  -2.834864  0.606284
C    -2.154328  -3.656063  1.898434
C    -0.738062  -3.619854  2.500558
N    -0.688000  -2.867498  3.808980
H    -3.177204  -1.109156  -0.345433
H    -3.958063  -1.488893  1.170430
H    -1.418541  -2.811777  0.042916
H    -3.053981  -3.403197  -0.031655
H    -2.372736  -4.704874  1.661113
H    -2.900248  -3.377427  2.659687
H    -0.018837  -3.125305  1.837210
H    -0.363089  -4.628896  2.705351
H    0.281504  -2.655483  4.071345
H    -1.099096  -3.419156  4.569883
H    -1.250169  -1.939626  3.747826
N    -3.732763  0.720080  2.990744
C    -4.435316  1.541090  2.006013
H    -4.051768  0.760565  3.955797
H    -3.768034  2.285382  1.552612
H    -5.235879  2.076280  2.524274
H    -4.891814  0.930574  1.216825
