34
Energy: -18219.5245248 eV PBE+vdW (tier 2 basis)
C    -0.000452  -0.209602  -0.077043
C    -0.090701  -0.182192  1.433970
O    0.871724  -0.395183  2.165386
H    0.831862  0.428443  -0.396331
H    -0.920368  0.109474  -0.582147
H    0.237621  -1.233293  -0.393675
N    -1.331248  0.102473  1.953486
C    -1.585629  0.008438  3.378503
C    -3.099806  -0.169405  3.560197
O    -3.915333  0.398871  2.817388
H    -2.146964  0.193695  1.355487
H    -1.066929  -0.888450  3.754174
C    -1.004733  1.205408  4.196528
C    -1.139311  2.593240  3.560642
C    -2.575449  3.135877  3.524977
C    -2.679996  4.413307  2.715919
N    -4.151737  4.791129  2.553871
H    0.066185  1.000352  4.318260
H    -1.447948  1.192738  5.204606
H    -0.744142  2.544114  2.534302
H    -0.490138  3.291032  4.110096
H    -2.934556  3.311852  4.553134
H    -3.232302  2.372156  3.075337
H    -2.288856  4.290658  1.697842
H    -2.188247  5.277863  3.179707
H    -4.284110  5.628601  1.972031
H    -4.584618  4.967960  3.470332
H    -4.667206  4.010618  2.122128
N    -3.458102  -0.963490  4.592634
C    -4.838509  -1.247587  4.951968
H    -2.720378  -1.438061  5.101605
H    -5.050520  -0.922607  5.979001
H    -5.046804  -2.321867  4.869125
H    -5.486969  -0.705866  4.257244
