34
Energy: -18219.4146472 eV PBE+vdW (tier 2 basis)
C    -0.924714  2.250093  0.117249
C    -0.874967  1.589631  1.476699
O    0.165773  1.123481  1.951487
H    -0.102262  2.970010  0.032820
H    -1.874188  2.754985  -0.096525
H    -0.756902  1.481318  -0.648950
N    -2.055571  1.545936  2.163715
C    -2.227872  0.782929  3.404455
C    -3.746986  0.696162  3.677545
O    -4.287542  1.421462  4.510132
H    -2.884181  1.939335  1.730690
H    -1.830652  -0.228927  3.223324
C    -1.476350  1.322096  4.641104
C    -1.562586  2.826517  4.954879
C    -0.657710  3.777859  4.147414
C    0.804580  3.367755  4.040032
N    1.401781  3.120799  5.423582
H    -0.431229  0.989530  4.537883
H    -1.890087  0.777994  5.501195
H    -1.353722  2.958272  6.031957
H    -2.603813  3.155619  4.848822
H    -0.731550  4.791217  4.574118
H    -1.015359  3.866435  3.113185
H    1.422539  4.146382  3.577806
H    0.929096  2.431670  3.477549
H    2.385519  2.830378  5.364691
H    0.877281  2.375535  5.902425
H    1.349454  3.962092  6.013176
N    -4.450451  -0.186826  2.916389
C    -3.937909  -1.206732  2.008684
H    -5.441251  -0.209762  3.143207
H    -3.193321  -0.792016  1.318374
H    -4.770909  -1.582887  1.406184
H    -3.493113  -2.058220  2.544853
