34
Energy: -18219.4440939 eV PBE+vdW (tier 2 basis)
C    0.631011  -0.152899  1.954795
C    -0.186729  -0.330535  3.177778
O    0.531742  -0.182957  4.289646
H    1.245220  0.748767  2.086681
H    0.034023  -0.087494  1.046978
H    1.310636  -1.009127  1.856003
N    -1.469654  -0.542469  3.289274
C    -2.482442  -0.768233  2.253357
C    -2.124838  -2.009020  1.399470
O    -0.972076  -2.429361  1.357002
H    -1.963299  -0.317925  4.224825
H    -3.382502  -1.015084  2.837216
C    -2.796094  0.506325  1.443799
C    -3.016486  1.758131  2.308157
C    -4.134231  1.678818  3.378509
C    -3.681128  1.643395  4.842717
N    -3.136913  0.324260  5.283923
H    -1.991185  0.700487  0.721389
H    -3.696132  0.310160  0.845026
H    -3.243980  2.579962  1.616552
H    -2.069515  2.047198  2.789874
H    -4.812297  0.830792  3.180650
H    -4.771152  2.568264  3.281166
H    -2.887973  2.388814  4.997083
H    -4.524701  1.939984  5.484858
H    0.011583  -0.383879  5.090203
H    -2.798110  0.415099  6.245048
H    -3.905241  -0.349949  5.343771
N    -3.138656  -2.599846  0.717972
C    -4.557749  -2.277719  0.681619
H    -2.822712  -3.380252  0.147656
H    -4.800609  -1.533392  -0.090746
H    -5.118791  -3.192347  0.462206
H    -4.908752  -1.907657  1.652659
