34
Energy: -18219.1102507 eV PBE+vdW (tier 2 basis)
C    -0.122191  0.928241  0.049753
C    0.153149  0.119599  1.301329
O    1.266214  0.067297  1.803670
H    0.755571  0.842630  -0.599598
H    -0.214323  1.988471  0.323797
H    -1.015621  0.626746  -0.507784
N    -0.883154  -0.611471  1.880174
C    -2.324721  -0.578523  1.642916
C    -2.796839  -1.294354  0.349363
O    -3.976396  -1.206520  -0.002522
H    -0.564098  -1.088290  2.719448
H    -2.745608  -1.216092  2.438451
C    -2.907383  0.850660  1.820178
C    -4.431684  1.041162  1.729998
C    -5.299371  0.137033  2.616990
C    -5.045554  0.244169  4.111215
N    -5.337185  1.665075  4.591761
H    -2.458066  1.515614  1.072097
H    -2.519289  1.208366  2.789651
H    -4.756224  0.867028  0.698786
H    -4.649094  2.110307  1.924452
H    -5.142491  -0.912431  2.327897
H    -6.365473  0.329887  2.413776
H    -4.001091  0.050524  4.385462
H    -5.691824  -0.416124  4.701181
H    -6.329453  1.899091  4.451756
H    -5.114467  1.798216  5.586311
H    -4.786339  2.338958  4.040266
N    -1.866342  -2.044509  -0.278044
C    -2.152184  -2.837470  -1.462349
H    -0.936278  -2.066376  0.127515
H    -1.514671  -2.526854  -2.300106
H    -3.201529  -2.680629  -1.730305
H    -1.986301  -3.904764  -1.266165
