34
Energy: -18219.3867462 eV PBE+vdW (tier 2 basis)
C    -0.165294  0.480177  0.031174
C    -0.148832  -0.546166  1.143905
O    0.704392  -1.420763  1.232099
H    -0.993930  1.196065  0.097722
H    -0.225108  -0.045069  -0.930183
H    0.784911  1.027937  0.039759
N    -1.178253  -0.448985  2.060511
C    -1.265950  -1.359934  3.191960
C    -2.726218  -1.759130  3.504685
O    -3.133620  -1.845452  4.664921
H    -1.831188  0.322915  1.988735
H    -0.740340  -2.270753  2.857845
C    -0.535678  -0.877398  4.452786
C    -1.074463  0.429603  5.046141
C    -0.586096  0.620255  6.488144
C    -1.157007  1.881623  7.109608
N    -0.733155  1.997211  8.573568
H    0.531776  -0.779520  4.208457
H    -0.629568  -1.678317  5.199467
H    -2.173778  0.394653  5.053075
H    -0.766889  1.288808  4.429528
H    0.516322  0.652126  6.514436
H    -0.903048  -0.256410  7.078057
H    -2.254251  1.882715  7.113008
H    -0.804543  2.797231  6.618420
H    -1.109218  2.842437  9.023432
H    0.292480  2.023635  8.655231
H    -1.060408  1.180720  9.108433
N    -3.489822  -2.021821  2.413606
C    -4.854861  -2.512393  2.500354
H    -3.043620  -1.971674  1.503968
H    -5.521581  -1.917359  1.863422
H    -5.177369  -2.427752  3.542778
H    -4.918741  -3.566349  2.196135
