34
Energy: -18220.1959804 eV PBE+vdW (tier 2 basis)
C    -0.570213  -1.458523  -0.843169
C    -0.537436  -1.487939  0.657704
O    0.037832  -2.399663  1.284704
H    0.471897  -1.471054  -1.190804
H    -1.062793  -0.571358  -1.252609
H    -1.042968  -2.367626  -1.234729
N    -1.090356  -0.456393  1.367189
C    -2.371404  0.218936  1.190387
C    -2.771547  0.670218  2.616224
O    -2.383679  0.043366  3.622890
H    -0.825995  -0.478835  2.351544
H    -2.254851  1.122366  0.568918
C    -3.492554  -0.650823  0.539725
C    -3.593984  -2.143639  0.899918
C    -3.968752  -2.532611  2.351640
C    -2.958788  -3.404571  3.095920
N    -1.677131  -2.678042  3.431525
H    -3.363534  -0.587952  -0.549414
H    -4.452886  -0.153532  0.745229
H    -2.672657  -2.664729  0.606275
H    -4.357035  -2.554440  0.225220
H    -4.897887  -3.118497  2.335777
H    -4.198990  -1.648749  2.961724
H    -2.683887  -4.293989  2.514895
H    -3.390033  -3.741985  4.046153
H    -1.204168  -3.117846  4.226721
H    -1.896488  -1.677754  3.671171
H    -0.972656  -2.655673  2.623666
N    -3.567408  1.745400  2.683108
C    -4.102538  2.293098  3.924155
H    -3.785485  2.228382  1.817382
H    -3.731947  1.689086  4.756309
H    -5.199321  2.267172  3.912943
H    -3.769379  3.329745  4.055158
