34
Energy: -18218.9699723 eV PBE+vdW (tier 2 basis)
C    0.498752  -0.364014  0.446986
C    0.315540  0.457492  1.704982
O    1.000716  1.436189  1.972520
H    1.378019  0.012665  -0.081144
H    -0.376774  -0.280358  -0.212728
H    0.638464  -1.432515  0.664204
N    -0.680058  0.055810  2.583200
C    -1.720920  -0.923022  2.336719
C    -2.853980  -0.592181  1.324546
O    -3.354623  -1.540748  0.721741
H    -0.813854  0.725281  3.337474
H    -1.261240  -1.796592  1.853140
C    -2.359878  -1.380445  3.659458
C    -1.378514  -2.039256  4.642630
C    -0.712902  -3.304015  4.084379
C    0.264215  -3.974252  5.035433
N    -0.452483  -4.498930  6.279177
H    -3.172011  -2.078212  3.410941
H    -2.831490  -0.518948  4.157336
H    -1.953146  -2.265543  5.559949
H    -0.595784  -1.320465  4.932097
H    -0.124885  -3.051208  3.190134
H    -1.469100  -4.030968  3.742640
H    1.029631  -3.279038  5.403507
H    0.761082  -4.842497  4.586744
H    0.201593  -4.920137  6.951537
H    -1.151003  -5.211158  6.025977
H    -0.951859  -3.733079  6.753247
N    -3.268263  0.687349  1.125937
C    -2.911100  1.925591  1.810369
H    -4.002458  0.743456  0.425404
H    -2.965136  1.822033  2.902719
H    -3.643893  2.687468  1.525659
H    -1.914814  2.293653  1.532916
