34
Energy: -18219.2443158 eV PBE+vdW (tier 2 basis)
C    -0.967752  -1.570509  0.894327
C    -0.197281  -0.635588  1.805845
O    0.909651  -0.907342  2.249804
H    -1.290606  -1.077264  -0.032545
H    -1.864833  -1.966002  1.392600
H    -0.312473  -2.408970  0.645773
N    -0.783402  0.585051  2.113248
C    -2.156957  1.005348  1.904334
C    -2.312935  2.308467  1.071369
O    -3.386416  2.910875  1.071834
H    -0.224868  1.122060  2.775282
H    -2.648980  0.230151  1.297918
C    -2.937069  1.155037  3.220787
C    -3.185328  -0.176476  3.929850
C    -3.871732  -0.033907  5.299675
C    -5.262611  0.570895  5.181088
N    -5.921038  0.679026  6.553858
H    -3.872715  1.668088  2.956076
H    -2.380595  1.839244  3.884738
H    -2.232690  -0.700588  4.094345
H    -3.790447  -0.837441  3.287682
H    -3.248489  0.597722  5.955209
H    -3.941295  -1.025969  5.775219
H    -5.934443  -0.044048  4.568986
H    -5.251059  1.588132  4.772624
H    -6.867815  1.077769  6.496440
H    -5.364304  1.277779  7.179329
H    -5.993262  -0.245336  7.001159
N    -1.223153  2.666261  0.356064
C    -1.199596  3.813704  -0.534739
H    -0.398378  2.081238  0.445433
H    -1.029262  3.500264  -1.573220
H    -0.410369  4.518382  -0.242490
H    -2.171335  4.312843  -0.467148
