34
Energy: -18220.0271533 eV PBE+vdW (tier 2 basis)
C    -0.354737  1.255801  -0.195010
C    -0.028821  1.028031  1.265091
O    0.962825  1.481103  1.809060
H    0.362524  1.980804  -0.587851
H    -0.256818  0.325525  -0.773384
H    -1.372476  1.641904  -0.344398
N    -0.943121  0.286674  2.025844
C    -1.972665  -0.604039  1.520688
C    -3.308213  -0.391483  2.254271
O    -4.234323  -1.240233  2.217659
H    -0.561316  0.081179  2.948419
H    -2.198861  -0.274856  0.493627
C    -1.524764  -2.078453  1.400227
C    -1.030117  -2.788538  2.670882
C    -2.069259  -3.333782  3.666628
C    -3.021181  -4.383968  3.080771
N    -4.315959  -3.774491  2.588428
H    -0.694752  -2.073641  0.679862
H    -2.323895  -2.649903  0.902647
H    -0.334970  -2.133252  3.217300
H    -0.408450  -3.637455  2.348133
H    -2.649832  -2.527766  4.141505
H    -1.520756  -3.813992  4.488295
H    -2.562831  -4.896838  2.226125
H    -3.285571  -5.148257  3.819565
H    -4.191141  -2.718640  2.290326
H    -4.720063  -4.309127  1.813532
H    -5.015516  -3.759655  3.337771
N    -3.456827  0.782250  2.866889
C    -4.687194  1.217918  3.512651
H    -2.657126  1.410880  2.814305
H    -4.450267  2.007741  4.231312
H    -5.149091  0.374568  4.036434
H    -5.404456  1.604406  2.776146
