34
Energy: -18220.0599583 eV PBE+vdW (tier 2 basis)
C    -0.978765  -0.855708  0.466783
C    -0.708428  -0.148638  1.771599
O    0.414542  0.024936  2.231112
H    -0.456937  -1.819767  0.470544
H    -2.043774  -1.015844  0.261523
H    -0.551425  -0.258659  -0.349395
N    -1.824817  0.343877  2.438985
C    -1.611230  0.894963  3.774830
C    -2.879523  0.842207  4.617041
O    -2.837915  0.539717  5.834680
H    -2.714158  -0.098444  2.229708
H    -0.866668  0.249774  4.268565
C    -1.014800  2.334191  3.708758
C    -0.026786  2.700642  4.824438
C    -0.626815  2.950845  6.231648
C    -0.188995  1.990380  7.332962
N    -0.513609  0.549729  7.006051
H    -1.827798  3.074998  3.657133
H    -0.476687  2.391380  2.755817
H    0.495264  3.610971  4.503499
H    0.762131  1.929640  4.854279
H    -1.724822  2.971216  6.189470
H    -0.334179  3.949224  6.584388
H    -0.708062  2.220216  8.271096
H    0.891144  2.049444  7.518266
H    0.172229  0.163270  6.348372
H    -1.507524  0.474048  6.523436
H    -0.491391  -0.037460  7.845567
N    -4.036938  1.161718  4.022467
C    -5.317593  1.201903  4.722548
H    -4.001509  1.503896  3.066959
H    -5.339288  0.412441  5.479513
H    -5.468178  2.170265  5.218794
H    -6.123617  1.038227  4.000908
