34
Energy: -18220.1426663 eV PBE+vdW (tier 2 basis)
C    0.410001  -1.640755  -1.096369
C    0.709707  -2.027455  0.322071
O    1.401662  -3.051346  0.564187
H    -0.297427  -2.359704  -1.532250
H    1.339112  -1.724166  -1.672864
H    0.004516  -0.629663  -1.202038
N    0.248599  -1.279543  1.341064
C    -0.901168  -0.386409  1.411247
C    -0.872625  0.153947  2.858469
O    -0.330196  -0.519077  3.745452
H    0.583434  -1.506919  2.283034
H    -0.790261  0.439766  0.694269
C    -2.247283  -1.107179  1.130829
C    -2.669419  -2.267503  2.053841
C    -1.864368  -3.585657  1.936213
C    -0.815858  -3.784715  3.042331
N    0.419095  -4.477263  2.518248
H    -2.228088  -1.462350  0.089117
H    -3.039391  -0.345141  1.163276
H    -3.714273  -2.488504  1.799532
H    -2.690960  -1.935091  3.102763
H    -1.381528  -3.631517  0.948827
H    -2.560196  -4.434921  1.959422
H    -1.215173  -4.386863  3.867182
H    -0.482731  -2.828780  3.465567
H    1.097610  -4.642533  3.269498
H    0.909256  -3.862749  1.730666
H    0.190756  -5.390127  2.109235
N    -1.493546  1.323006  3.113203
C    -2.050840  2.276547  2.159107
H    -1.460225  1.595973  4.091778
H    -2.902901  1.859585  1.606524
H    -1.294788  2.630591  1.445028
H    -2.413003  3.143709  2.718704
