34
Energy: -18219.9846771 eV PBE+vdW (tier 2 basis)
C    -1.065396  -0.410351  -0.154827
C    -0.644479  0.376767  1.069392
O    -0.119536  1.473780  0.993554
H    -0.392706  -0.141611  -0.974904
H    -2.079079  -0.103688  -0.448723
H    -1.060082  -1.498752  -0.021595
N    -0.850438  -0.194514  2.331081
C    -1.679399  -1.342289  2.682631
C    -0.997352  -2.683864  2.326423
O    -1.643613  -3.756240  2.217868
H    -0.648570  0.469525  3.074792
H    -1.684225  -1.348479  3.785844
C    -3.161222  -1.257011  2.218959
C    -4.203702  -1.452634  3.337707
C    -4.207099  -2.779572  4.115279
C    -4.847764  -3.984321  3.433290
N    -4.149957  -4.364895  2.145339
H    -3.326457  -1.933859  1.369151
H    -3.314839  -0.247964  1.817212
H    -5.206188  -1.273570  2.916922
H    -4.053735  -0.644857  4.069990
H    -4.780640  -2.632559  5.042097
H    -3.191755  -3.049953  4.443375
H    -5.904926  -3.805152  3.200042
H    -4.792599  -4.860224  4.089919
H    -4.227634  -5.369197  1.958980
H    -3.081256  -4.080946  2.184709
H    -4.562465  -3.878367  1.344349
N    0.328402  -2.643463  2.205232
C    1.176455  -3.795306  1.937813
H    0.747264  -1.718641  2.288350
H    1.871379  -3.957229  2.771303
H    1.754504  -3.633247  1.019791
H    0.543921  -4.678772  1.818624
