34
Energy: -18218.6768695 eV PBE+vdW (tier 2 basis)
C    -0.128627  -0.537141  0.465573
C    -0.132975  -0.520375  1.979887
O    0.804994  -0.974272  2.623202
H    0.906287  -0.419176  0.129151
H    -0.486941  -1.523265  0.141809
H    -0.765767  0.211242  -0.018364
N    -1.226077  -0.008901  2.664664
C    -2.443915  0.645552  2.223059
C    -3.096300  -0.069650  1.005029
O    -3.080060  -1.288388  0.928532
H    -1.141257  -0.182647  3.662278
H    -3.184673  0.451745  3.016549
C    -2.276523  2.192539  2.189551
C    -1.158402  2.720155  1.282950
C    -0.674549  4.139195  1.627341
C    -1.745455  5.202301  1.442543
N    -1.181696  6.583538  1.768773
H    -2.050320  2.486265  3.228138
H    -3.248528  2.663887  1.961867
H    -1.445021  2.671604  0.221205
H    -0.283131  2.066914  1.391450
H    0.191699  4.381323  0.989717
H    -0.320421  4.151504  2.672150
H    -2.106727  5.258935  0.407781
H    -2.604713  5.064685  2.109852
H    -0.379683  6.803500  1.161639
H    -1.881738  7.328219  1.650056
H    -0.844610  6.618916  2.741029
N    -3.716061  0.730482  0.086189
C    -4.491200  0.177736  -1.015555
H    -3.785949  1.722878  0.266082
H    -5.571688  0.272403  -0.838244
H    -4.242678  -0.884938  -1.095803
H    -4.234994  0.681553  -1.955783
