34
Energy: -18219.0760285 eV PBE+vdW (tier 2 basis)
C    0.214172  0.357084  -0.103534
C    0.206443  0.380819  1.378258
O    1.329749  0.670201  2.019153
H    0.914125  -0.416913  -0.445159
H    -0.762077  0.139029  -0.532127
H    0.563241  1.336486  -0.467462
N    -0.822661  0.249872  2.183280
C    -2.133310  -0.359244  1.922862
C    -1.879372  -1.834543  1.492539
O    -0.810921  -2.130988  0.958493
H    -0.584619  0.365960  3.168483
H    -2.634896  -0.325901  2.897761
C    -3.021470  0.387769  0.903765
C    -3.105888  1.905056  1.108444
C    -3.604281  2.335710  2.490367
C    -3.927941  3.831364  2.573693
N    -4.395642  4.179278  3.915224
H    -4.026882  -0.046453  1.001314
H    -2.704136  0.154531  -0.121661
H    -3.788287  2.294916  0.337543
H    -2.129819  2.371635  0.896933
H    -2.853307  2.100790  3.265807
H    -4.512412  1.775495  2.764810
H    -3.049147  4.415270  2.232141
H    -4.739796  4.055112  1.865871
H    -4.893502  5.068044  3.909615
H    2.064322  0.827268  1.398195
H    -3.616895  4.286356  4.565185
N    -2.869413  -2.726634  1.707184
C    -4.181530  -2.533818  2.312246
H    -2.657527  -3.651533  1.339998
H    -4.483748  -3.466871  2.799120
H    -4.944849  -2.268354  1.567172
H    -4.154190  -1.757243  3.084590
