34
Energy: -18219.866933 eV PBE+vdW (tier 2 basis)
C    -1.106371  -0.836529  0.173426
C    -1.138835  -0.095893  1.495064
O    -0.542856  0.958147  1.688724
H    -2.098866  -0.832919  -0.299447
H    -0.798344  -1.883118  0.299762
H    -0.400469  -0.331289  -0.490287
N    -1.924995  -0.696419  2.460694
C    -2.044899  -0.350950  3.876432
C    -3.380177  0.333026  4.245934
O    -4.019070  -0.088103  5.252302
H    -2.381750  -1.561540  2.192735
H    -2.132686  -1.317058  4.396684
C    -0.797435  0.348435  4.476498
C    -0.679957  0.226277  6.004517
C    -1.541438  1.221176  6.818404
C    -2.236358  0.627384  8.037953
N    -3.147033  -0.522019  7.647667
H    -0.741754  1.398433  4.166438
H    0.073631  -0.137944  4.019756
H    0.374062  0.370862  6.274953
H    -0.898889  -0.817641  6.289097
H    -2.300448  1.695354  6.181517
H    -0.914614  2.046824  7.181585
H    -2.867333  1.377857  8.527810
H    -1.523246  0.247678  8.780273
H    -3.521096  -0.388128  6.617467
H    -3.942936  -0.603298  8.287190
H    -2.647773  -1.415652  7.673915
N    -3.894063  1.345138  3.542219
C    -3.393569  2.040566  2.360059
H    -4.801594  1.641446  3.897312
H    -3.735068  3.079990  2.408094
H    -3.784792  1.584993  1.440130
H    -2.299880  2.030039  2.322837
