34
Energy: -18219.4976246 eV PBE+vdW (tier 2 basis)
C    1.414334  -0.344500  1.242075
C    0.493507  0.460301  2.131890
O    0.931427  1.238921  2.996525
H    2.147876  0.325022  0.777339
H    1.972361  -1.052288  1.868918
H    0.889192  -0.905136  0.460912
N    -0.830641  0.272609  1.930314
C    -1.883865  0.883667  2.716010
C    -3.195289  0.297322  2.144741
O    -3.193232  -0.293943  1.064764
H    -1.189128  -0.318906  1.176477
H    -1.776593  0.564650  3.766722
C    -1.867029  2.443042  2.674670
C    -1.394114  3.085502  3.991870
C    -0.591264  4.385792  3.816626
C    0.814951  4.104651  3.308751
N    1.611970  5.404857  3.200251
H    -2.864152  2.824877  2.414747
H    -1.217680  2.725633  1.835324
H    -0.765786  2.367275  4.536355
H    -2.258102  3.305892  4.633050
H    -0.528651  4.899149  4.790690
H    -1.117592  5.068527  3.127402
H    0.838542  3.646731  2.314843
H    1.380361  3.445155  3.975706
H    2.569753  5.230390  2.868946
H    1.674655  5.875423  4.113159
H    1.165103  6.061771  2.546751
N    -4.329437  0.464584  2.871644
C    -4.495317  1.098393  4.168919
H    -5.155813  0.084092  2.419209
H    -3.628323  0.911763  4.814166
H    -4.650278  2.185860  4.091159
H    -5.370487  0.665111  4.664763
