34
Energy: -18219.0881209 eV PBE+vdW (tier 2 basis)
C    -0.099998  -0.032054  0.767467
C    -0.011971  0.181353  2.267291
O    1.025183  0.005083  2.895903
H    0.901021  -0.283879  0.408828
H    -0.450574  0.866709  0.242855
H    -0.782327  -0.853074  0.507447
N    -1.151658  0.601882  2.925840
C    -2.522718  0.695293  2.439422
C    -3.126884  1.999249  3.020980
O    -3.744866  1.974809  4.085942
H    -1.004217  0.759838  3.921146
H    -2.490343  0.743709  1.343812
C    -3.396632  -0.489710  2.891476
C    -2.836076  -1.867329  2.532394
C    -3.494668  -3.016235  3.319409
C    -3.039692  -3.016954  4.771114
N    -3.741921  -4.117215  5.560939
H    -4.402139  -0.366629  2.460900
H    -3.528308  -0.369242  3.977726
H    -1.750396  -1.895659  2.713218
H    -2.973891  -2.070205  1.461161
H    -3.231184  -3.979811  2.854522
H    -4.592437  -2.918524  3.269419
H    -3.274648  -2.079704  5.289419
H    -1.964135  -3.210854  4.868014
H    -3.436186  -4.140619  6.543052
H    -3.554235  -5.042113  5.149892
H    -4.761888  -3.979415  5.551295
N    -2.904393  3.149543  2.335162
C    -2.083193  3.343724  1.148891
H    -3.256943  3.976340  2.808974
H    -1.020840  3.135725  1.341744
H    -2.173451  4.388337  0.836238
H    -2.426149  2.722868  0.309810
