34
Energy: -18219.1981482 eV PBE+vdW (tier 2 basis)
C    0.247764  1.422386  2.499718
C    0.485475  -0.055984  2.727014
O    1.416476  -0.491526  3.388890
H    0.988663  1.976489  3.081004
H    0.365083  1.688418  1.439130
H    -0.760626  1.730119  2.809194
N    -0.423159  -0.936991  2.153546
C    -1.556539  -0.632009  1.298968
C    -2.895770  -0.381154  2.043912
O    -3.894720  -0.037177  1.407028
H    -0.195186  -1.912703  2.331831
H    -1.349109  0.308989  0.767253
C    -1.727512  -1.755792  0.249152
C    -2.635044  -1.383859  -0.930164
C    -3.005049  -2.560828  -1.843636
C    -1.840902  -3.231980  -2.558880
N    -1.141092  -2.229725  -3.473054
H    -2.131844  -2.651811  0.749582
H    -0.712516  -2.020740  -0.092550
H    -2.178401  -0.553993  -1.505883
H    -3.561396  -0.948197  -0.531097
H    -3.753604  -2.241275  -2.586808
H    -3.498494  -3.346573  -1.252020
H    -1.069474  -3.595496  -1.869194
H    -2.158359  -4.062224  -3.200266
H    -0.875456  -1.393094  -2.932965
H    -0.294938  -2.619617  -3.907150
H    -1.771028  -1.918041  -4.224657
N    -2.864051  -0.566052  3.381694
C    -4.017303  -0.350190  4.240098
H    -1.973133  -0.822334  3.794902
H    -3.811393  0.437113  4.976799
H    -4.286481  -1.272219  4.771460
H    -4.855701  -0.040784  3.608239
