34
Energy: -18219.2714984 eV PBE+vdW (tier 2 basis)
C    -0.527882  -1.560528  -0.384318
C    -0.410465  -0.363383  0.534686
O    0.510332  0.438580  0.473572
H    0.263453  -1.487322  -1.134431
H    -1.501575  -1.599768  -0.891594
H    -0.399722  -2.503101  0.166661
N    -1.429031  -0.164969  1.462394
C    -2.411437  -1.132891  1.923760
C    -3.780335  -0.470284  2.235955
O    -4.534104  -0.940590  3.090696
H    -1.222400  0.627082  2.068352
H    -2.624009  -1.804036  1.077215
C    -1.929923  -2.037885  3.077588
C    -1.301122  -1.338459  4.292311
C    -2.238111  -0.400781  5.071058
C    -1.706212  0.016243  6.431748
N    -1.709740  -1.175590  7.387293
H    -1.179501  -2.728282  2.668091
H    -2.788290  -2.644083  3.397688
H    -0.398928  -0.783810  3.988107
H    -0.930230  -2.150286  4.947209
H    -3.243145  -0.842922  5.167963
H    -2.405664  0.530457  4.511071
H    -2.325683  0.784338  6.909309
H    -0.667155  0.369067  6.395916
H    -1.313159  -0.941006  8.306100
H    -1.160894  -1.950428  6.987785
H    -2.668967  -1.520564  7.529466
N    -4.067849  0.611966  1.475382
C    -5.347079  1.300295  1.518378
H    -3.369295  0.897032  0.795443
H    -5.951558  0.842684  2.307579
H    -5.876923  1.200654  0.561836
H    -5.209736  2.367137  1.736867
