34
Energy: -18219.7264589 eV PBE+vdW (tier 2 basis)
C    -1.987091  -2.328448  -0.351406
C    -1.823136  -1.865932  1.075488
O    -1.071881  -2.434372  1.874951
H    -1.009005  -2.283107  -0.846821
H    -2.705893  -1.735219  -0.928770
H    -2.301901  -3.378987  -0.351610
N    -2.549697  -0.765556  1.445062
C    -2.414617  -0.164748  2.769108
C    -3.292583  -0.917163  3.812600
O    -4.329867  -0.418158  4.281026
H    -3.222490  -0.374371  0.795359
H    -1.359863  -0.304669  3.054499
C    -2.757363  1.322390  2.733711
C    -2.288883  2.082996  3.993677
C    -3.319775  3.099982  4.518140
C    -4.413423  2.385006  5.298828
N    -5.598587  3.308602  5.564271
H    -3.848330  1.416085  2.614596
H    -2.296478  1.770416  1.843024
H    -1.352726  2.613279  3.779211
H    -2.049620  1.374719  4.801784
H    -3.752933  3.645177  3.661705
H    -2.826417  3.848731  5.157107
H    -4.063306  2.055406  6.284799
H    -4.793641  1.497495  4.768826
H    -5.315088  4.153005  6.079939
H    -6.328156  2.832735  6.110981
H    -6.022624  3.616961  4.679329
N    -2.815777  -2.132734  4.132676
C    -3.510247  -3.064719  5.003951
H    -2.005063  -2.452889  3.587853
H    -2.814547  -3.480169  5.743178
H    -3.946909  -3.893158  4.428714
H    -4.314480  -2.531469  5.519613
