34
Energy: -18218.9384468 eV PBE+vdW (tier 2 basis)
C    -0.501951  -1.289098  -0.436254
C    -0.202672  -0.420066  0.765426
O    0.938441  -0.122131  1.092684
H    -1.360833  -1.958593  -0.311409
H    0.393729  -1.876438  -0.656409
H    -0.701989  -0.644615  -1.304645
N    -1.262965  0.099295  1.498714
C    -2.688632  -0.212060  1.456983
C    -3.007554  -1.732518  1.555391
O    -3.700881  -2.283612  0.698567
H    -0.928468  0.650120  2.283926
H    -3.100992  0.247453  2.370753
C    -3.391761  0.395412  0.225344
C    -4.920607  0.504467  0.328556
C    -5.468030  1.546441  1.318636
C    -5.034471  2.981767  1.053307
N    -5.432019  3.404084  -0.357929
H    -3.163203  -0.231669  -0.644900
H    -2.918355  1.374088  0.039905
H    -5.326958  -0.479519  0.596412
H    -5.333891  0.684921  -0.681857
H    -5.146080  1.317359  2.345422
H    -6.568245  1.494579  1.344789
H    -3.946655  3.111022  1.102999
H    -5.505964  3.699845  1.733950
H    -6.454280  3.383957  -0.474887
H    -5.034716  2.745849  -1.044207
H    -5.102929  4.350414  -0.587354
N    -2.505365  -2.413764  2.616959
C    -1.687159  -1.939346  3.725122
H    -2.727725  -3.404913  2.588803
H    -1.748551  -2.674259  4.534404
H    -2.063866  -0.987642  4.123050
H    -0.631794  -1.814526  3.446639
