34
Energy: -18220.1417039 eV PBE+vdW (tier 2 basis)
C    -0.833444  -2.955015  0.925082
C    -0.507295  -1.815786  1.844583
O    0.321332  -1.959634  2.780749
H    0.108753  -3.431251  0.627799
H    -1.415036  -3.715159  1.464322
H    -1.384144  -2.647337  0.030588
N    -1.090239  -0.613147  1.660888
C    -2.416194  -0.285607  1.162984
C    -2.538017  1.237920  1.434697
O    -1.835523  1.771790  2.304738
H    -0.737258  0.167271  2.226834
H    -2.480136  -0.453374  0.076907
C    -3.559071  -1.095453  1.865865
C    -3.261725  -1.618292  3.280524
C    -2.993943  -0.569830  4.386415
C    -1.889823  -0.945378  5.375134
N    -0.506434  -0.598873  4.867287
H    -3.795408  -1.963473  1.234880
H    -4.467710  -0.475307  1.873449
H    -2.423528  -2.326937  3.236048
H    -4.120553  -2.235341  3.579054
H    -3.908964  -0.421878  4.975503
H    -2.762639  0.418169  3.963491
H    -2.017744  -0.405332  6.321400
H    -1.882265  -2.020017  5.598479
H    0.193557  -0.754425  5.601413
H    -0.469322  0.398503  4.621624
H    -0.156390  -1.173917  3.977824
N    -3.454724  1.888225  0.697659
C    -3.753291  3.307382  0.847690
H    -3.945836  1.370116  -0.023335
H    -3.117941  3.707485  1.642439
H    -4.807228  3.453224  1.115669
H    -3.542150  3.843944  -0.085469
