34
Energy: -18219.0585748 eV PBE+vdW (tier 2 basis)
C    -1.297584  -0.712349  1.550366
C    -1.551598  0.096355  2.805991
O    -0.846843  -0.029532  3.801721
H    -0.251973  -1.032349  1.568168
H    -1.516222  -0.192709  0.612037
H    -1.925520  -1.614488  1.574654
N    -2.648776  0.941532  2.864744
C    -3.489210  1.535855  1.826219
C    -3.918277  0.559256  0.706650
O    -3.654871  0.789571  -0.476200
H    -2.715121  1.375569  3.783124
H    -4.426537  1.813222  2.337770
C    -2.919178  2.848253  1.247514
C    -1.532252  2.731814  0.611100
C    -1.043127  4.075238  0.053254
C    0.315436  3.914995  -0.606216
N    0.797405  5.241290  -1.192875
H    -2.888357  3.584128  2.067009
H    -3.635964  3.223033  0.502355
H    -1.581402  1.997281  -0.204417
H    -0.807470  2.364167  1.353740
H    -0.981651  4.821928  0.863338
H    -1.772001  4.451756  -0.684344
H    0.290170  3.206162  -1.443238
H    1.092048  3.596691  0.100508
H    1.713242  5.151716  -1.652857
H    0.881170  5.956814  -0.457950
H    0.126908  5.595226  -1.888998
N    -4.632206  -0.533429  1.080695
C    -5.062439  -0.939683  2.411235
H    -4.881121  -1.132186  0.298542
H    -4.263587  -1.439458  2.976908
H    -5.903486  -1.632876  2.305985
H    -5.413216  -0.080434  2.995950
