34
Energy: -18219.9698345 eV PBE+vdW (tier 2 basis)
C    0.413801  0.068248  0.159296
C    0.057127  0.187773  1.627072
O    0.914076  0.403951  2.467587
H    0.862916  1.013277  -0.169204
H    -0.408191  -0.195449  -0.512856
H    1.194312  -0.698372  0.075798
N    -1.257760  -0.041238  2.050266
C    -2.532081  0.116260  1.349774
C    -2.719190  -0.886356  0.190252
O    -3.385949  -0.610550  -0.836753
H    -1.313614  0.091242  3.058985
H    -3.283885  -0.220374  2.084383
C    -2.945803  1.554615  0.986198
C    -2.164498  2.248059  -0.141063
C    -2.982602  3.289722  -0.921603
C    -4.273385  2.761786  -1.547801
N    -4.047121  1.465519  -2.287440
H    -2.885973  2.155917  1.903943
H    -4.017660  1.506955  0.744254
H    -1.774566  1.502445  -0.848544
H    -1.273761  2.744455  0.265384
H    -2.349252  3.728147  -1.707924
H    -3.270608  4.126691  -0.268334
H    -4.693639  3.487447  -2.254166
H    -5.041615  2.544568  -0.796421
H    -3.746409  0.658452  -1.612234
H    -3.319816  1.570297  -3.003963
H    -4.901819  1.160665  -2.765643
N    -2.194373  -2.096257  0.396633
C    -2.298308  -3.217454  -0.524402
H    -1.642147  -2.200457  1.245381
H    -1.319014  -3.449651  -0.963618
H    -2.998553  -2.954299  -1.321497
H    -2.668653  -4.103185  0.005124
