34
Energy: -18220.2503654 eV PBE+vdW (tier 2 basis)
C    0.815626  -1.529827  0.939747
C    0.377926  -0.894429  2.236277
O    1.059704  -0.885869  3.250021
H    1.594567  -0.901165  0.487219
H    1.270671  -2.502586  1.155650
H    0.002727  -1.658493  0.214895
N    -0.890944  -0.310460  2.223641
C    -1.302060  0.517359  3.343371
C    -2.601232  0.028010  3.995380
O    -3.306525  0.766623  4.732048
H    -1.347938  -0.188491  1.325490
H    -0.526648  0.303746  4.106562
C    -1.215047  2.030883  3.061741
C    -2.064759  2.610094  1.916072
C    -3.597268  2.550837  2.027282
C    -4.260269  3.504493  3.019833
N    -3.853639  3.254687  4.456718
H    -0.160115  2.226206  2.823112
H    -1.381721  2.560559  4.010413
H    -1.780659  2.104603  0.980017
H    -1.757264  3.657141  1.764589
H    -3.944573  1.525125  2.219870
H    -4.020385  2.819748  1.047929
H    -5.348941  3.384343  2.978396
H    -4.030335  4.551582  2.785015
H    -4.610858  3.491011  5.104583
H    -3.046139  3.826667  4.718580
H    -3.567320  2.184733  4.601457
N    -2.896552  -1.259918  3.811427
C    -3.994709  -1.960072  4.460735
H    -2.247424  -1.783040  3.228308
H    -4.656188  -1.224045  4.925250
H    -4.555131  -2.543817  3.721357
H    -3.614712  -2.637166  5.236958
