34
Energy: -18220.3521638 eV PBE+vdW (tier 2 basis)
C    -0.207532  0.448576  0.555512
C    -0.986149  -0.776295  0.964809
O    -0.571395  -1.919468  0.823652
H    0.677978  0.533695  1.199288
H    -0.783179  1.379664  0.617825
H    0.153324  0.313098  -0.470629
N    -2.243530  -0.538622  1.519343
C    -2.965078  -1.641054  2.123295
C    -4.140515  -2.165287  1.302233
O    -4.717600  -3.218870  1.681247
H    -2.455544  0.404689  1.830243
H    -2.238244  -2.471270  2.084349
C    -3.377282  -1.355314  3.586590
C    -2.331382  -1.811615  4.615328
C    -2.450283  -3.262264  5.113340
C    -2.329188  -4.407233  4.101950
N    -3.638894  -4.767123  3.441191
H    -4.349712  -1.822961  3.797783
H    -3.552105  -0.274003  3.687787
H    -2.401607  -1.170246  5.504736
H    -1.321264  -1.644440  4.209025
H    -1.652198  -3.423664  5.851872
H    -3.389368  -3.384910  5.680628
H    -1.979672  -5.314344  4.609890
H    -1.614369  -4.183490  3.299386
H    -4.060032  -4.010982  2.720292
H    -4.356562  -4.942465  4.153288
H    -3.536786  -5.636351  2.905559
N    -4.494119  -1.496357  0.210274
C    -5.552678  -1.898790  -0.705399
H    -3.913848  -0.691927  -0.017388
H    -6.077548  -2.757039  -0.277521
H    -5.129905  -2.180594  -1.678052
H    -6.260364  -1.073538  -0.847446
