34
Energy: -18219.3806128 eV PBE+vdW (tier 2 basis)
C    0.292538  0.145519  2.396780
C    -0.579051  -0.340696  3.490934
O    0.043949  -0.531868  4.649081
H    0.163260  1.233052  2.283911
H    1.339346  -0.056294  2.640615
H    0.024698  -0.304239  1.433570
N    -1.859933  -0.567338  3.390569
C    -2.650504  -0.378366  2.158661
C    -2.617375  1.083099  1.627003
O    -2.274649  1.263640  0.464992
H    -2.362201  -1.010802  4.239679
H    -2.165701  -0.943479  1.349930
C    -4.082857  -0.905854  2.335138
C    -4.251093  -2.431908  2.266169
C    -3.656935  -3.286554  3.400072
C    -4.081957  -2.879653  4.819406
N    -3.080231  -1.975897  5.471396
H    -4.672843  -0.468149  1.517598
H    -4.520979  -0.502808  3.260868
H    -3.850186  -2.789317  1.305320
H    -5.332861  -2.630863  2.225487
H    -2.556080  -3.314677  3.345112
H    -3.973719  -4.323667  3.225185
H    -5.041107  -2.344732  4.791979
H    -4.241100  -3.772073  5.440152
H    -0.576341  -0.806439  5.351760
H    -3.527610  -1.474818  6.242728
H    -2.371874  -2.567161  5.915196
N    -2.932759  2.116564  2.460449
C    -3.595713  2.104014  3.757621
H    -2.912718  3.009600  1.972325
H    -4.685032  1.975565  3.672517
H    -3.401446  3.059581  4.256557
H    -3.195867  1.314154  4.402840
