34
Energy: -18218.9816281 eV PBE+vdW (tier 2 basis)
C    -0.599508  0.367230  0.484902
C    -0.929460  0.450799  1.927483
O    0.061235  0.913429  2.673013
H    -1.487164  0.265468  -0.143415
H    0.048345  -0.506687  0.320125
H    -0.028930  1.257454  0.195183
N    -2.056670  0.097094  2.470025
C    -3.301383  -0.378230  1.854367
C    -4.359981  0.178050  2.848301
O    -3.969611  0.452716  3.994221
H    -2.291606  0.284689  3.478676
H    -3.399023  0.056751  0.851895
C    -3.436227  -1.918474  1.799859
C    -2.306957  -2.720785  1.131794
C    -1.030899  -3.017274  1.941914
C    -1.240255  -3.668562  3.329793
N    -1.444802  -2.804757  4.488377
H    -4.366928  -2.110224  1.247001
H    -3.621961  -2.291403  2.816711
H    -2.044015  -2.259117  0.166206
H    -2.748695  -3.692666  0.864143
H    -0.401358  -2.124518  2.078756
H    -0.426594  -3.702927  1.327844
H    -0.359465  -4.286153  3.553369
H    -2.083967  -4.375256  3.281055
H    -2.283828  -2.231970  4.464706
H    -0.157305  0.940261  3.625191
H    -0.636703  -2.226651  4.706945
N    -5.638705  0.292847  2.463060
C    -6.239265  0.005080  1.166337
H    -6.261576  0.590684  3.211270
H    -7.035346  0.732361  0.974608
H    -6.671264  -1.004679  1.134037
H    -5.502580  0.102998  0.362442
