34
Energy: -18219.0095005 eV PBE+vdW (tier 2 basis)
C    -0.280357  0.600854  1.024035
C    -0.688489  -0.199953  2.240816
O    0.128902  -0.629730  3.048138
H    0.738722  0.962724  1.183536
H    -0.945856  1.440709  0.793388
H    -0.279567  -0.053627  0.140376
N    -2.028753  -0.503011  2.416563
C    -3.219406  0.028214  1.757713
C    -3.184363  -0.078626  0.209233
O    -3.330515  0.919388  -0.493394
H    -2.171648  -1.106974  3.220980
H    -4.045079  -0.621538  2.092966
C    -3.554752  1.476508  2.159011
C    -3.605472  1.684881  3.673267
C    -3.803812  3.164597  4.034316
C    -3.770990  3.375138  5.538075
N    -3.925648  4.855850  5.882343
H    -4.512223  1.750685  1.694440
H    -2.808750  2.148394  1.711268
H    -2.666840  1.327616  4.124963
H    -4.418091  1.085872  4.116737
H    -3.005292  3.759116  3.559121
H    -4.761932  3.525529  3.624331
H    -2.818825  3.059988  5.983116
H    -4.588280  2.857525  6.055669
H    -4.814707  5.225572  5.518409
H    -3.905770  5.021752  6.897566
H    -3.168783  5.409139  5.457086
N    -3.001504  -1.316490  -0.324528
C    -2.852751  -2.599168  0.347639
H    -2.978986  -1.308978  -1.340072
H    -1.838739  -2.752408  0.742078
H    -3.069823  -3.393414  -0.374288
H    -3.568114  -2.704756  1.173868
