34
Energy: -18220.3526751 eV PBE+vdW (tier 2 basis)
C    1.074560  0.861791  0.097322
C    0.811748  0.465746  1.526912
O    1.547592  -0.310778  2.146766
H    1.209118  -0.043633  -0.505814
H    2.019945  1.418964  0.060118
H    0.283257  1.479064  -0.343714
N    -0.297098  1.011908  2.118337
C    -0.564773  0.894607  3.550021
C    -1.205012  -0.468429  3.927555
O    -2.303507  -0.600136  4.535490
H    -0.884131  1.626421  1.567368
H    0.425030  0.862224  4.035945
C    -1.292897  2.138720  4.092906
C    -2.456748  2.738695  3.274891
C    -3.675473  1.863284  2.933348
C    -4.710937  1.670598  4.038695
N    -4.132745  1.008705  5.266028
H    -0.536480  2.930661  4.184879
H    -1.590824  1.915861  5.127024
H    -2.051810  3.130073  2.328555
H    -2.796624  3.644368  3.802692
H    -3.364148  0.880267  2.551209
H    -4.220720  2.341859  2.106662
H    -5.520906  1.023574  3.682598
H    -5.155418  2.626315  4.344728
H    -4.841921  0.470048  5.771436
H    -3.760232  1.701327  5.920973
H    -3.286530  0.326371  4.962909
N    -0.469850  -1.524933  3.605172
C    -0.871047  -2.896188  3.888305
H    0.431027  -1.324239  3.135800
H    -1.812081  -3.141925  3.379570
H    -1.011684  -3.046013  4.966364
H    -0.083962  -3.565940  3.531417
