34
Energy: -18219.6123975 eV PBE+vdW (tier 2 basis)
C    -1.203136  0.229105  -1.544408
C    -1.005011  1.135237  -0.373831
O    -0.453299  2.260756  -0.502857
H    -1.401642  0.824233  -2.441080
H    -1.975715  -0.531143  -1.386683
H    -0.255143  -0.306888  -1.708322
N    -1.373862  0.742488  0.875381
C    -2.535894  -0.064027  1.296739
C    -2.279459  -1.583425  1.055928
O    -2.744991  -2.153879  0.073859
H    -0.998881  1.356022  1.592608
H    -2.589166  0.102738  2.380142
C    -3.869064  0.361935  0.644227
C    -4.043362  1.807955  0.152031
C    -4.112670  2.963389  1.169994
C    -2.828191  3.553546  1.751925
N    -1.878847  4.079152  0.696742
H    -4.671879  0.117751  1.356027
H    -4.031162  -0.303406  -0.214868
H    -5.006486  1.817203  -0.377743
H    -3.310830  2.036172  -0.638370
H    -4.728178  2.661747  2.031699
H    -4.667900  3.794082  0.703940
H    -2.259746  2.836554  2.355405
H    -3.082879  4.395283  2.408054
H    -1.234372  4.767397  1.100669
H    -2.396446  4.559105  -0.048855
H    -1.242104  3.293233  0.222022
N    -1.505583  -2.221737  1.970418
C    -0.859039  -1.675993  3.154947
H    -1.346436  -3.201114  1.750815
H    -1.583853  -1.250316  3.863598
H    -0.103925  -0.916885  2.904212
H    -0.345201  -2.492804  3.670589
