34
Energy: -18220.1537253 eV PBE+vdW (tier 2 basis)
C    0.713068  -0.903216  0.548752
C    0.299966  -0.541258  1.954865
O    1.076588  -0.535539  2.903569
H    1.226325  -1.871850  0.568771
H    1.439930  -0.160388  0.195779
H    -0.121305  -0.950098  -0.160915
N    -1.035245  -0.216508  2.122944
C    -1.523413  0.264110  3.408471
C    -2.717372  -0.601766  3.814239
O    -3.903689  -0.178371  3.765855
H    -1.642669  -0.168247  1.312150
H    -0.683211  0.070314  4.095637
C    -1.786863  1.778869  3.401000
C    -1.757867  2.478897  4.771565
C    -2.991811  2.403405  5.686880
C    -4.264064  3.016392  5.091435
N    -5.125334  1.977092  4.410313
H    -0.970846  2.208392  2.804535
H    -2.707227  2.004093  2.837159
H    -1.550845  3.545019  4.591725
H    -0.888395  2.108269  5.335171
H    -2.758435  2.961364  6.603911
H    -3.195473  1.374151  6.021353
H    -4.020326  3.774734  4.336934
H    -4.882383  3.498585  5.856594
H    -4.520923  1.142447  4.015751
H    -5.697162  2.381796  3.662966
H    -5.769379  1.547072  5.082176
N    -2.494794  -1.867357  4.190263
C    -1.239128  -2.610487  4.221446
H    -3.347716  -2.393608  4.369659
H    -1.085005  -3.158986  3.281998
H    -0.385060  -1.943359  4.372065
H    -1.276048  -3.326198  5.049399
