34
Energy: -18220.251862 eV PBE+vdW (tier 2 basis)
C    -0.586458  1.783171  2.254078
C    -1.026239  0.515199  2.946208
O    -1.053943  0.386833  4.168869
H    0.482698  1.937912  2.449344
H    -0.749549  1.777058  1.170054
H    -1.121144  2.631587  2.696940
N    -1.417406  -0.519478  2.130353
C    -1.761144  -1.824771  2.683840
C    -2.773629  -1.677615  3.844619
O    -2.606677  -2.205559  4.969428
H    -1.342680  -0.423325  1.124475
H    -2.287388  -2.375508  1.885623
C    -0.503454  -2.608779  3.092879
C    -0.736418  -4.090844  3.430811
C    0.272143  -4.670249  4.438590
C    0.414998  -3.885203  5.741944
N    -0.923556  -3.578997  6.359328
H    -0.055405  -2.061334  3.932745
H    0.215779  -2.526238  2.266809
H    -0.688412  -4.694835  2.514251
H    -1.755651  -4.237074  3.816898
H    1.277196  -4.716565  3.993392
H    -0.002404  -5.711917  4.665388
H    1.012031  -4.443616  6.472962
H    0.900895  -2.914978  5.586179
H    -1.436256  -4.440064  6.578973
H    -0.815573  -3.056664  7.234940
H    -1.561083  -2.973342  5.688934
N    -3.930630  -1.040141  3.604824
C    -4.405222  -0.391618  2.390654
H    -4.521816  -0.968843  4.429108
H    -4.123422  -0.963672  1.499754
H    -4.020592  0.632494  2.294180
H    -5.498851  -0.354207  2.429607
