34
Energy: -18220.1526986 eV PBE+vdW (tier 2 basis)
C    0.625879  -0.524217  -0.049280
C    0.219806  -1.081259  1.300190
O    0.879381  -1.916553  1.898153
H    0.080364  0.381212  -0.346081
H    0.449232  -1.295481  -0.811712
H    1.702512  -0.320920  -0.042721
N    -0.955794  -0.542104  1.822789
C    -1.694164  -1.189252  2.917857
C    -2.967688  -0.378541  3.154042
O    -2.973477  0.876408  3.117556
H    -1.553088  -0.091362  1.133444
H    -1.970160  -2.211912  2.605323
C    -0.923348  -1.353293  4.257774
C    -0.589133  -0.112203  5.094919
C    0.534430  0.814219  4.565120
C    0.103907  2.239613  4.245449
N    -0.773509  2.313199  3.021567
H    -0.011126  -1.918114  4.032061
H    -1.550844  -2.014536  4.873996
H    -0.280727  -0.488727  6.079039
H    -1.499375  0.475253  5.295077
H    1.039979  0.367299  3.696291
H    1.317867  0.909783  5.329178
H    0.972107  2.885070  4.061674
H    -0.475359  2.675746  5.069594
H    -0.265884  1.952134  2.206124
H    -1.054865  3.279104  2.823507
H    -1.677086  1.695809  3.097242
N    -4.072068  -1.067643  3.456490
C    -5.340835  -0.433992  3.803990
H    -4.030349  -2.080197  3.417383
H    -5.173464  0.362014  4.537830
H    -6.004163  -1.190156  4.232936
H    -5.817488  0.003164  2.917063
