34
Energy: -18219.7559278 eV PBE+vdW (tier 2 basis)
C    0.524409  -2.583653  4.142680
C    -0.577148  -1.993698  3.331737
O    -0.818021  -2.473301  2.175769
H    1.471563  -2.119904  3.825238
H    0.401840  -2.397042  5.215155
H    0.591380  -3.659131  3.952306
N    -1.269268  -0.962750  3.834094
C    -2.088743  0.026399  3.093058
C    -3.232401  -0.644854  2.329584
O    -3.011419  -1.636823  1.583971
H    -0.989884  -0.669753  4.764657
H    -2.513299  0.674750  3.872380
C    -1.262865  0.895954  2.111979
C    -0.279690  1.885426  2.752987
C    0.913354  1.271351  3.495316
C    2.064192  2.257135  3.721187
N    3.138906  1.608660  4.477160
H    -1.989965  1.459087  1.506823
H    -0.735452  0.234697  1.408097
H    -0.825556  2.576999  3.415198
H    0.103776  2.510395  1.931332
H    1.316157  0.412152  2.935768
H    0.606550  0.884805  4.482551
H    2.467648  2.557430  2.743068
H    1.673723  3.179639  4.193199
H    2.958511  1.647599  5.480423
H    4.027568  2.083845  4.327826
H    -1.809286  -2.088905  1.782686
N    -4.440995  -0.097166  2.428606
C    -5.612295  -0.553164  1.682704
H    -4.553286  0.701839  3.044248
H    -5.347869  -1.462921  1.138558
H    -5.930810  0.218048  0.970871
H    -6.432256  -0.766420  2.377879
