34
Energy: -18219.561515 eV PBE+vdW (tier 2 basis)
C    0.161935  0.383564  -0.014792
C    0.223151  0.315968  1.495918
O    1.304601  0.353450  2.107933
H    0.801945  1.199287  -0.371228
H    -0.852197  0.513372  -0.409275
H    0.576013  -0.549805  -0.419295
N    -0.974481  0.211921  2.120890
C    -1.188569  0.001774  3.542722
C    -2.723995  -0.047161  3.709830
O    -3.451698  0.412946  2.826358
H    -1.849793  0.288108  1.598523
H    -0.746954  -0.965384  3.832489
C    -0.544718  1.085597  4.441930
C    -0.907115  2.537476  4.079899
C    0.295175  3.488000  4.233627
C    1.269228  3.285433  3.080440
N    2.623607  3.924206  3.370370
H    0.539300  0.929353  4.367664
H    -0.812211  0.884081  5.487597
H    -1.728471  2.899765  4.710239
H    -1.281483  2.592214  3.046245
H    0.796204  3.278824  5.194950
H    -0.041694  4.535398  4.268837
H    0.909559  3.751141  2.154300
H    1.473796  2.221675  2.872973
H    3.275922  3.783382  2.587641
H    3.047068  3.501469  4.207166
H    2.542467  4.935441  3.541810
N    -3.229848  -0.583295  4.847746
C    -2.538964  -1.231260  5.952149
H    -4.244571  -0.538563  4.888978
H    -2.299248  -0.529955  6.765288
H    -1.611989  -1.706325  5.612749
H    -3.181077  -2.019882  6.359762
