34
Energy: -18219.3753099 eV PBE+vdW (tier 2 basis)
C    -0.044890  -0.094409  -0.087341
C    -0.069850  -0.231510  1.418403
O    0.882043  -0.662078  2.063785
H    0.814680  0.524807  -0.370670
H    0.112265  -1.086587  -0.529009
H    -0.957903  0.342960  -0.508959
N    -1.244123  0.144343  2.032445
C    -1.397528  0.075595  3.475852
C    -2.722398  -0.631516  3.839137
O    -3.651114  -0.012617  4.369438
H    -2.007646  0.508063  1.473285
H    -0.539714  -0.528673  3.813654
C    -1.322696  1.461726  4.128240
C    -1.210213  1.388858  5.655274
C    -1.508217  2.741764  6.314232
C    -1.449100  2.635159  7.827151
N    -1.832318  3.963442  8.479329
H    -2.227269  2.024135  3.853401
H    -0.454214  1.986987  3.706139
H    -0.204873  1.042577  5.942780
H    -1.935280  0.653386  6.032372
H    -2.516293  3.065713  6.004926
H    -0.793651  3.504364  5.960962
H    -0.444866  2.394103  8.197569
H    -2.156382  1.892919  8.217987
H    -1.196534  4.714559  8.178175
H    -1.802457  3.915322  9.506487
H    -2.784410  4.239589  8.202183
N    -2.816895  -1.955800  3.552112
C    -1.852707  -2.816297  2.881086
H    -3.733421  -2.344679  3.756704
H    -1.967466  -2.791593  1.787218
H    -0.824526  -2.525390  3.122795
H    -2.000077  -3.846269  3.224131
