34
Energy: -18220.0481032 eV PBE+vdW (tier 2 basis)
C    0.380676  -0.569823  -0.050121
C    0.101518  -0.167893  1.374835
O    0.939104  0.503451  2.016032
H    0.544468  0.332877  -0.652228
H    -0.420127  -1.162242  -0.505915
H    1.312211  -1.149549  -0.074870
N    -1.077119  -0.569291  1.897295
C    -1.491328  -0.437741  3.302584
C    -2.891553  -1.035944  3.533051
O    -3.136100  -1.602352  4.589245
H    -1.619192  -1.219982  1.335805
H    -0.826663  -1.057945  3.921502
C    -1.449600  1.026286  3.826932
C    -0.417858  1.208497  4.948241
C    0.015985  2.656782  5.209883
C    0.689532  3.356802  4.031521
N    1.809076  2.520115  3.456585
H    -2.443302  1.309171  4.200926
H    -1.247989  1.688270  2.974080
H    0.465374  0.589277  4.724142
H    -0.824553  0.794436  5.881112
H    0.694296  2.679424  6.077260
H    -0.848041  3.276428  5.493168
H    1.112486  4.321821  4.334241
H    -0.002692  3.536252  3.200114
H    1.421015  1.657994  2.942977
H    2.451762  2.202679  4.191618
H    2.360544  3.053660  2.775960
N    -3.797175  -0.865991  2.525299
C    -5.182963  -1.299890  2.665642
H    -3.580650  -0.209464  1.782514
H    -5.588578  -1.556438  1.681122
H    -5.808983  -0.521713  3.125193
H    -5.204260  -2.183278  3.310970
