34
Energy: -18219.5882081 eV PBE+vdW (tier 2 basis)
C    0.435830  -0.680956  0.320683
C    0.059052  0.345256  1.360998
O    0.245907  1.556480  1.195246
H    0.212992  -1.712804  0.616276
H    1.507261  -0.590854  0.103760
H    -0.102965  -0.451523  -0.607216
N    -0.512378  -0.134416  2.507180
C    -0.987961  0.753672  3.567600
C    0.189137  1.159848  4.502957
O    0.279984  0.742649  5.663497
H    -0.559908  -1.136411  2.655983
H    -1.337990  1.663471  3.052822
C    -2.144484  0.093981  4.323931
C    -3.074591  1.047427  5.091341
C    -2.422518  1.763932  6.284563
C    -3.451827  2.451751  7.160940
N    -2.747766  3.116919  8.341960
H    -1.737806  -0.658047  5.016905
H    -2.763209  -0.436048  3.586118
H    -3.926765  0.452741  5.456717
H    -3.495902  1.793543  4.398658
H    -1.691864  2.507107  5.928820
H    -1.845298  1.033802  6.873282
H    -4.176421  1.751562  7.595800
H    -4.000356  3.249305  6.643524
H    -2.219999  2.416966  8.882249
H    -3.403216  3.587830  8.979265
H    -2.067020  3.813971  8.010024
N    1.065547  2.002165  3.911553
C    2.318850  2.402435  4.527337
H    0.911948  2.180954  2.911289
H    2.443581  3.491499  4.472639
H    3.174596  1.928812  4.026152
H    2.308470  2.087441  5.575511
