34
Energy: -18219.9291912 eV PBE+vdW (tier 2 basis)
C    -0.749731  2.146612  1.002353
C    -1.781984  2.103014  2.084331
O    -1.990886  3.095857  2.823900
H    -0.541507  1.167504  0.559632
H    0.173038  2.551017  1.437133
H    -1.076129  2.837816  0.215575
N    -2.480434  0.964717  2.334579
C    -2.948987  -0.078564  1.436252
C    -3.156830  0.437372  -0.005154
O    -3.554031  1.578139  -0.252121
H    -3.011951  1.029338  3.197091
H    -2.219626  -0.904414  1.405217
C    -4.289620  -0.653809  2.006985
C    -5.182707  0.231754  2.904003
C    -5.966464  1.425006  2.318751
C    -5.273939  2.747205  1.984862
N    -4.573466  3.404765  3.163861
H    -4.036486  -1.540734  2.603811
H    -4.885729  -1.022139  1.160413
H    -4.644083  0.534176  3.821447
H    -5.944940  -0.457850  3.295572
H    -6.448011  1.108823  1.380722
H    -6.797773  1.636555  3.011059
H    -6.033318  3.454170  1.631178
H    -4.521543  2.625089  1.196087
H    -3.484295  3.217090  3.148556
H    -4.973729  3.114598  4.062504
H    -4.673452  4.423756  3.111705
N    -2.918109  -0.483414  -0.963350
C    -3.149413  -0.213482  -2.377832
H    -2.535589  -1.383469  -0.698010
H    -2.390316  0.470294  -2.780528
H    -4.134207  0.247087  -2.515981
H    -3.110529  -1.157643  -2.928797
