34
Energy: -18219.5664959 eV PBE+vdW (tier 2 basis)
C    1.512139  0.427645  0.216365
C    1.100061  0.401474  1.668930
O    1.936757  0.281317  2.576564
H    2.283144  1.195526  0.081275
H    0.687526  0.615831  -0.480415
H    1.971688  -0.538102  -0.031178
N    -0.235248  0.533996  1.911068
C    -0.970853  0.411565  3.180597
C    -0.621283  1.379662  4.330453
O    -1.486255  1.571648  5.201352
H    -0.821913  0.667017  1.095604
H    -1.993906  0.717804  2.924264
C    -1.094640  -1.046746  3.696832
C    0.120959  -1.677092  4.419471
C    -0.094641  -1.936446  5.923621
C    -0.062829  -0.662081  6.752309
N    -0.424914  -0.954720  8.205481
H    -1.364072  -1.663463  2.829314
H    -1.974038  -1.065062  4.357778
H    1.025691  -1.073389  4.264444
H    0.341986  -2.649604  3.962033
H    0.683983  -2.628971  6.283112
H    -1.064733  -2.445346  6.062266
H    -0.782161  0.099899  6.412354
H    0.936010  -0.208225  6.773803
H    -1.375107  -1.344786  8.265823
H    -0.402986  -0.099711  8.776561
H    0.216878  -1.639127  8.627864
N    0.607331  1.926425  4.355702
C    1.012472  2.881698  5.370894
H    1.306827  1.525193  3.714936
H    0.122845  3.375454  5.774587
H    1.676243  3.631277  4.925750
H    1.552775  2.398400  6.201300
