34
Energy: -18219.8658471 eV PBE+vdW (tier 2 basis)
C    0.100372  1.148084  -0.354166
C    0.041381  0.802370  1.112536
O    1.061758  0.408349  1.722941
H    -0.852636  1.495711  -0.768088
H    0.425582  0.257169  -0.907298
H    0.861711  1.922198  -0.517503
N    -1.154146  0.948365  1.719394
C    -1.560079  0.478486  3.060474
C    -2.967851  1.004809  3.422663
O    -3.652483  0.373308  4.214408
H    -1.935544  1.131647  1.094256
H    -1.687099  -0.613966  3.008482
C    -0.601792  0.746765  4.242572
C    -0.270909  2.203951  4.605232
C    0.901828  2.857243  3.851259
C    2.253320  2.171382  4.125469
N    2.947795  1.781957  2.843418
H    0.309488  0.154190  4.094203
H    -1.120665  0.289326  5.096336
H    -0.043753  2.239882  5.681487
H    -1.160040  2.840257  4.486352
H    0.699187  2.860572  2.770656
H    0.970274  3.912996  4.145105
H    2.122015  1.236037  4.681900
H    2.936725  2.809851  4.696349
H    3.793548  1.228849  3.021088
H    2.254087  1.192561  2.250498
H    3.226779  2.608111  2.303540
N    -3.372000  2.166700  2.827951
C    -4.657577  2.774568  3.153980
H    -2.683204  2.739107  2.352564
H    -5.384259  1.976363  3.333824
H    -4.992869  3.391613  2.313756
H    -4.598559  3.393955  4.060479
