34
Energy: -18220.0421194 eV PBE+vdW (tier 2 basis)
C    -0.455695  0.930070  -0.024366
C    -0.457475  -0.001170  1.163111
O    0.452270  -0.786033  1.419040
H    0.307302  1.703291  0.136555
H    -1.420210  1.420482  -0.201981
H    -0.162121  0.367552  -0.917971
N    -1.559481  0.053439  1.987496
C    -1.552431  -0.706377  3.223189
C    -1.348326  -2.214786  2.994863
O    -0.625875  -2.874292  3.790797
H    -2.284734  0.745029  1.835643
H    -0.653346  -0.407997  3.788582
C    -2.807103  -0.390511  4.073400
C    -2.620091  -0.458053  5.599077
C    -2.470735  -1.868224  6.225648
C    -1.162097  -2.139165  6.965135
N    0.049245  -1.990626  6.076616
H    -3.648943  -1.030221  3.768983
H    -3.104712  0.641372  3.833244
H    -3.493055  0.031620  6.049453
H    -1.769066  0.187134  5.876034
H    -2.622848  -2.649625  5.469286
H    -3.265925  -2.023571  6.967157
H    -1.151081  -3.169626  7.339481
H    -1.036701  -1.468473  7.825064
H    0.846366  -2.518718  6.443642
H    0.346411  -1.012784  6.013344
H    -0.190951  -2.350546  5.020780
N    -1.981520  -2.877753  2.020978
C    -2.866825  -2.406140  0.961860
H    -1.717312  -3.860136  1.987700
H    -2.302454  -2.001683  0.111235
H    -3.559702  -1.643817  1.328369
H    -3.457509  -3.260584  0.615441
