34
Energy: -18219.3209687 eV PBE+vdW (tier 2 basis)
C    1.306848  -0.257673  1.460996
C    0.788574  -0.565977  2.850537
O    1.433723  -1.250285  3.652498
H    2.369442  -0.513409  1.429791
H    1.177010  0.800714  1.201129
H    0.791248  -0.851773  0.692209
N    -0.426064  -0.040297  3.209906
C    -1.548637  0.201390  2.322113
C    -2.619753  0.931720  3.156517
O    -2.700643  0.715331  4.368401
H    -0.688103  -0.119812  4.193305
H    -1.224746  0.831317  1.481846
C    -2.116046  -1.124440  1.733019
C    -2.994819  -2.021096  2.629828
C    -2.518439  -2.473798  4.028389
C    -1.145284  -3.108419  4.183214
N    -0.923289  -4.264037  3.207953
H    -1.247287  -1.684683  1.347230
H    -2.715632  -0.885808  0.841955
H    -3.263830  -2.905675  2.025719
H    -3.955155  -1.513233  2.799060
H    -3.282221  -3.160050  4.428180
H    -2.520150  -1.606922  4.705543
H    -1.024207  -3.541617  5.183546
H    -0.301147  -2.424310  4.012526
H    0.017999  -4.661454  3.324194
H    -1.006020  -3.937017  2.236844
H    -1.611279  -5.016501  3.342648
N    -3.480029  1.747531  2.503441
C    -3.427487  2.186151  1.113519
H    -4.163941  2.186242  3.114247
H    -4.286464  2.838357  0.929848
H    -3.500494  1.344424  0.412125
H    -2.516898  2.761496  0.894520
