34
Energy: -18220.0195961 eV PBE+vdW (tier 2 basis)
C    -0.119658  0.209675  -0.234590
C    0.109481  0.376262  1.254155
O    1.185086  0.718117  1.714168
H    -0.852237  -0.563696  -0.496652
H    0.841791  -0.030360  -0.697922
H    -0.459757  1.167030  -0.654363
N    -0.952632  0.112825  2.123700
C    -2.366785  -0.055983  1.811897
C    -2.653093  -1.414733  1.127312
O    -3.601235  -1.572625  0.319183
H    -0.726482  0.388176  3.076602
H    -2.858545  -0.143117  2.795351
C    -3.049401  1.115965  1.074466
C    -4.530635  1.298641  1.474809
C    -5.444615  1.836581  0.359768
C    -6.118439  0.760350  -0.484165
N    -5.129823  -0.125502  -1.201960
H    -2.938240  0.978624  -0.010377
H    -2.492810  2.031602  1.311298
H    -4.574837  1.982701  2.332456
H    -4.945593  0.346073  1.840428
H    -4.897950  2.542746  -0.286135
H    -6.265532  2.420686  0.799283
H    -6.779278  1.201802  -1.240447
H    -6.718651  0.090818  0.145542
H    -4.557224  0.419586  -1.855601
H    -5.615191  -0.842967  -1.751641
H    -4.457213  -0.649113  -0.506679
N    -1.855513  -2.418592  1.492798
C    -1.969270  -3.789524  1.018605
H    -1.081774  -2.166008  2.104539
H    -2.045017  -4.476123  1.870321
H    -1.091267  -4.062522  0.419125
H    -2.868634  -3.875685  0.403359
