34
Energy: -18219.0740217 eV PBE+vdW (tier 2 basis)
C    -0.734454  0.043990  -0.917169
C    0.166947  0.471927  0.221695
O    1.355057  0.714227  0.057709
H    -1.756798  0.433804  -0.857217
H    -0.803191  -1.053225  -0.939117
H    -0.267900  0.371668  -1.850092
N    -0.362685  0.546241  1.501983
C    -1.728978  0.379750  1.978690
C    -2.408102  -0.914492  1.467758
O    -3.496969  -0.880702  0.881687
H    0.336227  0.834892  2.181148
H    -1.639568  0.253628  3.072043
C    -2.590809  1.635525  1.726759
C    -3.980842  1.630462  2.406951
C    -5.130482  1.595049  1.389523
C    -6.488715  1.276063  1.978106
N    -6.915689  2.342810  2.991850
H    -2.709045  1.772950  0.643463
H    -1.999797  2.489847  2.079913
H    -4.053995  2.521292  3.055914
H    -4.066395  0.753946  3.070257
H    -4.911205  0.786019  0.676749
H    -5.175881  2.533217  0.811660
H    -6.484595  0.326855  2.529180
H    -7.283340  1.244912  1.223410
H    -7.818422  2.123732  3.432123
H    -6.996700  3.262546  2.537882
H    -6.207516  2.429581  3.733805
N    -1.779857  -2.090453  1.714990
C    -0.517283  -2.342898  2.398775
H    -2.271246  -2.890815  1.326895
H    -0.499842  -3.393533  2.706932
H    -0.425541  -1.731561  3.305100
H    0.352592  -2.149028  1.757171
