34
Energy: -18219.7408707 eV PBE+vdW (tier 2 basis)
C    -0.501276  -0.262493  -0.261169
C    -0.197737  -0.558513  1.157420
O    0.921171  -1.242833  1.349157
H    -1.579325  -0.223095  -0.449253
H    -0.033264  -1.014288  -0.903791
H    -0.077609  0.723134  -0.505508
N    -0.926564  -0.217152  2.183028
C    -2.129540  0.614652  2.137198
C    -1.759067  2.040658  1.627408
O    -0.589903  2.411074  1.582955
H    -0.507125  -0.447333  3.143714
H    -2.829920  0.151804  1.424408
C    -2.801637  0.638054  3.528521
C    -2.254562  1.634953  4.563437
C    -0.798525  1.487919  5.038287
C    -0.424847  0.116837  5.625430
N    0.339801  -0.714227  4.643845
H    -2.793330  -0.391354  3.921133
H    -3.864693  0.869269  3.373293
H    -2.914273  1.567046  5.441989
H    -2.385656  2.657215  4.177926
H    -0.633798  2.255259  5.806370
H    -0.100411  1.743216  4.225304
H    -1.325730  -0.449500  5.899993
H    0.157464  0.243079  6.549032
H    0.415798  -1.669693  5.002356
H    1.092418  -1.368756  2.304536
H    1.298908  -0.355977  4.615331
N    -2.823913  2.792916  1.265446
C    -2.705859  4.179011  0.829265
H    -3.753437  2.393049  1.334840
H    -3.152502  4.308822  -0.164130
H    -1.642095  4.428947  0.782129
H    -3.203056  4.854843  1.537043
