34
Energy: -18220.4387291 eV PBE+vdW (tier 2 basis)
C    0.246028  -0.034378  0.084807
C    0.101206  0.165624  1.574259
O    1.047273  0.513104  2.292610
H    -0.363806  0.696067  -0.465333
H    1.294677  0.108728  -0.187025
H    -0.074637  -1.039142  -0.220939
N    -1.156497  -0.036531  2.078799
C    -1.539954  -0.121485  3.494286
C    -1.434765  1.190266  4.297620
O    -2.362131  1.495405  5.104904
H    -1.879036  -0.287159  1.413586
H    -2.617627  -0.322570  3.464913
C    -0.813004  -1.288006  4.216499
C    -1.089151  -1.460495  5.719363
C    -2.379611  -2.192871  6.130422
C    -3.728153  -1.573676  5.769448
N    -3.875330  -0.173556  6.296564
H    0.264608  -1.130340  4.079594
H    -1.062772  -2.214113  3.676592
H    -1.013097  -0.489496  6.234207
H    -0.261488  -2.053792  6.131983
H    -2.353035  -2.352461  7.220753
H    -2.379839  -3.202211  5.691248
H    -3.881424  -1.513373  4.684683
H    -4.542159  -2.183968  6.180310
H    -4.841385  0.156337  6.205834
H    -3.633235  -0.129923  7.292342
H    -3.206581  0.550533  5.729308
N    -0.349094  1.930103  4.142310
C    -0.099371  3.178228  4.848032
H    0.367514  1.541614  3.495721
H    0.761809  3.066813  5.519646
H    -0.982437  3.450450  5.431868
H    0.121505  3.973274  4.125785
