34
Energy: -18220.0740166 eV PBE+vdW (tier 2 basis)
C    -2.147241  1.515070  1.576200
C    -2.059343  0.775467  2.880754
O    -2.561581  1.275884  3.920625
H    -1.693144  0.972314  0.740809
H    -1.644651  2.484403  1.690803
H    -3.199637  1.723938  1.346812
N    -1.436465  -0.416868  2.864798
C    -0.996343  -1.130523  4.053704
C    0.519683  -1.373436  3.835998
O    0.944133  -1.469868  2.685026
H    -0.890857  -0.673773  2.036919
H    -1.170754  -0.464738  4.908920
C    -1.673100  -2.511358  4.281801
C    -3.172469  -2.674563  3.969133
C    -4.150955  -1.589003  4.450961
C    -3.942210  -1.084894  5.886890
N    -3.999375  0.421101  5.900073
H    -1.471483  -2.796822  5.325518
H    -1.142669  -3.256896  3.672329
H    -3.472359  -3.650177  4.378688
H    -3.305951  -2.759670  2.882218
H    -5.176087  -1.966209  4.338948
H    -4.078419  -0.730676  3.770331
H    -2.952526  -1.350433  6.276207
H    -4.688691  -1.469072  6.590979
H    -3.742957  0.816182  6.810647
H    -4.941836  0.757783  5.673943
H    -3.321468  0.794488  5.116865
N    1.307984  -1.519363  4.926961
C    0.949181  -1.352178  6.327638
H    2.276900  -1.729982  4.703645
H    0.274611  -2.143941  6.684710
H    0.492413  -0.370668  6.517767
H    1.864213  -1.406615  6.924864
