34
Energy: -18219.2762541 eV PBE+vdW (tier 2 basis)
C    0.923265  -0.137367  1.276263
C    0.257429  -1.470604  1.001002
O    0.869120  -2.448344  0.599432
H    0.572257  0.641143  0.583380
H    1.999195  -0.266551  1.135191
H    0.736292  0.215580  2.299868
N    -1.107386  -1.572639  1.258045
C    -2.053343  -0.493732  1.456259
C    -3.088648  -0.773012  2.584326
O    -4.175161  -0.191211  2.579390
H    -1.473058  -2.483950  0.986956
H    -1.483803  0.379994  1.804560
C    -2.824110  -0.073446  0.184519
C    -3.566147  -1.233083  -0.504387
C    -4.768858  -0.831825  -1.370936
C    -4.479042  0.132864  -2.513390
N    -4.291292  1.555079  -1.991618
H    -2.096593  0.395583  -0.503453
H    -3.547778  0.677666  0.548277
H    -3.955523  -1.913705  0.266574
H    -2.860496  -1.819544  -1.111637
H    -5.572863  -0.421116  -0.736332
H    -5.195333  -1.734318  -1.832286
H    -5.301074  0.183396  -3.236759
H    -3.554833  -0.118245  -3.049815
H    -3.566491  1.557466  -1.252917
H    -5.159388  1.901907  -1.562118
H    -4.017601  2.210513  -2.734556
N    -2.678404  -1.642000  3.532273
C    -3.463393  -1.963142  4.713824
H    -1.753407  -2.046102  3.421053
H    -4.435809  -1.470254  4.619449
H    -2.966169  -1.601689  5.623651
H    -3.611251  -3.047164  4.795923
