34
Energy: -18220.0633223 eV PBE+vdW (tier 2 basis)
C    0.025106  -1.276149  0.134485
C    -0.131081  -0.863394  1.570050
O    0.870008  -0.538938  2.251127
H    0.496646  -0.456428  -0.422137
H    -0.922439  -1.538962  -0.348343
H    0.705519  -2.135596  0.084185
N    -1.377125  -0.851322  2.086625
C    -1.619815  -0.543285  3.498018
C    -2.876274  -1.222838  4.077120
O    -2.748418  -1.885339  5.104023
H    -2.133636  -1.211059  1.515827
H    -0.822681  -1.050265  4.055586
C    -1.549274  0.970773  3.793905
C    -1.473922  1.310294  5.287210
C    -0.293273  0.718922  6.076322
C    1.108199  1.068699  5.562244
N    1.696068  0.006628  4.661810
H    -2.418233  1.481237  3.357912
H    -0.676119  1.377263  3.260565
H    -2.397610  0.988686  5.789505
H    -1.447502  2.406264  5.381989
H    -0.399119  -0.374040  6.174733
H    -0.361054  1.097731  7.105001
H    1.811104  1.184393  6.395572
H    1.115766  2.003860  4.987617
H    1.180706  -0.161914  3.712481
H    1.725374  -0.895330  5.151523
H    2.664524  0.239650  4.413081
N    -4.081704  -1.085396  3.453198
C    -4.520290  -0.134178  2.438508
H    -4.818539  -1.583562  3.949156
H    -3.672959  0.273817  1.879738
H    -5.062515  0.711713  2.886724
H    -5.187357  -0.633184  1.724526
