34
Energy: -18220.2632915 eV PBE+vdW (tier 2 basis)
C    0.018202  2.821588  0.831635
C    -0.074405  1.692575  1.821216
O    0.953311  1.054247  2.175138
H    0.717810  3.580066  1.206427
H    -0.946346  3.294735  0.620938
H    0.439553  2.431342  -0.103855
N    -1.288152  1.406020  2.304210
C    -1.644175  0.238155  3.102581
C    -3.091874  -0.087941  2.652113
O    -3.769153  0.800612  2.129493
H    -2.128648  1.857933  1.920779
H    -0.949613  -0.574512  2.843758
C    -1.619276  0.465451  4.633995
C    -0.217864  0.590074  5.255196
C    0.375400  2.008950  5.196763
C    1.894200  2.074986  5.307428
N    2.562313  1.319138  4.174263
H    -2.129192  -0.388449  5.100059
H    -2.233010  1.347880  4.870026
H    0.436759  -0.135646  4.746131
H    -0.260862  0.268576  6.305699
H    -0.033731  2.612602  6.019676
H    0.066293  2.522852  4.277385
H    2.264233  1.652768  6.250166
H    2.241647  3.112488  5.243364
H    3.471223  1.725679  3.934815
H    1.922413  1.296095  3.282863
H    2.727900  0.340363  4.427300
N    -3.572734  -1.332949  2.870979
C    -2.906001  -2.487928  3.452213
H    -4.546800  -1.438881  2.598614
H    -3.049514  -2.548747  4.541523
H    -1.831650  -2.470719  3.237765
H    -3.315399  -3.398610  3.001448
