34
Energy: -18219.8416389 eV PBE+vdW (tier 2 basis)
C    2.044235  -0.915240  -0.171829
C    1.328649  -1.258690  1.110895
O    1.970489  -1.795068  2.043182
H    2.511726  -1.822128  -0.574470
H    1.398352  -0.474725  -0.939295
H    2.854053  -0.210623  0.059136
N    0.024702  -0.921191  1.163453
C    -1.008612  -1.051258  2.205240
C    -1.587512  0.281895  2.755568
O    -2.729311  0.233121  3.201464
H    -0.329104  -0.504116  0.308018
H    -1.877305  -1.475289  1.682125
C    -0.703482  -2.002955  3.376870
C    0.094688  -1.402937  4.545724
C    0.601012  -2.452006  5.553284
C    2.019781  -2.947631  5.301561
N    2.177756  -3.571613  3.935174
H    -0.241595  -2.910598  2.964103
H    -1.683829  -2.317074  3.761004
H    -0.558296  -0.693874  5.071228
H    0.949410  -0.817010  4.177248
H    -0.094492  -3.305789  5.606628
H    0.613615  -2.025100  6.565919
H    2.737987  -2.118268  5.333144
H    2.323693  -3.694739  6.045150
H    1.542522  -4.368599  3.819183
H    1.981632  -2.847694  3.150822
H    3.133474  -3.917313  3.795355
N    -0.868734  1.440182  2.755892
C    0.524543  1.726645  2.437592
H    -1.419268  2.211023  3.125859
H    1.205566  0.970362  2.845658
H    0.785189  2.682612  2.903836
H    0.702546  1.823470  1.356975
