34
Energy: -18219.721194 eV PBE+vdW (tier 2 basis)
C    -0.287598  0.604571  -0.589161
C    -0.000172  0.058869  0.778991
O    1.071611  -0.537488  1.034608
H    0.665610  0.848372  -1.068966
H    -0.935149  1.487807  -0.571469
H    -0.775629  -0.165497  -1.205603
N    -0.925977  0.210850  1.768453
C    -2.377276  0.051251  1.592052
C    -3.197032  0.805988  2.665898
O    -4.325017  0.418766  2.951388
H    -0.573683  -0.119353  2.664955
H    -2.642733  0.521826  0.633269
C    -2.773025  -1.440897  1.503599
C    -2.703237  -2.293432  2.787955
C    -1.390755  -2.448373  3.584314
C    -0.300045  -3.373424  3.049558
N    0.304364  -2.970224  1.721238
H    -2.188575  -1.882318  0.676493
H    -3.817922  -1.474621  1.167955
H    -3.072614  -3.300094  2.534231
H    -3.448892  -1.879513  3.479689
H    -1.660926  -2.898685  4.552239
H    -0.955515  -1.478555  3.867863
H    -0.688038  -4.391804  2.914617
H    0.535682  -3.422918  3.758062
H    1.088834  -3.588747  1.484175
H    0.678615  -1.949914  1.650761
H    -0.386497  -3.066215  0.968664
N    -2.588755  1.890274  3.211023
C    -3.261722  2.767436  4.159027
H    -1.685757  2.168757  2.842629
H    -2.593592  3.006950  4.994566
H    -4.145683  2.244114  4.535930
H    -3.584537  3.700816  3.678046
