34
Energy: -18219.7397587 eV PBE+vdW (tier 2 basis)
C    -0.185546  1.025820  -0.959509
C    0.188524  0.671779  0.465456
O    1.281537  0.920621  0.950375
H    0.691736  1.469887  -1.436166
H    -1.012365  1.750540  -0.996779
H    -0.490394  0.140489  -1.536001
N    -0.776748  0.041468  1.238542
C    -2.154135  -0.212585  0.902534
C    -3.188120  0.910590  1.106535
O    -4.349701  0.708693  0.652815
H    -0.457572  -0.168443  2.180846
H    -2.197210  -0.346619  -0.189187
C    -2.662931  -1.525741  1.564112
C    -2.731125  -2.720629  0.598566
C    -3.635543  -2.567080  -0.634926
C    -5.146180  -2.629045  -0.430000
N    -5.703594  -1.477763  0.386466
H    -3.630912  -1.347243  2.051699
H    -1.977866  -1.781711  2.384027
H    -3.028078  -3.618302  1.163045
H    -1.711810  -2.924585  0.237988
H    -3.405411  -3.387817  -1.330216
H    -3.391525  -1.648262  -1.192073
H    -5.450523  -3.560150  0.064577
H    -5.649166  -2.590479  -1.402791
H    -6.624705  -1.192981  0.039339
H    -5.052392  -0.579875  0.406385
H    -5.832456  -1.750486  1.365313
N    -2.924747  2.086468  1.684858
C    -1.721764  2.628142  2.326459
H    -3.736653  2.700965  1.670852
H    -2.009051  3.570514  2.802424
H    -0.924231  2.835875  1.604842
H    -1.337866  1.959608  3.102439
