34
Energy: -18219.2166994 eV PBE+vdW (tier 2 basis)
C    -0.341104  -0.235892  1.757636
C    -1.519066  -0.823217  2.406548
O    -1.417319  -2.003660  3.008164
H    0.250581  0.325138  2.533786
H    -0.603061  0.457978  0.957791
H    0.291908  -1.027942  1.337764
N    -2.702942  -0.277521  2.571756
C    -3.285878  0.960688  2.021846
C    -2.930958  1.090178  0.507191
O    -2.702434  0.082517  -0.154621
H    -3.347862  -0.862527  3.102367
H    -4.366322  0.745657  2.004028
C    -3.093140  2.176170  2.949405
C    -1.649380  2.643802  3.217403
C    -1.079528  2.164374  4.560716
C    0.420121  2.438598  4.719013
N    1.236590  1.466892  3.953525
H    -3.588126  1.944590  3.905213
H    -3.702623  2.992568  2.533222
H    -1.629509  3.743318  3.214773
H    -0.986308  2.343791  2.393379
H    -1.257046  1.085555  4.703756
H    -1.623966  2.665184  5.376068
H    0.683973  2.432546  5.787588
H    0.646773  3.449493  4.351128
H    2.079937  1.911644  3.591738
H    -0.535944  -2.390430  2.861046
H    1.562166  0.725210  4.574624
N    -2.971256  2.345263  0.006198
C    -2.824388  2.628761  -1.416409
H    -3.164547  3.119094  0.630056
H    -1.981173  3.309389  -1.587934
H    -3.739538  3.083670  -1.815996
H    -2.638064  1.683184  -1.933396
