34
Energy: -18219.9008156 eV PBE+vdW (tier 2 basis)
C    -0.563431  -0.142373  -0.965385
C    0.044330  -0.531806  0.354977
O    1.273319  -0.772133  0.458149
H    0.224286  0.286671  -1.592091
H    -1.385446  0.574495  -0.857750
H    -0.954483  -1.029026  -1.487245
N    -0.747738  -0.645417  1.442260
C    -2.136000  -1.077453  1.483814
C    -2.634948  -0.751905  2.910188
O    -1.826164  -0.694665  3.838019
H    -0.289849  -0.699147  2.355454
H    -2.722684  -0.522617  0.737231
C    -2.243478  -2.600740  1.179401
C    -1.802056  -3.582822  2.286130
C    -0.397241  -3.498812  2.922895
C    0.805314  -4.071162  2.180343
N    1.197680  -3.352860  0.907190
H    -1.701434  -2.779838  0.235071
H    -3.294418  -2.830714  0.948083
H    -1.959512  -4.603212  1.900629
H    -2.515505  -3.480929  3.116604
H    -0.439785  -4.100981  3.843757
H    -0.182316  -2.485193  3.282416
H    0.640981  -5.121494  1.903305
H    1.688776  -4.030316  2.828856
H    2.089051  -3.718823  0.552893
H    1.309118  -2.266848  0.961410
H    0.502836  -3.517229  0.170936
N    -3.970860  -0.610132  3.044190
C    -4.619579  -0.352459  4.324221
H    -4.543646  -0.611026  2.207395
H    -5.423103  -1.078318  4.498072
H    -5.038162  0.661772  4.353208
H    -3.865752  -0.447484  5.110991
