34
Energy: -18220.3169252 eV PBE+vdW (tier 2 basis)
C    1.004023  1.305623  0.658598
C    0.768201  0.902954  2.092056
O    1.573173  1.184331  2.991153
H    1.878959  0.757356  0.284375
H    0.154514  1.107571  -0.004777
H    1.252308  2.372643  0.625172
N    -0.386740  0.215536  2.342266
C    -0.747797  -0.468869  3.591860
C    -1.059379  0.474859  4.772377
O    -2.074733  0.265875  5.495776
H    -1.004898  0.053571  1.556111
H    -1.712659  -0.948471  3.378517
C    0.264040  -1.590148  3.951247
C    -0.231223  -2.590794  5.006580
C    -0.133423  -2.107212  6.473056
C    -1.327955  -2.460829  7.352312
N    -2.616728  -1.885135  6.797285
H    1.222755  -1.147795  4.254647
H    0.456242  -2.132856  3.015291
H    0.346986  -3.517900  4.900426
H    -1.265973  -2.877399  4.750442
H    0.024692  -1.021278  6.518756
H    0.752938  -2.546051  6.950944
H    -1.464170  -3.544953  7.452117
H    -1.202222  -2.042854  8.357620
H    -3.281539  -1.668125  7.545409
H    -2.417465  -0.963746  6.210976
H    -3.079271  -2.547887  6.168789
N    -0.219364  1.474646  4.999867
C    -0.394080  2.434364  6.080271
H    0.607188  1.524754  4.368926
H    -1.454482  2.681838  6.197242
H    0.169817  3.340099  5.838585
H    -0.022226  2.032265  7.033739
