34
Energy: -18219.1411034 eV PBE+vdW (tier 2 basis)
C    -0.427410  0.405344  -0.477210
C    -0.070274  0.298543  0.985820
O    1.096833  0.375923  1.383068
H    -0.748593  -0.575375  -0.855692
H    0.465338  0.713731  -1.027574
H    -1.258163  1.094828  -0.676787
N    -1.077474  0.087659  1.902899
C    -2.516508  0.369161  1.811688
C    -3.190807  -0.269418  0.570010
O    -3.706089  0.431467  -0.297550
H    -0.707267  -0.076920  2.835525
H    -2.955940  -0.119271  2.696208
C    -2.849143  1.870729  1.882418
C    -2.313819  2.578794  3.149753
C    -1.289221  3.706416  2.912238
C    -0.011758  3.194224  2.270698
N    1.054699  4.279653  2.178435
H    -3.940161  1.969470  1.831679
H    -2.490467  2.354787  0.962156
H    -1.867949  1.851052  3.845944
H    -3.152607  3.026033  3.697666
H    -1.740465  4.486790  2.277269
H    -1.056715  4.175269  3.882878
H    -0.164382  2.856631  1.240832
H    0.455344  2.368634  2.820662
H    1.304736  4.636235  3.110536
H    0.731150  5.079791  1.618343
H    1.909806  3.907790  1.741829
N    -3.187952  -1.627697  0.499350
C    -2.649281  -2.592681  1.446911
H    -3.644585  -1.984310  -0.335364
H    -3.077609  -3.574324  1.221582
H    -2.930032  -2.343808  2.479097
H    -1.554558  -2.669587  1.389651
