34
Energy: -18219.8812402 eV PBE+vdW (tier 2 basis)
C    1.109330  -0.520110  0.683367
C    0.668282  -0.254019  2.101915
O    1.439808  -0.209762  3.057262
H    0.346467  -0.281997  -0.067221
H    1.371260  -1.583019  0.591371
H    2.018202  0.056107  0.478192
N    -0.678158  -0.039681  2.294672
C    -1.218420  0.031785  3.648894
C    -0.420872  1.019429  4.524807
O    -0.165209  0.759909  5.729608
H    -1.322191  -0.166948  1.522332
H    -2.226289  0.472341  3.550195
C    -1.332854  -1.412999  4.203660
C    -1.830038  -1.745582  5.619694
C    -3.188654  -1.199193  6.091093
C    -3.243486  0.270089  6.511524
N    -2.090106  0.616191  7.415829
H    -0.334847  -1.859748  4.101496
H    -1.979678  -1.935333  3.481719
H    -1.041695  -1.508526  6.346286
H    -1.911334  -2.841754  5.649817
H    -3.522719  -1.806420  6.947277
H    -3.956088  -1.343837  5.315590
H    -4.179548  0.491569  7.038096
H    -3.167409  0.959182  5.661529
H    -2.210073  1.535538  7.851648
H    -1.186887  0.640153  6.781226
H    -1.976826  -0.074283  8.165741
N    -0.111678  2.243384  4.060285
C    -0.275735  2.842239  2.741821
H    0.442462  2.771506  4.730577
H    0.525475  2.542342  2.052907
H    -0.243452  3.930402  2.861947
H    -1.242304  2.577771  2.302729
