34
Energy: -18220.1952012 eV PBE+vdW (tier 2 basis)
C    -0.797663  -2.712782  0.947460
C    -1.061659  -1.780055  2.100993
O    -0.629054  -2.065064  3.238804
H    -0.903239  -3.750825  1.279465
H    0.246184  -2.566743  0.634190
H    -1.444448  -2.535264  0.080620
N    -1.781633  -0.671446  1.805140
C    -1.868813  0.610420  2.514815
C    -0.667390  1.493421  2.065875
O    0.444842  0.998785  1.926400
H    -2.017967  -0.594031  0.820712
H    -2.817386  1.064095  2.184648
C    -1.868460  0.525677  4.048316
C    -2.973968  -0.353997  4.640203
C    -2.806346  -0.644130  6.141280
C    -1.472554  -1.265604  6.550475
N    -1.153579  -2.495322  5.738703
H    -1.973818  1.554363  4.425191
H    -0.871368  0.188961  4.357090
H    -3.034961  -1.300668  4.082220
H    -3.952446  0.126145  4.494778
H    -3.629476  -1.293086  6.478955
H    -2.903790  0.285081  6.722591
H    -1.483899  -1.552627  7.608789
H    -0.631737  -0.579050  6.396692
H    -0.293990  -2.945651  6.070989
H    -0.999914  -2.256582  4.685903
H    -1.906961  -3.188789  5.804313
N    -0.962045  2.807279  1.894338
C    0.041506  3.804616  1.549536
H    -1.924672  3.108311  1.995139
H    -0.193403  4.277462  0.587385
H    1.006254  3.294217  1.470979
H    0.104994  4.579685  2.324235
