34
Energy: -18219.4862952 eV PBE+vdW (tier 2 basis)
C    -1.046964  0.016374  -0.074880
C    -1.048479  -0.115730  1.430648
O    -0.482806  -1.027675  2.024504
H    -0.016384  -0.069076  -0.438013
H    -1.609606  -0.824512  -0.501437
H    -1.483502  0.954481  -0.438444
N    -1.743839  0.861630  2.115932
C    -1.918184  0.785351  3.556697
C    -3.382614  1.090801  3.944793
O    -3.666793  2.127563  4.556562
H    -2.254579  1.565412  1.594034
H    -1.650942  -0.249212  3.824477
C    -1.009896  1.742136  4.336315
C    0.491242  1.635135  4.068871
C    1.338786  2.449864  5.060584
C    0.975801  3.926442  5.196922
N    -0.284452  4.132326  6.036272
H    -1.222107  1.555266  5.404057
H    -1.383376  2.754278  4.092280
H    0.709356  1.965877  3.042662
H    0.811641  0.585482  4.120230
H    2.392964  2.421533  4.749471
H    1.321361  1.980844  6.059875
H    1.764101  4.498305  5.700285
H    0.770237  4.396297  4.226345
H    -0.540807  5.125189  6.105822
H    -0.151848  3.772027  6.989961
H    -1.080894  3.614891  5.618532
N    -4.322042  0.186926  3.577019
C    -4.145352  -1.064057  2.851559
H    -5.269531  0.464956  3.818885
H    -4.935910  -1.760194  3.151378
H    -3.182596  -1.529036  3.090994
H    -4.200012  -0.920898  1.762455
