34
Energy: -18219.3207627 eV PBE+vdW (tier 2 basis)
C    0.227436  -0.015168  0.040812
C    0.129150  -0.080119  1.550048
O    1.110571  -0.241677  2.273929
H    0.487135  -1.013421  -0.336250
H    -0.697244  0.313355  -0.449018
H    1.046667  0.657904  -0.236036
N    -1.138280  0.045854  2.065746
C    -1.421390  -0.132519  3.486836
C    -2.718241  -0.960859  3.597341
O    -3.817144  -0.406058  3.598144
H    -1.926336  0.159184  1.436475
H    -0.556963  -0.675944  3.892796
C    -1.582975  1.190271  4.249059
C    -0.331080  2.066751  4.187358
C    -0.496896  3.363892  4.991693
C    0.756981  4.215495  4.907628
N    0.599296  5.497881  5.724570
H    -1.821706  0.946799  5.296697
H    -2.459660  1.721843  3.850664
H    -0.104657  2.315155  3.139288
H    0.539979  1.506358  4.560108
H    -0.712425  3.120391  6.046117
H    -1.362140  3.930554  4.607608
H    1.639059  3.704579  5.313522
H    0.979945  4.535568  3.882155
H    1.438790  6.091152  5.682790
H    -0.197940  6.051685  5.382359
H    0.415412  5.278315  6.713187
N    -2.579770  -2.311932  3.644172
C    -1.347525  -3.089865  3.620322
H    -3.462976  -2.811974  3.686580
H    -0.693536  -2.795235  2.789709
H    -1.610351  -4.143023  3.479543
H    -0.783510  -3.007126  4.560896
