34
Energy: -18219.0967241 eV PBE+vdW (tier 2 basis)
C    -1.022291  -1.376117  -0.060811
C    0.070988  -1.296806  0.975178
O    0.859515  -2.184899  1.209105
H    -1.094743  -0.470561  -0.678357
H    -1.998706  -1.542877  0.418452
H    -0.815232  -2.236104  -0.703298
N    0.212701  -0.066774  1.692668
C    -0.878918  0.872726  1.951750
C    -0.468839  2.206347  1.325955
O    0.599073  2.200010  0.586895
H    0.849438  -0.213252  2.477388
H    -1.741878  0.534889  1.357010
C    -1.352186  0.948688  3.426850
C    -0.616024  1.839268  4.442001
C    0.849246  1.538283  4.799114
C    1.932971  2.053829  3.839319
N    1.675738  3.440182  3.410599
H    -1.376535  -0.092694  3.781732
H    -2.408378  1.261852  3.413525
H    -1.204538  1.757230  5.366864
H    -0.688706  2.895660  4.144424
H    0.998881  0.459020  4.964263
H    1.034869  2.001421  5.780565
H    1.995792  1.441503  2.926794
H    2.908664  1.922275  4.338793
H    1.699556  4.060211  4.223841
H    2.438574  3.754418  2.808749
H    0.929076  1.245657  0.680839
N    -1.159938  3.306368  1.447831
C    -0.748460  4.605095  0.908542
H    -1.967690  3.278400  2.063245
H    0.050869  5.015656  1.539455
H    -1.613376  5.273131  0.911695
H    -0.382147  4.483479  -0.115313
