34
Energy: -18219.4597297 eV PBE+vdW (tier 2 basis)
C    -0.434035  -0.545307  -0.678027
C    -0.383697  -0.611746  0.833728
O    0.522763  -0.123440  1.493695
H    0.537188  -0.855667  -1.080525
H    -0.587600  0.499278  -0.979368
H    -1.228346  -1.157273  -1.124351
N    -1.431166  -1.285082  1.444042
C    -1.611390  -1.161290  2.890048
C    -0.369828  -1.697558  3.634963
O    0.083832  -2.822507  3.400629
H    -2.283767  -1.384316  0.900194
H    -1.730979  -0.092682  3.140520
C    -2.896814  -1.880937  3.346228
C    -2.924673  -3.413391  3.481675
C    -2.808344  -4.272919  2.203273
C    -1.377934  -4.572195  1.781206
N    -1.375604  -5.578816  0.625001
H    -3.718045  -1.555356  2.684338
H    -3.149258  -1.474473  4.335818
H    -3.894553  -3.657573  3.936806
H    -2.162198  -3.740354  4.201869
H    -3.355605  -3.793625  1.373175
H    -3.322190  -5.229116  2.400906
H    -0.790126  -5.030165  2.583246
H    -0.832487  -3.688595  1.436042
H    -0.415320  -5.802211  0.333928
H    -1.873891  -5.205742  -0.193398
H    -1.838502  -6.458206  0.891882
N    0.091625  -0.892752  4.616474
C    1.273618  -1.223311  5.397266
H    -0.205794  0.076358  4.600873
H    1.214201  -0.733959  6.375236
H    2.193153  -0.903037  4.886290
H    1.313835  -2.307972  5.535534
