34
Energy: -18219.4596246 eV PBE+vdW (tier 2 basis)
C    -0.975003  -0.912503  -0.297276
C    -0.287617  -0.512771  0.990778
O    0.817797  -0.918300  1.313045
H    -1.283939  -0.041195  -0.891067
H    -1.869474  -1.521589  -0.102862
H    -0.270193  -1.509932  -0.880881
N    -0.950531  0.392717  1.820686
C    -2.358987  0.743081  1.795539
C    -2.598554  2.250859  2.061030
O    -3.689892  2.655809  2.484381
H    -0.443451  0.524246  2.694412
H    -2.704067  0.605399  0.759302
C    -3.256604  -0.164079  2.668986
C    -2.797353  -0.416586  4.114834
C    -2.771360  0.773866  5.092482
C    -4.071115  1.554039  5.235923
N    -5.235414  0.633632  5.590060
H    -3.311288  -1.142720  2.171957
H    -4.271938  0.260242  2.626407
H    -1.788968  -0.856155  4.104498
H    -3.421019  -1.227172  4.532698
H    -2.024653  1.518305  4.778328
H    -2.431746  0.417793  6.078113
H    -4.339410  2.049400  4.290715
H    -4.017887  2.297715  6.039407
H    -6.112389  1.161713  5.680207
H    -5.072818  0.131518  6.473220
H    -5.367741  -0.071771  4.852637
N    -1.563506  3.055018  1.746092
C    -1.624527  4.506798  1.797923
H    -0.725557  2.600146  1.393487
H    -1.472139  4.935392  0.799005
H    -0.857380  4.905214  2.474301
H    -2.615286  4.794951  2.161944
