34
Energy: -18218.8659196 eV PBE+vdW (tier 2 basis)
C    0.704435  -1.031124  2.361980
C    -0.563355  -1.758864  2.598203
O    -0.513399  -2.984854  3.102790
H    1.292480  -1.588359  1.618103
H    0.553509  -0.028632  1.967670
H    1.275873  -0.996073  3.302592
N    -1.792229  -1.340355  2.407818
C    -2.324019  -0.122926  1.759532
C    -1.985573  -0.209238  0.243727
O    -0.834799  -0.484811  -0.088913
H    -2.496329  -2.033617  2.664843
H    -3.405579  -0.192038  1.931488
C    -1.826766  1.195297  2.388897
C    -2.728998  2.388306  2.047043
C    -2.247674  3.740634  2.596123
C    -2.103554  3.835604  4.132082
N    -0.825558  3.450306  4.734096
H    -0.803525  1.411746  2.054012
H    -1.798347  1.043168  3.478100
H    -3.744205  2.188992  2.429729
H    -2.815554  2.475639  0.952798
H    -2.973897  4.497120  2.261025
H    -1.288874  4.016125  2.127442
H    -2.291070  4.873833  4.437200
H    -2.901215  3.243805  4.612294
H    -0.085015  4.099886  4.470472
H    -0.520708  2.520390  4.453134
H    0.405647  -3.266481  3.264279
N    -2.974511  0.048022  -0.640502
C    -4.399114  0.265613  -0.400555
H    -2.660050  0.017992  -1.607375
H    -4.850384  -0.564334  0.160049
H    -4.899800  0.313931  -1.371907
H    -4.595145  1.209159  0.123800
