34
Energy: -18219.4332501 eV PBE+vdW (tier 2 basis)
C    0.005449  0.590158  0.287808
C    0.144284  0.023612  1.683624
O    1.222672  -0.064195  2.261461
H    -1.030909  0.654353  -0.065588
H    0.458952  1.588169  0.261789
H    0.577257  -0.040560  -0.404888
N    -1.029362  -0.418631  2.266201
C    -1.052987  -0.943093  3.620645
C    -1.853850  -2.259610  3.769961
O    -2.309295  -2.590602  4.864547
H    -1.909358  -0.198790  1.810892
H    -0.000402  -1.203173  3.828824
C    -1.510768  0.072973  4.675891
C    -0.498807  1.197262  4.912792
C    -0.809048  2.045810  6.159147
C    -0.557386  1.259401  7.436430
N    -0.912913  2.091155  8.665998
H    -1.694688  -0.519353  5.584164
H    -2.487387  0.494965  4.386136
H    -0.463524  1.870605  4.045625
H    0.517270  0.780364  4.994809
H    -1.860213  2.380757  6.127317
H    -0.177906  2.949297  6.156259
H    0.498326  0.983537  7.551002
H    -1.166559  0.350122  7.502782
H    -0.736536  1.580234  9.541420
H    -1.907108  2.356987  8.650426
H    -0.364118  2.961608  8.690761
N    -1.962324  -3.002585  2.641663
C    -2.577687  -4.319044  2.618949
H    -1.492828  -2.660182  1.810333
H    -3.102566  -4.462664  3.568440
H    -3.295118  -4.393673  1.792430
H    -1.822922  -5.110168  2.509066
