34
Energy: -18219.3023596 eV PBE+vdW (tier 2 basis)
C    -2.736261  2.364368  1.394726
C    -1.340929  1.887687  1.039182
O    -0.448143  2.646913  0.695417
H    -2.762883  3.448215  1.258358
H    -3.504502  1.908589  0.754115
H    -2.990764  2.136261  2.439626
N    -1.089783  0.526895  1.133777
C    -2.037003  -0.546287  1.399532
C    -1.293403  -1.591222  2.258796
O    -0.855743  -2.638095  1.759588
H    -0.151376  0.267994  0.836072
H    -2.861919  -0.122269  1.990676
C    -2.615652  -1.146968  0.102857
C    -3.946694  -1.908505  0.233525
C    -3.958756  -3.257335  0.978337
C    -2.963975  -4.300235  0.489556
N    -3.114528  -4.557773  -1.007510
H    -1.827879  -1.764033  -0.359562
H    -2.784686  -0.305127  -0.582130
H    -4.362230  -2.045486  -0.781287
H    -4.684491  -1.258845  0.728458
H    -4.980940  -3.667765  0.955104
H    -3.723551  -3.113882  2.042665
H    -1.931366  -3.958920  0.649342
H    -3.110161  -5.269804  0.979329
H    -2.438269  -5.259569  -1.333432
H    -4.058487  -4.889984  -1.246000
H    -2.947767  -3.691560  -1.537108
N    -1.103537  -1.296111  3.565940
C    -1.451556  -0.068327  4.271674
H    -0.520384  -1.970779  4.053757
H    -2.518327  0.167326  4.162519
H    -0.858765  0.788348  3.923715
H    -1.257007  -0.219091  5.337637
