34
Energy: -18219.166961 eV PBE+vdW (tier 2 basis)
C    -0.107406  -0.233312  0.061666
C    -0.529309  -0.022982  1.500800
O    0.271644  0.289288  2.373587
H    -0.798954  -0.838698  -0.533601
H    0.879529  -0.707994  0.070235
H    0.013340  0.744896  -0.425273
N    -1.864076  -0.214312  1.838250
C    -3.046876  -0.233831  0.977277
C    -3.238111  -1.531343  0.141100
O    -3.945048  -1.515232  -0.863226
H    -2.018733  -0.032134  2.826431
H    -3.900526  -0.242245  1.675750
C    -3.205762  0.998102  0.067875
C    -3.149686  2.325136  0.828037
C    -3.298564  3.529192  -0.111367
C    -3.034044  4.876681  0.540201
N    -4.024245  5.136191  1.674054
H    -4.158428  0.888135  -0.466648
H    -2.427381  0.991805  -0.708573
H    -2.194236  2.401947  1.373847
H    -3.950191  2.321228  1.593683
H    -4.289120  3.531299  -0.595642
H    -2.572265  3.445125  -0.934151
H    -3.145690  5.715097  -0.157395
H    -2.038629  4.926895  0.999705
H    -3.839622  6.028115  2.151050
H    -3.970715  4.381128  2.372286
H    -4.990303  5.158486  1.319819
N    -2.627321  -2.630392  0.643196
C    -2.743379  -3.946034  0.037000
H    -2.051011  -2.507956  1.469154
H    -3.382841  -3.854131  -0.846528
H    -3.198175  -4.659867  0.736209
H    -1.759374  -4.325272  -0.268547
