34
Energy: -18220.4127923 eV PBE+vdW (tier 2 basis)
C    0.353778  0.668668  0.081513
C    0.119053  0.555045  1.562896
O    1.087684  0.394483  2.350950
H    0.861680  -0.241433  -0.263002
H    1.030442  1.509963  -0.114385
H    -0.567626  0.805054  -0.493854
N    -1.150359  0.615301  1.981991
C    -1.632246  0.355693  3.331034
C    -3.014882  -0.314736  3.122729
O    -3.622415  -0.144771  2.064993
H    -1.921580  0.622528  1.304432
H    -0.932264  -0.337687  3.821860
C    -1.802223  1.651590  4.158733
C    -0.500214  2.417042  4.413454
C    0.417517  1.770204  5.466852
C    1.884083  2.163555  5.316829
N    2.554672  1.321045  4.254593
H    -2.285317  1.399293  5.115421
H    -2.508835  2.298986  3.619866
H    -0.745501  3.436767  4.743179
H    0.030440  2.538973  3.457024
H    0.342834  0.670583  5.440133
H    0.087876  2.061729  6.473528
H    2.450546  2.030988  6.245863
H    1.984513  3.211423  5.007704
H    1.880665  1.047933  3.438588
H    2.868252  0.427909  4.649865
H    3.381836  1.782541  3.863404
N    -3.501266  -1.026766  4.159776
C    -4.815399  -1.660479  4.111519
H    -2.918391  -1.178712  4.973652
H    -5.580633  -0.923614  3.841547
H    -5.043236  -2.072096  5.098977
H    -4.837265  -2.468098  3.368449
