34
Energy: -18219.1967142 eV PBE+vdW (tier 2 basis)
C    -0.077558  -0.070801  0.008872
C    0.022471  0.026026  1.517839
O    1.093828  0.189603  2.083614
H    0.638232  0.634866  -0.424544
H    0.234603  -1.081043  -0.290613
H    -1.073620  0.107041  -0.409458
N    -1.129638  -0.157625  2.278518
C    -2.526395  -0.038973  1.869439
C    -2.964639  -1.129112  0.851021
O    -3.820118  -0.892209  -0.006084
H    -0.934865  -0.030486  3.268962
H    -3.106016  -0.259013  2.781966
C    -2.928577  1.371202  1.386587
C    -4.432570  1.643220  1.517810
C    -4.863186  2.874780  0.710254
C    -6.364529  3.081812  0.797705
N    -6.803647  4.253865  -0.079288
H    -2.629771  1.488665  0.335127
H    -2.356848  2.106759  1.970475
H    -4.700729  1.777766  2.578315
H    -4.978761  0.767921  1.140015
H    -4.572739  2.720060  -0.342708
H    -4.334985  3.774786  1.068304
H    -6.923263  2.209206  0.436798
H    -6.702167  3.320680  1.813907
H    -6.333768  5.122877  0.209298
H    -7.819120  4.413077  -0.035327
H    -6.552390  4.083206  -1.062869
N    -2.373506  -2.331315  1.028483
C    -2.658223  -3.490529  0.201385
H    -1.633046  -2.381011  1.721538
H    -2.943120  -4.348672  0.823256
H    -1.785634  -3.767214  -0.406240
H    -3.488366  -3.236059  -0.464695
