34
Energy: -18218.6611615 eV PBE+vdW (tier 2 basis)
C    0.860820  -0.729063  0.690060
C    0.203730  0.409415  1.366546
O    1.004440  1.447459  1.526097
H    1.477992  -0.336278  -0.127709
H    1.524919  -1.218248  1.416725
H    0.153974  -1.466537  0.309923
N    -1.049099  0.475940  1.753074
C    -2.078281  -0.589270  1.819976
C    -1.418557  -1.906133  2.339854
O    -0.411100  -1.839581  3.038250
H    -1.344122  1.356385  2.172550
H    -2.701497  -0.276331  2.673531
C    -3.014735  -0.623656  0.596899
C    -2.453449  -0.999253  -0.786023
C    -1.747523  0.089450  -1.614632
C    -2.580753  1.349517  -1.947066
N    -2.570255  2.469651  -1.008268
H    -3.531118  0.345541  0.543791
H    -3.824212  -1.322107  0.862780
H    -3.309556  -1.349654  -1.382694
H    -1.797326  -1.880388  -0.696154
H    -1.455548  -0.386093  -2.563773
H    -0.802299  0.416550  -1.155991
H    -3.630823  1.064495  -2.117538
H    -2.227727  1.747265  -2.908719
H    -1.641636  2.866036  -0.876424
H    0.618242  2.177136  2.048336
H    -2.985519  2.265562  -0.103376
N    -2.071224  -3.046958  2.033785
C    -1.677339  -4.346613  2.566967
H    -2.894603  -3.002979  1.445359
H    -2.498805  -4.787549  3.145147
H    -0.813552  -4.198795  3.221092
H    -1.403620  -5.029999  1.753147
