34
Energy: -18218.8378351 eV PBE+vdW (tier 2 basis)
C    0.546048  0.154346  -0.078667
C    0.466915  0.077924  1.426269
O    1.457620  -0.063421  2.141813
H    1.382671  -0.455067  -0.433722
H    0.750697  1.199482  -0.353396
H    -0.380307  -0.153518  -0.578967
N    -0.801290  0.177706  1.964830
C    -0.976210  0.567462  3.372556
C    -0.125491  1.854549  3.632345
O    -0.342901  2.786534  2.863097
H    -1.507611  0.540920  1.332539
H    -1.986093  1.001210  3.415177
C    -1.028100  -0.619167  4.363307
C    0.055210  -1.709361  4.272737
C    -0.217510  -2.803023  3.225039
C    -1.293082  -3.806884  3.604889
N    -0.836476  -4.636927  4.803509
H    -2.022787  -1.080846  4.237685
H    -1.047034  -0.195752  5.376800
H    0.201417  -2.152554  5.278372
H    1.018107  -1.255966  4.016680
H    0.713214  -3.339835  2.978691
H    -0.544076  -2.333021  2.287407
H    -1.510047  -4.523517  2.804265
H    -2.231098  -3.328636  3.914178
H    -1.570705  -5.266935  5.150102
H    -0.556745  -4.007408  5.570735
H    -0.014095  -5.205492  4.560487
N    0.692509  2.022806  4.713548
C    1.483095  1.055149  5.462540
H    1.064165  2.970124  4.707810
H    2.167369  1.615065  6.107911
H    2.084934  0.418076  4.800121
H    0.865732  0.428908  6.119678
