34
Energy: -18219.197248 eV PBE+vdW (tier 2 basis)
C    1.317457  1.529692  1.926908
C    0.695848  0.168156  2.176490
O    1.364873  -0.841094  2.341695
H    2.400367  1.424671  2.029285
H    0.961673  2.288278  2.637680
H    1.096383  1.893254  0.912449
N    -0.689890  0.101658  2.248059
C    -1.646869  1.092642  1.788383
C    -2.846914  1.245491  2.764622
O    -3.956284  1.582080  2.346114
H    -1.021994  -0.857492  2.342846
H    -1.131870  2.065698  1.793341
C    -2.160620  0.810467  0.357086
C    -2.743451  2.047147  -0.345661
C    -3.710534  1.721575  -1.493152
C    -3.141275  0.857674  -2.607870
N    -1.954347  1.558163  -3.265590
H    -2.931934  0.026677  0.417016
H    -1.315343  0.385772  -0.209347
H    -1.926930  2.716167  -0.681468
H    -3.315129  2.628809  0.387761
H    -4.124912  2.648933  -1.921178
H    -4.572886  1.173254  -1.085145
H    -3.865391  0.667317  -3.408598
H    -2.755925  -0.103124  -2.245581
H    -1.251187  1.799170  -2.552661
H    -2.249877  2.437720  -3.710493
H    -1.504002  0.973678  -3.981142
N    -2.553105  1.014343  4.063218
C    -3.523997  1.153476  5.136138
H    -1.612310  0.698241  4.277226
H    -3.205047  1.921543  5.852756
H    -3.655175  0.202667  5.668599
H    -4.478728  1.451507  4.692131
