34
Energy: -18219.7067128 eV PBE+vdW (tier 2 basis)
C    -0.678529  1.075142  -0.787706
C    -0.095207  0.824951  0.568149
O    1.151279  0.849740  0.745783
H    -1.509106  1.791830  -0.762857
H    -1.094452  0.140944  -1.191930
H    0.112568  1.429948  -1.452202
N    -0.902462  0.536192  1.619801
C    -2.322109  0.872390  1.849920
C    -3.252155  0.336041  0.725645
O    -3.821947  1.105320  -0.040852
H    -0.384338  0.256373  2.448152
H    -2.579435  0.332426  2.773911
C    -2.564676  2.371876  2.079955
C    -1.707687  3.048156  3.166104
C    -0.265972  3.434542  2.735838
C    0.838852  2.700342  3.506419
N    2.030321  2.420396  2.624897
H    -3.625206  2.475698  2.348194
H    -2.462595  2.908255  1.125868
H    -1.676211  2.420935  4.072511
H    -2.233187  3.960620  3.472829
H    -0.117584  4.515748  2.856859
H    -0.148969  3.242395  1.660128
H    0.501682  1.720318  3.866595
H    1.179124  3.268185  4.380437
H    2.810863  2.016582  3.154156
H    2.373687  3.277078  2.176409
H    1.725203  1.706870  1.838997
N    -3.388195  -1.014940  0.641293
C    -2.846816  -2.040184  1.522734
H    -4.023020  -1.307780  -0.096248
H    -3.239701  -3.009620  1.202086
H    -3.154577  -1.891744  2.568268
H    -1.750446  -2.090625  1.473764
