34
Energy: -18220.1101078 eV PBE+vdW (tier 2 basis)
C    -0.022636  -0.002712  0.538356
C    -0.115280  0.146496  2.042106
O    0.852325  0.089010  2.780202
H    1.036553  -0.014097  0.269278
H    -0.472768  -0.949875  0.206644
H    -0.520436  0.815915  0.000419
N    -1.379117  0.398566  2.591592
C    -2.662875  0.157978  1.955982
C    -3.620879  1.351787  2.184706
O    -4.870487  1.242258  2.115322
H    -1.352988  0.336209  3.609655
H    -2.481331  0.144216  0.869529
C    -3.309710  -1.189072  2.348081
C    -4.243797  -1.756755  1.260911
C    -5.428595  -2.584464  1.780517
C    -6.379719  -1.838512  2.714145
N    -6.788873  -0.508984  2.133593
H    -3.833696  -1.061072  3.307455
H    -2.499490  -1.903061  2.543692
H    -3.660688  -2.389740  0.577842
H    -4.620735  -0.937753  0.629006
H    -5.071143  -3.467306  2.330919
H    -5.996676  -2.977336  0.922913
H    -7.286041  -2.425171  2.904826
H    -5.917128  -1.610498  3.682010
H    -7.184332  -0.619104  1.193097
H    -7.502444  -0.054875  2.713338
H    -5.928378  0.169950  2.077825
N    -3.024850  2.519958  2.424583
C    -3.714315  3.787402  2.609819
H    -2.009108  2.480927  2.499930
H    -4.785231  3.632051  2.454926
H    -3.345665  4.524547  1.886126
H    -3.545465  4.170727  3.624063
