34
Energy: -18219.7385472 eV PBE+vdW (tier 2 basis)
C    0.658739  -1.125334  1.484054
C    0.291402  0.132215  2.231740
O    1.179255  0.945931  2.589317
H    1.375789  -1.706166  2.078944
H    1.168397  -0.842769  0.553641
H    -0.196155  -1.765785  1.241104
N    -1.017207  0.321647  2.473553
C    -1.772739  1.427672  3.098877
C    -2.622921  2.227133  2.064039
O    -3.816571  2.370182  2.305966
H    -1.625507  -0.398406  2.094174
H    -2.562462  0.927211  3.676147
C    -1.053980  2.385424  4.069876
C    -0.789526  1.841919  5.485891
C    0.451112  0.955969  5.682582
C    1.769223  1.729547  5.515705
N    2.736452  0.973311  4.639822
H    -1.752351  3.227338  4.179773
H    -0.147710  2.803578  3.615230
H    -1.673326  1.281662  5.824821
H    -0.713110  2.700556  6.170892
H    0.419842  0.112921  4.977692
H    0.417781  0.510486  6.685751
H    2.259950  1.930491  6.474554
H    1.610237  2.687588  5.007191
H    3.607787  1.493637  4.490849
H    2.234496  0.827508  3.687347
H    2.981133  0.063960  5.045621
N    -2.041096  2.762801  0.956452
C    -0.658167  2.748575  0.509160
H    -2.715413  3.245578  0.368262
H    -0.475295  3.646695  -0.090967
H    -0.429069  1.870652  -0.115228
H    0.040432  2.767824  1.351665
