34
Energy: -18219.754613 eV PBE+vdW (tier 2 basis)
C    -1.011833  -0.324699  -1.942122
C    -0.605098  -1.125929  -0.741398
O    0.104054  -2.155547  -0.847044
H    -0.186501  -0.342621  -2.662472
H    -1.872404  -0.802544  -2.435009
H    -1.281317  0.708385  -1.701369
N    -1.031827  -0.733584  0.490023
C    -2.355592  -0.164181  0.779819
C    -2.443038  1.376400  0.856033
O    -3.553647  1.894047  0.858555
H    -0.620294  -1.284391  1.241393
H    -3.041845  -0.439590  -0.034816
C    -2.880699  -0.757727  2.105883
C    -2.717373  -2.271381  2.334458
C    -3.426799  -3.253226  1.382823
C    -2.807484  -3.563444  0.018788
N    -1.384165  -4.092204  0.102683
H    -3.939276  -0.476274  2.177227
H    -2.376672  -0.242003  2.938311
H    -3.118314  -2.466983  3.338957
H    -1.648753  -2.538907  2.432748
H    -4.448141  -2.896307  1.179562
H    -3.558060  -4.210556  1.912210
H    -3.407803  -4.329698  -0.484717
H    -2.769691  -2.692325  -0.644114
H    -0.654350  -3.313865  -0.154012
H    -1.235679  -4.849310  -0.572865
H    -1.179515  -4.473645  1.032631
N    -1.263817  2.040555  0.936746
C    -1.185100  3.489006  1.060996
H    -0.407889  1.497072  0.924957
H    -2.203822  3.885254  1.006110
H    -0.586418  3.916908  0.247056
H    -0.740533  3.776992  2.022503
