34
Energy: -18219.1645033 eV PBE+vdW (tier 2 basis)
C    -0.423273  -0.793042  0.145686
C    -0.471165  -0.692284  1.657015
O    0.526103  -0.868073  2.346681
H    -0.548242  -1.850446  -0.128336
H    0.570627  -0.482037  -0.191051
H    -1.197883  -0.230123  -0.386311
N    -1.704049  -0.483709  2.267537
C    -2.843873  0.261787  1.726632
C    -3.576988  -0.455971  0.560198
O    -4.117701  0.191302  -0.333908
H    -1.605365  -0.476944  3.280417
H    -3.582851  0.290369  2.544733
C    -2.513543  1.714717  1.340688
C    -1.988166  2.536414  2.520045
C    -1.548061  3.962338  2.143100
C    -0.282690  3.958163  1.298241
N    0.147747  5.384771  0.969174
H    -3.423896  2.165265  0.922930
H    -1.785041  1.693672  0.515344
H    -1.142897  2.022778  3.005631
H    -2.772100  2.623849  3.286591
H    -1.365690  4.538472  3.065031
H    -2.360979  4.468995  1.596154
H    -0.415267  3.456048  0.332814
H    0.564556  3.495745  1.820607
H    -0.589414  5.877189  0.445679
H    1.006563  5.407997  0.402968
H    0.321896  5.922411  1.829710
N    -3.604098  -1.805772  0.661925
C    -4.277068  -2.658608  -0.302779
H    -3.072236  -2.226486  1.416810
H    -3.555887  -3.205989  -0.925953
H    -4.889352  -2.022142  -0.948987
H    -4.922611  -3.381424  0.210669
