34
Energy: -18219.1050115 eV PBE+vdW (tier 2 basis)
C    -0.306417  0.359125  0.166020
C    -0.350244  -0.273959  1.538604
O    0.460999  -1.110133  1.923543
H    0.735064  0.584050  -0.087772
H    -0.909179  1.271555  0.081251
H    -0.671822  -0.369924  -0.570041
N    -1.367705  0.149894  2.364079
C    -1.616150  -0.497781  3.648018
C    -0.345515  -0.632539  4.522033
O    -0.152112  -1.658686  5.182760
H    -2.067107  0.785094  1.998072
H    -2.283107  0.189666  4.200709
C    -2.351494  -1.838030  3.398645
C    -2.734204  -2.790483  4.542215
C    -3.471774  -2.211321  5.766312
C    -2.539525  -1.611585  6.810929
N    -3.283870  -1.449035  8.141303
H    -1.725279  -2.412944  2.703256
H    -3.263871  -1.568957  2.843269
H    -1.842478  -3.322964  4.890651
H    -3.400351  -3.545398  4.100531
H    -4.023587  -3.043190  6.237658
H    -4.228787  -1.470020  5.459221
H    -2.162837  -0.614475  6.561939
H    -1.673150  -2.250527  7.013412
H    -2.678798  -1.044679  8.867720
H    -3.619972  -2.360461  8.480564
H    -4.106257  -0.840017  8.036739
N    0.464093  0.450107  4.695218
C    0.488604  1.744834  4.030279
H    1.285015  0.208945  5.244236
H    -0.519141  2.162197  3.931286
H    0.950829  1.698359  3.033682
H    1.074139  2.432990  4.650397
