34
Energy: -18219.913706 eV PBE+vdW (tier 2 basis)
C    -0.808118  -0.687008  -0.170163
C    -0.615757  -0.988875  1.301498
O    0.018209  -1.960017  1.680435
H    0.013483  -0.048210  -0.522278
H    -1.756559  -0.193752  -0.415099
H    -0.738883  -1.635807  -0.710967
N    -1.209608  -0.167933  2.268924
C    -1.838914  1.149252  2.210794
C    -3.357006  1.092732  1.946523
O    -4.081963  2.111048  2.101505
H    -0.965134  -0.500140  3.198811
H    -1.768733  1.536499  3.240565
C    -1.087588  2.152662  1.293595
C    -1.526541  3.620762  1.340608
C    -1.378906  4.332952  2.705759
C    -2.593749  5.172715  3.078958
N    -3.754425  4.285321  3.466092
H    -1.162472  1.820302  0.252025
H    -0.025502  2.070842  1.568972
H    -2.562269  3.696561  0.981455
H    -0.927164  4.161531  0.595811
H    -0.507786  5.000935  2.693419
H    -1.173011  3.617775  3.519422
H    -2.927839  5.780310  2.228707
H    -2.393217  5.847246  3.920108
H    -4.648453  4.784000  3.408628
H    -3.653420  3.967221  4.435744
H    -3.822859  3.370319  2.838983
N    -3.861335  -0.078990  1.565620
C    -5.268381  -0.326239  1.286500
H    -3.208834  -0.859735  1.564708
H    -5.791367  0.632125  1.232176
H    -5.717750  -0.939169  2.078761
H    -5.369171  -0.852378  0.330193
