34
Energy: -18220.1165991 eV PBE+vdW (tier 2 basis)
C    -0.865360  -1.258511  0.026210
C    -0.360117  -0.115277  0.879313
O    0.552904  0.618428  0.543898
H    -0.365718  -1.197398  -0.943831
H    -1.952641  -1.220841  -0.128105
H    -0.621280  -2.230195  0.479829
N    -1.009813  0.120677  2.098422
C    -1.853675  -0.811162  2.825873
C    -3.109974  -0.111823  3.389715
O    -3.750898  -0.581595  4.363498
H    -0.505757  0.816512  2.647756
H    -2.248456  -1.528102  2.089153
C    -1.120374  -1.622228  3.907257
C    -0.560221  -0.787879  5.079861
C    -0.629147  -1.487688  6.447994
C    -1.944791  -1.325456  7.204242
N    -3.130876  -1.923676  6.486444
H    -0.303947  -2.169366  3.417014
H    -1.810302  -2.401443  4.260413
H    -1.088641  0.177307  5.155812
H    0.486285  -0.532863  4.870570
H    0.139945  -1.070771  7.113983
H    -0.378124  -2.556344  6.346783
H    -1.885709  -1.795839  8.193524
H    -2.186020  -0.263846  7.345660
H    -3.326533  -1.417061  5.525187
H    -3.980847  -1.829726  7.053107
H    -2.990992  -2.925151  6.315389
N    -3.496790  0.986279  2.742007
C    -4.694273  1.755859  3.043354
H    -2.886007  1.279600  1.980557
H    -4.427885  2.785001  3.314383
H    -5.357744  1.779406  2.170060
H    -5.215858  1.281888  3.879038
