34
Energy: -18219.3868274 eV PBE+vdW (tier 2 basis)
C    0.054597  -0.493350  0.600786
C    -0.246315  -0.013267  2.004324
O    0.618345  0.023420  2.888141
H    1.114723  -0.753583  0.547360
H    -0.160319  0.295045  -0.134030
H    -0.538518  -1.373798  0.318088
N    -1.516062  0.416377  2.284975
C    -2.769668  0.148932  1.603753
C    -3.662289  1.374665  1.888985
O    -3.681117  1.837732  3.032064
H    -1.629504  0.943905  3.150492
H    -2.579237  0.025245  0.529089
C    -3.512414  -1.107189  2.158222
C    -2.633150  -2.333593  2.481024
C    -2.329912  -2.581944  3.974188
C    -1.588271  -1.448761  4.671181
N    -1.155824  -1.876264  6.071945
H    -4.276627  -1.388033  1.420790
H    -4.067287  -0.798797  3.057666
H    -1.684425  -2.292317  1.929677
H    -3.140416  -3.238063  2.120828
H    -1.728151  -3.504195  4.041543
H    -3.276539  -2.781648  4.504227
H    -2.217654  -0.562753  4.817884
H    -0.662389  -1.138325  4.163122
H    -1.959250  -2.145548  6.655589
H    -0.655746  -1.114097  6.548968
H    -0.520177  -2.684019  6.026348
N    -4.405547  1.833978  0.859134
C    -5.328450  2.954214  0.980377
H    -4.280153  1.407605  -0.051768
H    -5.353147  3.257003  2.031320
H    -6.336420  2.659401  0.662895
H    -4.993764  3.803998  0.371492
