34
Energy: -18219.1493977 eV PBE+vdW (tier 2 basis)
C    -0.781464  1.308433  0.402298
C    -0.504545  0.901914  1.839972
O    0.396223  1.410084  2.498180
H    -0.710788  0.463567  -0.296889
H    -0.042049  2.062706  0.121852
H    -1.784972  1.744398  0.296676
N    -1.315546  -0.061851  2.398143
C    -2.347623  -0.873280  1.772084
C    -3.571313  -0.871707  2.714536
O    -3.481646  -1.389047  3.826086
H    -1.143211  -0.238569  3.386937
H    -2.599728  -0.424325  0.802235
C    -1.890616  -2.336410  1.579525
C    -0.578796  -2.472506  0.804522
C    0.027568  -3.877310  0.938590
C    1.384811  -3.954026  0.260611
N    2.015212  -5.331457  0.459470
H    -2.696205  -2.901144  1.084986
H    -1.782081  -2.765053  2.588089
H    0.141751  -1.737627  1.195956
H    -0.730966  -2.234953  -0.260521
H    -0.654125  -4.628921  0.506526
H    0.135192  -4.116091  2.010111
H    2.098732  -3.232686  0.677930
H    1.326164  -3.801469  -0.824320
H    2.937029  -5.404497  0.008146
H    1.413050  -6.070172  0.070655
H    2.137713  -5.533728  1.461484
N    -4.687891  -0.268421  2.234962
C    -5.905625  -0.125471  3.018948
H    -4.644495  0.173014  1.324244
H    -6.770215  -0.507896  2.462370
H    -6.084802  0.925208  3.283965
H    -5.780682  -0.706134  3.937909
