34
Energy: -18219.4690812 eV PBE+vdW (tier 2 basis)
C    -0.444749  1.079752  0.333186
C    -0.488379  0.466094  1.711867
O    0.488792  0.450395  2.463659
H    -0.050958  2.100048  0.408569
H    -1.417712  1.103474  -0.171492
H    0.261024  0.507231  -0.282869
N    -1.684979  -0.096550  2.082290
C    -1.847248  -0.783845  3.353177
C    -2.547482  -2.153314  3.182415
O    -3.596304  -2.401016  3.776386
H    -2.464645  -0.078028  1.433650
H    -0.815117  -0.960981  3.698803
C    -2.607414  0.064462  4.385338
C    -1.907261  1.369720  4.785678
C    -0.522989  1.227638  5.446153
C    -0.451564  0.240215  6.597686
N    -1.506152  0.562689  7.657036
H    -2.817082  -0.588460  5.250279
H    -3.603376  0.299056  3.985208
H    -2.588173  1.949038  5.434815
H    -1.777556  2.006526  3.899628
H    -0.169344  2.214513  5.784178
H    0.206694  0.889324  4.692772
H    0.516602  0.263876  7.110986
H    -0.659342  -0.791838  6.290544
H    -2.446613  0.508150  7.239943
H    -1.382886  1.517684  8.018693
H    -1.470402  -0.088595  8.451223
N    -1.946909  -3.062055  2.366998
C    -0.681007  -2.970083  1.653125
H    -2.479426  -3.922655  2.274193
H    -0.275559  -3.980127  1.529031
H    0.054898  -2.384592  2.216804
H    -0.794218  -2.518515  0.656617
