34
Energy: -18220.2149103 eV PBE+vdW (tier 2 basis)
C    -0.463897  0.977590  0.473130
C    -0.574745  0.562828  1.920436
O    0.378954  0.603805  2.701627
H    -0.103817  2.013041  0.431139
H    -1.403896  0.902807  -0.085592
H    0.292895  0.352352  -0.016974
N    -1.813933  0.135366  2.331499
C    -2.047873  -0.358163  3.691711
C    -1.765983  0.787143  4.691791
O    -0.822203  0.795848  5.510386
H    -2.558255  0.055689  1.649052
H    -3.127876  -0.554004  3.763843
C    -1.289888  -1.687948  3.908419
C    -1.081079  -2.194392  5.350867
C    0.345241  -2.726524  5.617426
C    1.501389  -1.879932  5.085071
N    1.448462  -0.446394  5.543035
H    -0.325038  -1.564784  3.407941
H    -1.826494  -2.443544  3.319183
H    -1.786089  -3.005219  5.574639
H    -1.306565  -1.403837  6.075547
H    0.471485  -3.716501  5.153234
H    0.470285  -2.890013  6.698591
H    1.506636  -1.837513  3.990663
H    2.463807  -2.300691  5.401014
H    1.710328  -0.358360  6.530347
H    0.453338  0.004697  5.431756
H    2.088847  0.133243  4.990278
N    -2.624894  1.823077  4.685960
C    -3.793559  2.050528  3.846972
H    -2.367123  2.560415  5.337440
H    -3.513915  2.374310  2.835353
H    -4.399730  2.835468  4.309187
H    -4.417520  1.150933  3.776229
