34
Energy: -18219.1645132 eV PBE+vdW (tier 2 basis)
C    -0.314421  -0.465298  1.131881
C    -1.204720  0.298105  2.091566
O    -0.742657  1.064543  2.928194
H    0.071806  0.230754  0.374390
H    -0.794042  -1.308981  0.625460
H    0.550376  -0.827367  1.698871
N    -2.577730  0.095027  2.033585
C    -3.382958  -0.452518  0.941357
C    -3.263968  -1.991139  0.748439
O    -3.520399  -2.500972  -0.339645
H    -3.061668  0.678066  2.711857
H    -4.428013  -0.304079  1.261027
C    -3.206698  0.263786  -0.409210
C    -3.494704  1.763465  -0.330045
C    -3.261733  2.459652  -1.679106
C    -3.511592  3.954392  -1.579358
N    -3.262227  4.637608  -2.923056
H    -3.873381  -0.230030  -1.128551
H    -2.185786  0.098352  -0.783831
H    -2.852103  2.230939  0.433142
H    -4.536138  1.929103  -0.007871
H    -3.923412  2.017813  -2.442868
H    -2.224140  2.277161  -2.006322
H    -2.841350  4.444472  -0.862024
H    -4.548213  4.190812  -1.308420
H    -3.426504  5.652377  -2.878311
H    -3.878395  4.249146  -3.650491
H    -2.292250  4.488163  -3.233756
N    -2.926059  -2.678737  1.865300
C    -2.819751  -4.127026  1.901140
H    -2.704472  -2.139090  2.695438
H    -3.107706  -4.510202  0.917105
H    -3.490565  -4.547980  2.661256
H    -1.790856  -4.442201  2.121558
