34
Energy: -18220.1439347 eV PBE+vdW (tier 2 basis)
C    -0.383053  0.524197  -0.100255
C    0.095830  0.088977  1.253503
O    1.322476  -0.092026  1.473983
H    -0.408033  -0.338400  -0.781474
H    0.344534  1.233572  -0.509956
H    -1.376427  0.984042  -0.078220
N    -0.792714  -0.101474  2.248051
C    -2.177810  -0.536685  2.174816
C    -2.602760  -0.666771  3.659842
O    -1.746923  -0.857700  4.533114
H    -0.423445  -0.273483  3.190529
H    -2.800735  0.231483  1.692733
C    -2.355486  -1.893627  1.405517
C    -1.104432  -2.778972  1.296363
C    -0.502178  -3.315471  2.615091
C    1.020990  -3.455218  2.599694
N    1.729151  -2.176823  2.995147
H    -2.692836  -1.665069  0.385215
H    -3.177189  -2.454223  1.875092
H    -0.330099  -2.242467  0.730682
H    -1.366700  -3.632175  0.654831
H    -0.916742  -4.310664  2.825436
H    -0.794902  -2.698299  3.477639
H    1.397892  -3.727070  1.605299
H    1.352761  -4.225702  3.306431
H    1.469848  -1.919185  3.954786
H    1.532929  -1.282726  2.350547
H    2.746057  -2.315476  2.990558
N    -3.925286  -0.593490  3.894335
C    -4.519955  -0.755383  5.215397
H    -4.540530  -0.388565  3.114218
H    -5.050208  0.157918  5.512234
H    -3.715268  -0.950105  5.929552
H    -5.223305  -1.597442  5.221115
