34
Energy: -18219.9114937 eV PBE+vdW (tier 2 basis)
C    0.167421  0.183154  0.178788
C    0.266879  -0.508824  1.518238
O    1.326619  -0.909727  1.990181
H    -0.028747  -0.548529  -0.617573
H    -0.622541  0.943754  0.144701
H    1.133930  0.649062  -0.034315
N    -0.894157  -0.686253  2.246742
C    -2.283560  -0.579802  1.848648
C    -3.125504  -0.869307  3.093224
O    -2.795943  -1.732404  3.941348
H    -0.721504  -0.995028  3.198227
H    -2.509716  0.454068  1.535860
C    -2.721213  -1.515080  0.666234
C    -1.945464  -2.812355  0.387225
C    -1.946325  -3.952348  1.429047
C    -0.718222  -3.999740  2.357509
N    -1.083959  -3.716484  3.794034
H    -2.665246  -0.913648  -0.251367
H    -3.789849  -1.746556  0.795830
H    -0.903955  -2.581913  0.121378
H    -2.387871  -3.211061  -0.536472
H    -1.978538  -4.904033  0.884115
H    -2.873542  -3.932891  2.023044
H    -0.233974  -4.982460  2.340303
H    0.034750  -3.252013  2.081804
H    -1.587597  -4.506702  4.211373
H    -1.738929  -2.849714  3.850502
H    -0.246605  -3.550016  4.363627
N    -4.260597  -0.176397  3.219512
C    -5.207417  -0.381138  4.312134
H    -4.450944  0.557383  2.546033
H    -5.399276  -1.451164  4.446848
H    -6.143482  0.126431  4.063639
H    -4.814249  0.025484  5.252719
