34
Energy: -18219.4904251 eV PBE+vdW (tier 2 basis)
C    0.030798  -2.468306  0.521552
C    -0.123686  -2.267269  2.011215
O    0.427421  -2.978483  2.845004
H    -0.403149  -3.440117  0.252129
H    1.098649  -2.515349  0.278347
H    -0.444412  -1.687172  -0.083806
N    -0.943695  -1.222927  2.392489
C    -1.252107  -0.984088  3.790285
C    -2.767542  -0.766561  4.008074
O    -3.191549  0.318566  4.423106
H    -1.429428  -0.687070  1.681521
H    -0.917114  -1.894043  4.315121
C    -0.509550  0.223351  4.373940
C    1.013961  0.125210  4.425960
C    1.689640  1.445127  4.834483
C    1.195284  2.070884  6.136291
N    -0.149834  2.774517  5.958211
H    -0.924305  0.326466  5.393024
H    -0.825504  1.108339  3.792897
H    1.408424  -0.169017  3.443805
H    1.312072  -0.674670  5.120281
H    1.608093  2.189129  4.022807
H    2.768643  1.278781  4.964243
H    1.882903  2.837080  6.512932
H    1.041371  1.322827  6.924674
H    -0.501300  3.158682  6.844326
H    -0.071433  3.548774  5.286600
H    -0.854727  2.111765  5.583988
N    -3.592371  -1.803106  3.724495
C    -3.248976  -3.145823  3.274485
H    -4.576598  -1.583028  3.851418
H    -2.282810  -3.465371  3.680567
H    -3.206513  -3.216434  2.177998
H    -4.010473  -3.843676  3.638386
