34
Energy: -18219.7985206 eV PBE+vdW (tier 2 basis)
C    0.018565  -1.226720  0.153555
C    0.071319  -0.577269  1.521098
O    1.074658  -0.597318  2.217395
H    0.135339  -0.454991  -0.620851
H    -0.910984  -1.772559  -0.048578
H    0.865117  -1.914115  0.077672
N    -1.051530  0.097480  1.984406
C    -2.393950  0.213419  1.422681
C    -3.033826  -1.177709  1.223482
O    -3.482312  -1.572088  0.115768
H    -0.878537  0.552122  2.876430
H    -2.988895  0.698749  2.214998
C    -2.461324  1.129015  0.179220
C    -3.752415  1.954218  0.011185
C    -5.088501  1.227581  -0.218018
C    -5.337886  0.663778  -1.614298
N    -4.315990  -0.379609  -2.018117
H    -1.637381  1.845059  0.296370
H    -2.207882  0.548443  -0.718696
H    -3.592723  2.675319  -0.806699
H    -3.867675  2.572439  0.914713
H    -5.901409  1.949664  -0.051149
H    -5.247575  0.435574  0.528271
H    -6.317634  0.174056  -1.653074
H    -5.325608  1.452302  -2.377186
H    -3.526966  0.046669  -2.511946
H    -4.722057  -1.080004  -2.645724
H    -3.914315  -0.879757  -1.122067
N    -3.102152  -2.005412  2.274783
C    -2.669826  -1.795696  3.653731
H    -3.497801  -2.914573  2.046536
H    -1.584943  -1.918068  3.763452
H    -2.957835  -0.800068  4.012002
H    -3.177273  -2.534868  4.281143
