34
Energy: -18220.0934643 eV PBE+vdW (tier 2 basis)
C    0.557488  -0.967170  2.124414
C    -0.070893  -0.999425  3.488485
O    0.329361  -1.835515  4.343954
H    0.270430  -0.100294  1.521861
H    0.307520  -1.885444  1.575952
H    1.646164  -0.970019  2.259970
N    -1.048759  -0.135551  3.807738
C    -1.982475  0.567677  2.937275
C    -2.762181  1.508636  3.885501
O    -2.792704  1.253671  5.094516
H    -1.333346  -0.064910  4.792022
H    -1.432355  1.153290  2.187571
C    -2.938594  -0.414511  2.205987
C    -4.017526  -1.116809  3.053921
C    -3.575607  -1.923202  4.291218
C    -2.660926  -3.119971  4.000976
N    -1.644200  -3.313568  5.100451
H    -2.310907  -1.150421  1.680475
H    -3.454715  0.137132  1.407545
H    -4.588104  -1.771702  2.377590
H    -4.738360  -0.365955  3.408800
H    -4.479937  -2.284760  4.800705
H    -3.092821  -1.240607  5.004244
H    -2.076726  -2.987144  3.082140
H    -3.233169  -4.048762  3.895938
H    -2.060543  -3.160618  6.025134
H    -0.790740  -2.615262  4.938616
H    -1.254870  -4.262413  5.090414
N    -3.422432  2.556957  3.349600
C    -3.481478  2.995530  1.961707
H    -3.952554  3.089988  4.034650
H    -2.537325  2.794939  1.443061
H    -3.641897  4.078549  1.941435
H    -4.301370  2.514950  1.408634
