34
Energy: -18219.8316595 eV PBE+vdW (tier 2 basis)
C    -1.629790  2.247467  -0.061393
C    -1.395269  1.481710  1.218757
O    -0.302869  1.340784  1.738068
H    -0.958146  3.111234  -0.091745
H    -2.667580  2.577279  -0.193482
H    -1.366512  1.599496  -0.909572
N    -2.551805  0.935164  1.811709
C    -2.375741  -0.133646  2.808077
C    -3.717316  -0.871466  2.895951
O    -4.777635  -0.319393  2.544365
H    -3.314053  0.730725  1.162357
H    -1.613313  -0.832395  2.430589
C    -1.847083  0.363790  4.204855
C    -1.999933  1.854567  4.562377
C    -3.262153  2.297905  5.321672
C    -4.599335  1.925625  4.700010
N    -4.687585  2.350469  3.250764
H    -0.775417  0.141500  4.214008
H    -2.299969  -0.254450  4.995048
H    -1.852936  2.471288  3.663853
H    -1.147775  2.119503  5.202134
H    -3.213749  3.387015  5.476564
H    -3.265174  1.856423  6.329697
H    -5.440417  2.389898  5.228246
H    -4.763285  0.843644  4.687845
H    -5.426710  1.811820  2.778912
H    -3.805091  2.077478  2.738099
H    -4.848950  3.357950  3.148539
N    -3.705383  -2.130445  3.377518
C    -2.548748  -2.962265  3.702885
H    -4.624567  -2.563613  3.409048
H    -2.914788  -3.947158  4.006235
H    -1.964828  -2.549602  4.534916
H    -1.889461  -3.098624  2.835008
