34
Energy: -18220.1249539 eV PBE+vdW (tier 2 basis)
C    -0.276447  1.237664  1.409062
C    0.148648  0.159220  2.383752
O    1.096209  0.274939  3.140298
H    -1.341409  1.492432  1.501537
H    -0.093145  0.920980  0.371523
H    0.324057  2.128879  1.607209
N    -0.611868  -1.013512  2.406465
C    -1.652450  -1.408826  1.475904
C    -3.022656  -0.800125  1.817531
O    -3.939184  -0.718792  0.956820
H    -0.187265  -1.742133  2.976695
H    -1.409703  -1.038919  0.465310
C    -1.721780  -2.955769  1.442709
C    -2.746650  -3.592644  0.498503
C    -2.477850  -3.386730  -1.013797
C    -3.666035  -2.847543  -1.802225
N    -3.888776  -1.380053  -1.532110
H    -1.923181  -3.306664  2.466841
H    -0.711904  -3.309804  1.183913
H    -3.755975  -3.242058  0.757945
H    -2.756526  -4.669687  0.710029
H    -2.200172  -4.343548  -1.474912
H    -1.605773  -2.732602  -1.180395
H    -4.592877  -3.364149  -1.522626
H    -3.524416  -2.969050  -2.883221
H    -4.791122  -1.065755  -1.904507
H    -3.165022  -0.818932  -1.993509
H    -3.859209  -1.128671  -0.439294
N    -3.200559  -0.381880  3.066248
C    -4.445490  0.192143  3.562252
H    -2.387761  -0.442335  3.675871
H    -4.803055  0.969418  2.876930
H    -4.260999  0.632341  4.545766
H    -5.222691  -0.577616  3.651685
