34
Energy: -18218.415031 eV PBE+vdW (tier 2 basis)
C    0.129767  -0.390782  0.630940
C    -0.037650  -0.216166  2.126863
O    0.918801  -0.228528  2.888920
H    1.200902  -0.426695  0.417188
H    -0.327578  -1.330913  0.293525
H    -0.314905  0.439255  0.065103
N    -1.311121  -0.033431  2.636016
C    -2.627366  -0.062253  2.003260
C    -2.936826  -1.459257  1.379535
O    -3.033724  -2.398277  2.159251
H    -1.307383  -0.067562  3.651269
H    -3.321087  -0.082725  2.856731
C    -2.957807  1.242386  1.244904
C    -4.466351  1.440406  1.050517
C    -4.866826  2.842265  0.558358
C    -4.363513  3.142202  -0.845091
N    -4.802187  4.538441  -1.279597
H    -2.412580  1.300758  0.293412
H    -2.565327  2.058363  1.871766
H    -4.970752  1.285991  2.015765
H    -4.887825  0.679251  0.376103
H    -4.472197  3.597351  1.259254
H    -5.965902  2.926665  0.575453
H    -4.769157  2.449204  -1.593014
H    -3.269482  3.136326  -0.916614
H    -4.483478  4.767292  -2.230865
H    -4.427090  5.253830  -0.641051
H    -5.828239  4.622595  -1.261222
N    -3.146935  -1.669636  0.036390
C    -2.947635  -0.853995  -1.149339
H    -3.370343  -2.648081  -0.128112
H    -3.755569  -0.119635  -1.305127
H    -1.984176  -0.331909  -1.145198
H    -2.948884  -1.519875  -2.018756
