34
Energy: -18219.7566082 eV PBE+vdW (tier 2 basis)
C    -0.503969  -0.557668  0.798916
C    -0.870863  0.016629  2.139877
O    0.015150  0.219314  3.008838
H    0.549341  -0.847965  0.829802
H    -0.672594  0.159145  -0.016547
H    -1.115132  -1.438573  0.566665
N    -2.165539  0.284567  2.463448
C    -3.257709  0.833471  1.632285
C    -3.272614  0.271027  0.190613
O    -2.815828  0.908761  -0.756373
H    -2.237352  0.558440  3.443387
H    -4.192051  0.517593  2.119827
C    -3.230509  2.384638  1.619193
C    -1.838134  3.032860  1.472151
C    -1.194740  3.382348  2.826961
C    0.289760  3.725132  2.806947
N    1.142802  2.538455  2.395423
H    -3.702193  2.745461  2.545876
H    -3.878769  2.708706  0.795958
H    -1.933437  3.950787  0.876055
H    -1.198888  2.371476  0.867546
H    -1.340737  2.572525  3.556285
H    -1.709651  4.255710  3.254504
H    0.628471  4.012681  3.808903
H    0.523782  4.546620  2.117812
H    2.108692  2.642174  2.723086
H    1.179331  2.448917  1.374264
H    0.747208  1.598716  2.760606
N    -3.832055  -0.954884  0.062485
C    -3.932501  -1.624450  -1.228513
H    -4.211317  -1.414347  0.881962
H    -4.547808  -2.521378  -1.114392
H    -2.941253  -1.913208  -1.603912
H    -4.394442  -0.957894  -1.966481
