34
Energy: -18219.2850669 eV PBE+vdW (tier 2 basis)
C    1.552745  2.156860  2.319206
C    0.958779  0.924322  2.969090
O    1.490539  0.408478  3.962374
H    1.513617  2.983470  3.040836
H    1.047091  2.469044  1.398159
H    2.610704  1.969560  2.100478
N    -0.185156  0.462004  2.388301
C    -1.061860  -0.660768  2.747984
C    -2.443965  -0.264167  3.338893
O    -3.427573  -0.878735  2.934594
H    -0.507395  0.990620  1.584956
H    -1.358292  -1.121474  1.794161
C    -0.425721  -1.765143  3.606716
C    0.709338  -2.519323  2.897618
C    1.630511  -3.269818  3.876572
C    2.612726  -2.311701  4.533772
N    3.373278  -3.001936  5.664106
H    -1.236034  -2.471105  3.839767
H    -0.083190  -1.339553  4.557054
H    1.316221  -1.828806  2.293499
H    0.281354  -3.245269  2.193223
H    2.182633  -4.061114  3.345444
H    1.012631  -3.768981  4.643323
H    2.128489  -1.426201  4.962547
H    3.375305  -1.955541  3.830841
H    4.055912  -2.368583  6.100644
H    3.880777  -3.829743  5.323102
H    2.725671  -3.320399  6.397223
N    -2.546818  0.706773  4.288219
C    -1.526154  1.497280  4.958356
H    -3.513124  0.870007  4.558077
H    -1.264662  2.407717  4.397349
H    -0.610553  0.920510  5.128538
H    -1.913147  1.802689  5.936986
