34
Energy: -18219.1623056 eV PBE+vdW (tier 2 basis)
C    -0.988510  -0.130892  -0.110793
C    -0.917462  0.260305  1.337840
O    -0.009257  0.945802  1.817367
H    -0.713426  0.729741  -0.730063
H    -0.243769  -0.917167  -0.297279
H    -1.973797  -0.504076  -0.411826
N    -1.934099  -0.159504  2.160280
C    -1.789461  0.005171  3.601401
C    -1.189524  1.383575  3.871218
O    -0.192894  1.583287  4.694806
H    -2.643182  -0.798521  1.816022
H    -2.808866  0.073600  4.016568
C    -1.117316  -1.192163  4.323440
C    0.173562  -1.801289  3.747516
C    1.497977  -1.062995  3.989829
C    1.908001  -0.896439  5.470646
N    2.122407  -2.100482  6.258711
H    -1.884926  -1.979680  4.322199
H    -1.005299  -0.933058  5.389839
H    0.045836  -1.968643  2.667904
H    0.253721  -2.811634  4.176953
H    2.295033  -1.629797  3.485265
H    1.494860  -0.083569  3.481173
H    2.832067  -0.301973  5.506611
H    1.167123  -0.291554  6.037505
H    1.309204  -2.713972  6.278848
H    0.290689  0.751758  4.893307
H    2.911860  -2.642211  5.908320
N    -1.836784  2.462258  3.489553
C    -1.358535  3.829628  3.705949
H    -2.623824  2.320113  2.863565
H    -1.187481  4.005148  4.773220
H    -2.123464  4.520818  3.344145
H    -0.422722  3.993145  3.156455
