34
Energy: -18218.6567715 eV PBE+vdW (tier 2 basis)
C    0.454861  -1.638460  0.465625
C    0.505857  -0.794229  1.679682
O    1.651028  -0.170143  1.878962
H    1.465175  -1.792765  0.078399
H    -0.152141  -1.136717  -0.304375
H    -0.031932  -2.601248  0.666766
N    -0.511811  -0.650603  2.495053
C    -1.828927  -1.313832  2.349107
C    -2.632471  -0.860917  1.098311
O    -3.140258  -1.738493  0.413118
H    -0.403755  -0.046624  3.311649
H    -1.630737  -2.374051  2.149754
C    -2.634094  -1.203068  3.650793
C    -1.954878  -1.817767  4.884791
C    -1.611128  -3.303786  4.763898
C    -1.069655  -3.924632  6.069594
N    0.200016  -3.429382  6.583558
H    -3.585309  -1.717940  3.453876
H    -2.896193  -0.151553  3.846988
H    -2.637810  -1.670705  5.735796
H    -1.046136  -1.246449  5.150550
H    -0.861874  -3.469310  3.969125
H    -2.512236  -3.861721  4.458688
H    -0.968649  -5.008916  5.917865
H    -1.822656  -3.801196  6.863654
H    1.667584  0.391902  2.678709
H    0.170830  -2.456127  6.879043
H    0.972474  -3.559265  5.932467
N    -2.756524  0.463846  0.807775
C    -2.289793  1.639836  1.527809
H    -3.315554  0.623131  -0.026914
H    -1.241271  1.888056  1.300744
H    -2.412243  1.533048  2.612736
H    -2.902539  2.495480  1.226083
