34
Energy: -18219.6479171 eV PBE+vdW (tier 2 basis)
C    -1.172389  -0.332147  0.278404
C    -0.817238  -0.123409  1.730546
O    0.350950  -0.149881  2.132335
H    -0.818967  -1.324250  -0.030380
H    -2.246298  -0.257716  0.070761
H    -0.635751  0.404445  -0.331911
N    -1.874333  0.076575  2.585580
C    -1.674096  0.342792  4.002120
C    -2.487126  -0.552428  4.965213
O    -2.476015  -0.296580  6.167230
H    -2.786563  0.259524  2.178581
H    -0.633203  0.036967  4.174480
C    -1.865125  1.827829  4.367015
C    -0.845101  2.791976  3.747128
C    0.513258  2.913374  4.468375
C    1.287299  1.605219  4.571906
N    2.735091  1.877469  4.973998
H    -1.868066  1.899986  5.463736
H    -2.874228  2.129305  4.046039
H    -1.279090  3.801198  3.740532
H    -0.669314  2.537584  2.690882
H    0.358255  3.332126  5.476160
H    1.118882  3.646187  3.907549
H    1.317677  1.049767  3.622038
H    0.891726  0.942738  5.351168
H    3.270399  1.003880  5.063740
H    2.787443  2.375995  5.872937
H    3.204043  2.462432  4.269410
N    -3.139636  -1.601340  4.407457
C    -3.874964  -2.577499  5.196757
H    -2.998838  -1.772053  3.418111
H    -3.339230  -3.535463  5.247050
H    -3.981409  -2.179100  6.210405
H    -4.869463  -2.745942  4.766225
