34
Energy: -18219.585402 eV PBE+vdW (tier 2 basis)
C    -0.497330  0.047513  0.032012
C    -0.294122  -0.235786  1.506993
O    0.802292  -0.514651  1.967525
H    -1.399679  0.614714  -0.222513
H    0.382665  0.590145  -0.327695
H    -0.532614  -0.909216  -0.508446
N    -1.400420  -0.244491  2.348373
C    -2.775245  0.158931  2.084580
C    -3.411430  -0.614353  0.912417
O    -4.199463  -0.052281  0.106993
H    -1.140638  -0.421649  3.315034
H    -3.344674  -0.179652  2.969077
C    -2.860342  1.709584  2.018172
C    -4.164692  2.484505  1.769348
C    -5.374129  2.234631  2.686949
C    -6.190539  0.965815  2.441147
N    -6.491030  0.791809  0.973253
H    -2.141967  2.042790  1.257058
H    -2.437236  2.041358  2.978286
H    -4.451698  2.393656  0.712838
H    -3.900665  3.544914  1.891738
H    -6.055304  3.095529  2.597153
H    -5.062973  2.220083  3.742487
H    -5.663256  0.052651  2.742792
H    -7.141029  0.998976  2.986720
H    -7.186722  0.056758  0.811308
H    -5.556903  0.500769  0.490310
H    -6.847747  1.658556  0.555555
N    -3.162680  -1.925149  0.758496
C    -2.391941  -2.868491  1.569230
H    -3.623772  -2.306853  -0.064661
H    -2.552136  -2.698837  2.638468
H    -2.747027  -3.875535  1.326600
H    -1.316882  -2.813790  1.359864
