34
Energy: -18219.3705971 eV PBE+vdW (tier 2 basis)
C    -0.492768  0.835264  -0.331842
C    -0.364385  0.707850  1.169270
O    0.511593  1.305838  1.802380
H    0.471603  0.581332  -0.788354
H    -1.275191  0.206782  -0.772528
H    -0.697530  1.885028  -0.577844
N    -1.290689  -0.097135  1.775647
C    -1.434496  -0.425616  3.196732
C    -1.608436  0.700498  4.258483
O    -2.068112  0.355063  5.349106
H    -2.019045  -0.466580  1.175877
H    -2.402170  -0.941139  3.256015
C    -0.390240  -1.428908  3.750745
C    1.045236  -0.901189  3.916759
C    1.901306  -1.643465  4.954124
C    2.114647  -3.132115  4.716279
N    0.860532  -3.927645  5.072054
H    -0.414143  -2.317751  3.090526
H    -0.810016  -1.695973  4.738075
H    1.005555  0.151014  4.225686
H    1.560544  -0.895589  2.946599
H    1.495524  -1.490421  5.969506
H    2.903685  -1.191541  4.973311
H    2.917997  -3.545752  5.337095
H    2.329958  -3.360783  3.664475
H    0.959794  -4.928435  4.860523
H    0.052496  -3.549454  4.548321
H    0.642098  -3.831591  6.072646
N    -1.256934  1.957728  3.929428
C    -1.394540  3.055203  4.875694
H    -0.645098  2.069367  3.117018
H    -2.313158  2.920130  5.455461
H    -0.549372  3.098791  5.578774
H    -1.446645  3.999081  4.323403
