34
Energy: -18220.2612037 eV PBE+vdW (tier 2 basis)
C    0.787796  -0.650398  0.572363
C    0.502033  -0.437836  2.033837
O    1.428507  -0.472893  2.887684
H    1.519048  0.094055  0.231068
H    -0.105460  -0.592153  -0.058147
H    1.252716  -1.636964  0.447789
N    -0.770014  -0.208552  2.377207
C    -1.304821  -0.170626  3.734008
C    -2.734310  -0.748652  3.585902
O    -3.302096  -0.670140  2.494542
H    -1.524377  -0.280063  1.683355
H    -0.674035  -0.809109  4.369649
C    -1.394701  1.245715  4.354880
C    -0.050086  1.863927  4.772130
C    0.695556  2.580937  3.632525
C    2.198002  2.728844  3.841213
N    2.871822  1.375431  3.965975
H    -2.035846  1.173070  5.244009
H    -1.929214  1.904023  3.653525
H    0.565334  1.059161  5.206007
H    -0.221863  2.580952  5.587716
H    0.286661  3.593665  3.505505
H    0.521378  2.074824  2.674218
H    2.441233  3.303989  4.743446
H    2.659497  3.233633  2.984792
H    3.838580  1.403802  3.629355
H    2.314153  0.604400  3.419924
H    2.901618  1.063898  4.941438
N    -3.319488  -1.285088  4.681107
C    -2.720950  -1.553833  5.982073
H    -4.268734  -1.608241  4.516583
H    -3.450830  -2.100136  6.586607
H    -2.466005  -0.631993  6.523718
H    -1.822451  -2.180855  5.898555
