34
Energy: -18220.0816967 eV PBE+vdW (tier 2 basis)
C    -1.344793  -0.616542  -0.005464
C    -1.001170  -0.887617  1.436631
O    -0.385074  -1.929124  1.740836
H    -0.419140  -0.327488  -0.522473
H    -2.081505  0.183056  -0.141029
H    -1.713641  -1.535991  -0.472644
N    -1.417424  0.042927  2.323823
C    -1.019449  0.251122  3.716573
C    0.336687  1.014439  3.734888
O    1.112522  0.930456  2.788660
H    -1.849111  0.855815  1.896953
H    -1.799872  0.907349  4.125051
C    -0.992507  -1.031074  4.591643
C    0.396680  -1.650685  4.807291
C    0.379666  -3.102274  5.307264
C    -0.199263  -4.127655  4.336129
N    0.464460  -4.033341  2.985527
H    -1.688249  -1.746957  4.134350
H    -1.426782  -0.783128  5.570160
H    0.952118  -1.054310  5.544826
H    0.983951  -1.570992  3.881042
H    -0.201250  -3.185165  6.238496
H    1.406023  -3.402684  5.571550
H    -1.269452  -3.972407  4.152464
H    -0.063932  -5.148047  4.713602
H    1.487210  -4.052711  3.068131
H    0.187899  -4.810001  2.376043
H    0.168929  -3.115549  2.496634
N    0.610320  1.756139  4.842496
C    -0.180413  1.921667  6.052986
H    1.525472  2.197481  4.811516
H    -0.081416  1.070278  6.744019
H    -1.243474  2.067435  5.823439
H    0.163360  2.820552  6.574640
