34
Energy: -18219.4803083 eV PBE+vdW (tier 2 basis)
C    0.868092  0.428748  0.980695
C    -0.423508  -0.317130  1.167471
O    -0.925414  -1.058021  0.326304
H    0.954269  0.743298  -0.064199
H    1.702095  -0.256700  1.188893
H    0.962944  1.298832  1.640670
N    -1.094004  -0.133374  2.370576
C    -2.158337  -1.083353  2.688345
C    -3.187365  -0.955533  1.584444
O    -3.537145  0.254112  1.190034
H    -0.621034  0.318051  3.148064
H    -1.780044  -2.116151  2.697997
C    -2.794684  -0.740150  4.060143
C    -3.605947  -1.880820  4.698967
C    -2.808313  -2.784341  5.655437
C    -1.551185  -3.455529  5.098792
N    -1.840815  -4.265813  3.900412
H    -3.414791  0.161929  3.953814
H    -1.970592  -0.459662  4.735416
H    -4.091562  -2.487449  3.920940
H    -4.430224  -1.435588  5.271977
H    -3.488657  -3.560969  6.039701
H    -2.509392  -2.195570  6.536726
H    -1.086648  -4.039156  5.912305
H    -0.804405  -2.696225  4.813829
H    -2.892819  0.895734  1.560591
H    -2.474089  -5.028768  4.152097
H    -0.985674  -4.720965  3.576046
N    -3.878937  -1.934270  1.065927
C    -3.642949  -3.371167  1.196904
H    -4.558491  -1.642977  0.361578
H    -3.030692  -3.593843  2.081370
H    -3.130950  -3.729635  0.294316
H    -4.611021  -3.875292  1.289316
