34
Energy: -18219.2119675 eV PBE+vdW (tier 2 basis)
C    -0.620793  0.375560  -0.410757
C    -0.058400  0.345684  0.998435
O    1.144598  0.373230  1.231861
H    -1.044815  -0.597960  -0.701230
H    0.197190  0.611140  -1.096305
H    -1.421285  1.118900  -0.520774
N    -0.974892  0.318564  2.035986
C    -2.363328  -0.118656  1.958303
C    -3.433894  1.000092  1.927776
O    -4.614166  0.687933  1.792444
H    -0.526874  0.313669  2.950272
H    -2.505034  -0.636252  0.997977
C    -2.702150  -1.098593  3.097127
C    -1.751595  -2.296374  3.229028
C    -1.585319  -3.117524  1.940522
C    -0.652858  -4.292978  2.176985
N    -0.389446  -5.052318  0.878360
H    -3.736698  -1.430369  2.939212
H    -2.701231  -0.553817  4.054041
H    -2.129024  -2.947655  4.032018
H    -0.755226  -1.956810  3.553234
H    -1.164388  -2.477650  1.147825
H    -2.567978  -3.473646  1.589356
H    -1.066722  -5.026964  2.879554
H    0.331312  -3.972586  2.541583
H    0.051467  -4.437114  0.180365
H    0.231853  -5.859843  1.022454
H    -1.268601  -5.399035  0.470303
N    -2.965449  2.264426  2.046215
C    -3.830944  3.432219  2.029919
H    -1.962301  2.382473  2.142978
H    -3.781862  3.971687  2.984963
H    -4.856926  3.086826  1.867086
H    -3.547502  4.116219  1.219536
