34
Energy: -18219.1742884 eV PBE+vdW (tier 2 basis)
C    -0.266967  0.651463  -0.108800
C    -0.246159  0.041370  1.276933
O    0.805612  -0.295781  1.803523
H    0.572521  1.350777  -0.182827
H    -1.195222  1.151334  -0.397511
H    -0.081674  -0.152130  -0.834772
N    -1.438214  -0.208131  1.942040
C    -2.811414  0.229438  1.723050
C    -3.294272  0.183960  0.258240
O    -3.805907  1.176937  -0.277994
H    -1.257087  -0.657282  2.837534
H    -3.434806  -0.530331  2.226996
C    -3.154444  1.563552  2.436250
C    -2.214859  2.767576  2.245603
C    -2.289015  3.583476  0.942134
C    -3.671446  4.055144  0.528312
N    -4.323428  4.894952  1.626041
H    -3.152688  1.335225  3.512131
H    -4.198603  1.808094  2.183104
H    -1.174462  2.434077  2.369845
H    -2.368459  3.444489  3.105563
H    -1.933580  2.989061  0.092228
H    -1.601954  4.441954  1.019642
H    -4.333275  3.201138  0.338534
H    -3.641624  4.693414  -0.362271
H    -3.762693  5.729961  1.842087
H    -4.405194  4.346646  2.492846
H    -5.265297  5.204918  1.356510
N    -3.198542  -0.995585  -0.397006
C    -2.694051  -2.280329  0.072780
H    -3.547283  -0.949056  -1.350534
H    -3.005430  -2.477056  1.105390
H    -1.598929  -2.343804  0.020987
H    -3.120682  -3.066466  -0.558596
