34
Energy: -18219.3370848 eV PBE+vdW (tier 2 basis)
C    0.076049  -0.165976  0.741979
C    -0.234741  -0.264160  2.207237
O    0.603190  -0.261467  3.098958
H    1.159524  -0.102264  0.616484
H    -0.303867  -1.037044  0.188993
H    -0.401416  0.718373  0.296217
N    -1.586346  -0.443514  2.596366
C    -2.769377  -0.334096  1.726002
C    -3.133141  1.086563  1.220757
O    -3.390149  1.215728  0.028559
H    -1.712723  -0.049979  3.530349
H    -2.532370  -0.858102  0.791608
C    -3.966559  -1.060408  2.366789
C    -3.778007  -2.596212  2.444697
C    -3.682449  -3.236977  3.841708
C    -2.552893  -2.775158  4.759557
N    -1.214498  -2.822972  4.060948
H    -4.846693  -0.830567  1.753299
H    -4.182643  -0.636085  3.360620
H    -2.903206  -2.885057  1.837703
H    -4.623803  -3.082920  1.942590
H    -3.613748  -4.329638  3.719645
H    -4.616772  -3.063958  4.396407
H    -2.677536  -1.733857  5.083596
H    -2.489719  -3.399843  5.657741
H    -1.240815  -2.070685  3.305880
H    -0.432967  -2.588334  4.685405
H    -1.030327  -3.742390  3.643312
N    -3.176487  2.140135  2.085764
C    -2.942516  2.195699  3.520010
H    -3.413966  3.011845  1.619612
H    -1.871957  2.187015  3.779976
H    -3.459538  1.384773  4.052344
H    -3.362377  3.131684  3.902570
