34
Energy: -18220.2560963 eV PBE+vdW (tier 2 basis)
C    -1.700951  -0.003093  -0.043931
C    -0.987747  0.358030  1.237151
O    0.212327  0.592128  1.309209
H    -1.234479  0.534884  -0.875296
H    -2.776359  0.211622  -0.021709
H    -1.568625  -1.078336  -0.231089
N    -1.782471  0.421916  2.374295
C    -1.175878  0.519093  3.699376
C    -0.552452  1.903648  3.954004
O    0.247253  2.092769  4.904800
H    -2.741714  0.098133  2.315642
H    -2.020943  0.477078  4.407111
C    -0.203446  -0.647599  4.026385
C    -0.652105  -1.551373  5.182188
C    -0.545292  -0.982352  6.606435
C    0.886890  -0.655906  7.051303
N    1.204155  0.808737  6.898152
H    0.808349  -0.252898  4.190629
H    -0.113890  -1.262213  3.124105
H    -0.058548  -2.477882  5.143653
H    -1.693516  -1.867515  5.013496
H    -0.953716  -1.725147  7.304400
H    -1.182108  -0.090475  6.731761
H    1.622612  -1.204301  6.449835
H    1.056816  -0.919047  8.101438
H    2.214683  0.980252  6.916520
H    0.795945  1.347181  7.669472
H    0.784133  1.249373  5.965799
N    -0.966062  2.906349  3.183839
C    -0.481625  4.274459  3.286925
H    -1.564957  2.651083  2.404081
H    0.346905  4.447970  2.586751
H    -0.128280  4.454267  4.305996
H    -1.297906  4.967164  3.056277
