34
Energy: -18218.9925329 eV PBE+vdW (tier 2 basis)
C    -0.306540  -0.070664  -0.797255
C    0.173516  0.308899  0.584959
O    1.347029  0.603238  0.803186
H    0.457961  0.240270  -1.513968
H    -1.275614  0.359435  -1.073224
H    -0.412694  -1.162859  -0.860012
N    -0.708451  0.273539  1.653432
C    -2.164279  0.410514  1.724830
C    -2.935605  -0.416192  0.669338
O    -3.669936  0.132367  -0.153654
H    -0.215346  0.472985  2.521903
H    -2.447137  -0.024947  2.698067
C    -2.658848  1.874769  1.760636
C    -2.296172  2.769547  0.560290
C    -0.916492  3.452419  0.591967
C    -0.764108  4.553306  1.628653
N    -1.699314  5.718239  1.307091
H    -2.294923  2.317913  2.703277
H    -3.752743  1.836021  1.847159
H    -3.096032  3.526966  0.446120
H    -2.385283  2.184341  -0.362228
H    -0.676850  3.861456  -0.403772
H    -0.116093  2.729617  0.800784
H    0.248809  4.971442  1.652747
H    -1.033825  4.226621  2.640764
H    -1.694515  6.440149  2.038323
H    -2.663181  5.368985  1.199750
H    -1.435218  6.162275  0.417253
N    -2.793900  -1.765591  0.722717
C    -1.996459  -2.569225  1.638342
H    -3.324048  -2.250359  0.003907
H    -2.080007  -2.201361  2.668967
H    -0.932443  -2.588765  1.362953
H    -2.380616  -3.594184  1.622856
