34
Energy: -18219.6588735 eV PBE+vdW (tier 2 basis)
C    -0.252009  0.866042  -0.094590
C    -0.151629  0.859565  1.415397
O    0.842520  1.316247  2.005500
H    0.050958  1.847479  -0.477485
H    -1.250821  0.616743  -0.470534
H    0.461738  0.131331  -0.491224
N    -1.212680  0.321174  2.064444
C    -1.320708  0.073093  3.491469
C    -2.732039  -0.534042  3.686565
O    -3.590784  -0.408108  2.812310
H    -2.055128  0.048758  1.553794
H    -0.562332  -0.670688  3.790266
C    -1.100063  1.327983  4.369506
C    -1.972470  2.543512  4.007926
C    -1.202261  3.870320  4.146660
C    -0.237825  4.036577  2.979413
N    0.795559  5.123893  3.254878
H    -0.034816  1.576799  4.277929
H    -1.263275  1.050747  5.420631
H    -2.864141  2.582041  4.645715
H    -2.349467  2.449558  2.977849
H    -0.646188  3.862731  5.100444
H    -1.899801  4.720803  4.189253
H    -0.755524  4.339955  2.060735
H    0.335999  3.119647  2.763400
H    1.443254  5.230358  2.462905
H    1.355858  4.883570  4.083545
H    0.355135  6.036488  3.433314
N    -2.934488  -1.165153  4.866363
C    -4.201656  -1.784669  5.227869
H    -2.143493  -1.292956  5.487563
H    -4.547331  -1.416716  6.201995
H    -4.107336  -2.877813  5.270199
H    -4.935665  -1.522333  4.460388
