34
Energy: -18220.2252797 eV PBE+vdW (tier 2 basis)
C    -1.106499  2.095028  0.030846
C    -1.003086  1.631125  1.461674
O    0.078322  1.334587  1.984359
H    -0.823210  1.260294  -0.624442
H    -0.379010  2.897726  -0.136833
H    -2.106011  2.443100  -0.254088
N    -2.177587  1.559936  2.161341
C    -2.371503  0.950264  3.477587
C    -1.666212  1.579100  4.687794
O    -2.198903  1.408405  5.822862
H    -3.017785  1.870696  1.688186
H    -3.428770  1.141098  3.701063
C    -2.139710  -0.593663  3.493316
C    -3.437918  -1.417701  3.496884
C    -4.443912  -1.147917  4.629096
C    -4.098620  -1.629190  6.035770
N    -2.923125  -0.908925  6.663712
H    -1.496310  -0.860234  4.344766
H    -1.544486  -0.857621  2.610867
H    -3.177651  -2.487651  3.486076
H    -3.962864  -1.236849  2.546276
H    -5.383918  -1.659240  4.374106
H    -4.708953  -0.079975  4.679505
H    -3.875806  -2.703802  6.053986
H    -4.954554  -1.456300  6.698197
H    -2.738284  0.115600  6.259577
H    -2.051529  -1.423674  6.507099
H    -3.039245  -0.833100  7.678933
N    -0.534268  2.243281  4.509721
C    0.223077  2.859296  5.589924
H    -0.100452  2.127375  3.578118
H    0.599461  3.833135  5.258001
H    1.077982  2.230154  5.873907
H    -0.427164  2.995083  6.458341
