34
Energy: -18219.1027959 eV PBE+vdW (tier 2 basis)
C    0.162702  -0.901223  0.400109
C    0.129775  -0.269010  1.779884
O    1.135168  -0.122866  2.460217
H    -0.111648  -0.178717  -0.382025
H    -0.517113  -1.760923  0.318660
H    1.185262  -1.239363  0.214789
N    -1.095939  0.161814  2.253467
C    -2.404883  0.029731  1.634918
C    -3.217584  1.325707  1.888274
O    -4.230444  1.313661  2.593413
H    -1.053735  0.539111  3.197898
H    -2.251367  -0.071884  0.549125
C    -3.154654  -1.204545  2.164499
C    -4.504149  -1.478878  1.490161
C    -5.226885  -2.676456  2.123536
C    -6.708690  -2.747996  1.794207
N    -6.923281  -2.816615  0.283190
H    -3.325729  -1.060330  3.241086
H    -2.488237  -2.073191  2.054972
H    -4.335736  -1.648929  0.409383
H    -5.122436  -0.573807  1.599726
H    -5.170824  -2.598479  3.219851
H    -4.732720  -3.627952  1.867261
H    -7.244350  -1.849795  2.126894
H    -7.200769  -3.633521  2.213540
H    -6.494191  -3.664521  -0.111454
H    -7.920619  -2.817895  0.034055
H    -6.477725  -2.005810  -0.169683
N    -2.760961  2.467304  1.310924
C    -1.567855  2.669091  0.499959
H    -3.295085  3.289932  1.576827
H    -1.656025  3.635177  -0.007330
H    -1.480243  1.898346  -0.276563
H    -0.647547  2.668421  1.099711
