34
Energy: -18219.6111451 eV PBE+vdW (tier 2 basis)
C    -0.213009  -0.359413  -0.396601
C    0.001020  0.178841  0.985381
O    1.068225  0.789795  1.269713
H    0.588834  0.008531  -1.041316
H    -1.187676  -0.070535  -0.812533
H    -0.205986  -1.457177  -0.368084
N    -0.926071  0.024101  1.958528
C    -2.380501  -0.190186  1.921199
C    -2.788063  -1.270834  0.885121
O    -2.128935  -2.299762  0.802156
H    -0.568457  0.303371  2.869730
H    -2.608885  -0.703871  2.869687
C    -3.140855  1.158063  1.991821
C    -3.002401  2.220996  0.881578
C    -1.625120  2.872235  0.622749
C    -0.898522  3.408977  1.862513
N    0.597194  3.314226  1.685688
H    -2.881044  1.611871  2.962367
H    -4.212478  0.929961  2.106133
H    -3.722532  3.016240  1.125727
H    -3.337528  1.812356  -0.083110
H    -1.772561  3.696301  -0.090055
H    -0.973544  2.159038  0.105033
H    -1.123243  2.821402  2.759443
H    -1.158231  4.452639  2.075206
H    1.100110  3.708483  2.488069
H    0.909117  3.820833  0.849448
H    0.880930  2.252732  1.571653
N    -3.911117  -1.025495  0.160814
C    -4.494217  -2.021386  -0.729746
H    -4.439939  -0.181331  0.339779
H    -3.770230  -2.832957  -0.847098
H    -4.707584  -1.577561  -1.709644
H    -5.422838  -2.431793  -0.311176
