34
Energy: -18219.969255 eV PBE+vdW (tier 2 basis)
C    -0.913381  -0.033041  0.361311
C    -0.198906  -0.457535  1.623572
O    0.839185  -1.112788  1.615734
H    -0.248599  0.622739  -0.216106
H    -1.863094  0.486740  0.534234
H    -1.096843  -0.922836  -0.252832
N    -0.767040  -0.024294  2.803231
C    -0.352865  -0.455517  4.130598
C    0.860848  0.211043  4.799240
O    1.055550  -0.086909  6.013691
H    -1.628179  0.504952  2.742666
H    -1.167368  -0.113239  4.790035
C    -0.253049  -2.002169  4.265406
C    -1.557041  -2.673529  4.702843
C    -2.023807  -2.396008  6.142520
C    -1.013629  -2.761589  7.237612
N    -0.200742  -1.575215  7.691030
H    0.067397  -2.399476  3.296850
H    0.563462  -2.253442  4.955450
H    -1.436333  -3.760951  4.583666
H    -2.369494  -2.393940  4.014472
H    -2.938657  -2.975716  6.324207
H    -2.331737  -1.343673  6.268983
H    -1.515254  -3.163667  8.125581
H    -0.299838  -3.518617  6.888933
H    0.287875  -0.992664  6.867411
H    0.541413  -1.865573  8.337144
H    -0.794225  -0.914087  8.203655
N    1.674028  1.108515  4.241076
C    1.786004  1.640685  2.881992
H    2.376620  1.429512  4.904325
H    1.972165  0.837535  2.161413
H    0.890108  2.202376  2.596420
H    2.638053  2.326188  2.874444
