34
Energy: -18220.0735395 eV PBE+vdW (tier 2 basis)
C    -1.380130  4.080530  0.493874
C    -0.961710  3.339816  1.740990
O    0.224507  3.421282  2.123068
H    -0.799078  3.693753  -0.353243
H    -2.447062  3.995248  0.259706
H    -1.120236  5.140304  0.606090
N    -1.942733  2.642609  2.362407
C    -1.936774  1.689359  3.489983
C    -3.157575  1.872329  4.430024
O    -3.440450  0.959206  5.195315
H    -2.817353  2.629132  1.844764
H    -2.077516  0.685426  3.060358
C    -0.665802  1.643000  4.348498
C    -0.423934  2.880351  5.227860
C    0.973762  2.921635  5.872279
C    2.041790  3.649189  5.064249
N    2.260266  3.032265  3.703269
H    0.184746  1.407399  3.696727
H    -0.798560  0.768566  5.001204
H    -1.177283  2.880990  6.026993
H    -0.588647  3.808412  4.658198
H    1.314675  1.902177  6.117374
H    0.924808  3.450022  6.834875
H    3.006559  3.650176  5.586302
H    1.752033  4.690785  4.874590
H    3.005300  3.518404  3.192113
H    1.364016  3.098601  3.099543
H    2.534933  2.047187  3.784621
N    -3.825988  3.052872  4.352090
C    -4.963976  3.360407  5.207191
H    -3.446969  3.784109  3.761336
H    -5.293965  2.428062  5.675562
H    -4.690411  4.073763  5.996857
H    -5.784569  3.780206  4.613441
