34
Energy: -18219.89314 eV PBE+vdW (tier 2 basis)
C    -1.161334  -1.868201  1.196208
C    -0.793879  -0.689348  0.341285
O    0.296348  -0.659629  -0.282189
H    -0.878487  -1.679501  2.242436
H    -0.593631  -2.736494  0.849236
H    -2.234132  -2.091071  1.175648
N    -1.658927  0.349076  0.234423
C    -2.611334  0.811770  1.256208
C    -3.727015  1.685322  0.625581
O    -4.205574  2.622710  1.252586
H    -1.348060  1.060381  -0.423835
H    -3.119322  -0.078366  1.659572
C    -1.919185  1.520743  2.438904
C    -1.174535  2.843313  2.177586
C    0.026518  2.841792  1.210537
C    1.163808  1.892033  1.605069
N    1.857666  1.325183  0.389190
H    -1.258144  0.785455  2.925312
H    -2.705776  1.740026  3.172651
H    -0.832398  3.217843  3.154394
H    -1.896778  3.586429  1.815190
H    0.420845  3.866083  1.147782
H    -0.311153  2.606598  0.189769
H    1.914083  2.394999  2.225495
H    0.799248  1.021009  2.162435
H    1.212051  0.561136  -0.057258
H    2.072014  2.055805  -0.298511
H    2.741339  0.866644  0.638496
N    -4.117221  1.316004  -0.623547
C    -5.219767  1.966443  -1.318842
H    -3.732326  0.464556  -1.017971
H    -4.959862  2.127840  -2.371451
H    -5.404414  2.930547  -0.835586
H    -6.137771  1.365396  -1.263067
