34
Energy: -18219.462322 eV PBE+vdW (tier 2 basis)
C    1.781341  -1.677700  0.928618
C    0.650338  -1.918385  1.900545
O    0.317249  -3.056644  2.259611
H    2.654038  -2.266726  1.233205
H    2.063193  -0.622552  0.838555
H    1.472900  -2.044359  -0.059620
N    0.031748  -0.802406  2.381110
C    -1.254408  -0.835551  3.054370
C    -2.052250  0.357530  2.479749
O    -1.454512  1.338152  2.037302
H    0.235899  0.113866  1.976108
H    -1.735275  -1.794640  2.810538
C    -1.178088  -0.675977  4.597050
C    -0.886546  -1.958675  5.393339
C    0.543252  -2.497300  5.261818
C    0.787682  -3.806487  5.982263
N    0.613500  -3.656091  7.498026
H    -2.140387  -0.279329  4.951316
H    -0.431640  0.100146  4.822838
H    -1.594172  -2.743637  5.078097
H    -1.125978  -1.728717  6.449662
H    1.284686  -1.742631  5.572366
H    0.736250  -2.727945  4.200872
H    1.806302  -4.183542  5.834778
H    0.076415  -4.584671  5.677059
H    -0.325991  -3.294000  7.711622
H    1.293835  -2.983116  7.875143
H    0.736288  -4.547180  7.995478
N    -3.407322  0.288279  2.526708
C    -4.232998  -0.852252  2.896982
H    -3.869278  1.114792  2.158952
H    -5.278736  -0.595317  2.703183
H    -4.146379  -1.101996  3.964763
H    -3.993176  -1.744755  2.302446
