34
Energy: -18219.6718384 eV PBE+vdW (tier 2 basis)
C    -2.611784  -2.509237  -1.458484
C    -1.664217  -1.352200  -1.449207
O    -1.020901  -1.029135  -2.482935
H    -2.923677  -2.713373  -2.485899
H    -2.079828  -3.394254  -1.077428
H    -3.478821  -2.367430  -0.802737
N    -1.441648  -0.659791  -0.300803
C    -2.388629  -0.353780  0.789890
C    -2.724371  -1.621159  1.634015
O    -3.812981  -2.179339  1.538337
H    -0.673314  -0.001099  -0.393401
H    -1.825611  0.328628  1.439082
C    -3.687322  0.348185  0.309485
C    -3.654267  0.961813  -1.093682
C    -2.671432  2.127037  -1.329801
C    -2.294059  2.313250  -2.801456
N    -1.098835  1.474982  -3.208582
H    -3.949918  1.113663  1.053835
H    -4.493840  -0.396468  0.346414
H    -4.668223  1.321028  -1.322443
H    -3.474846  0.169367  -1.835519
H    -1.751966  2.022099  -0.731177
H    -3.124559  3.064441  -0.978789
H    -3.122009  2.019643  -3.458868
H    -2.038282  3.354649  -3.030545
H    -0.234539  1.896195  -2.850652
H    -1.096535  0.420739  -2.857395
H    -1.006837  1.447286  -4.230519
N    -1.746484  -2.071111  2.462021
C    -0.423291  -1.511247  2.697374
H    -2.011480  -2.901701  2.983847
H    0.207779  -1.548337  1.798494
H    0.067212  -2.107809  3.472171
H    -0.471368  -0.475920  3.064718
