34
Energy: -18219.4365811 eV PBE+vdW (tier 2 basis)
C    0.646907  -2.986429  0.573472
C    0.203281  -2.641173  1.976421
O    0.342012  -3.434071  2.917427
H    0.104433  -3.882274  0.245690
H    0.483923  -2.185234  -0.156609
H    1.713012  -3.243589  0.594132
N    -0.352217  -1.404561  2.138772
C    -0.926030  -0.854890  3.371539
C    0.076536  -0.493452  4.501993
O    -0.068295  0.577049  5.098322
H    -0.356685  -0.790928  1.333152
H    -1.340230  0.121277  3.089124
C    -2.078862  -1.732054  3.911865
C    -2.772888  -1.100656  5.121450
C    -3.864704  -2.010253  5.701868
C    -4.499715  -1.367712  6.922421
N    -5.567913  -2.278539  7.526494
H    -1.681558  -2.722662  4.173460
H    -2.801585  -1.881405  3.094595
H    -3.209503  -0.128935  4.840850
H    -2.030031  -0.878707  5.902149
H    -3.421449  -2.981777  5.978911
H    -4.635633  -2.210958  4.938622
H    -5.005639  -0.423406  6.685750
H    -3.771984  -1.182922  7.722435
H    -6.009441  -1.860885  8.356628
H    -5.160214  -3.181514  7.805556
H    -6.308674  -2.477732  6.840343
N    1.010297  -1.425901  4.793232
C    2.017471  -1.229545  5.820798
H    0.973320  -2.305804  4.265692
H    1.902772  -0.220088  6.228277
H    1.901056  -1.959865  6.634002
H    3.025891  -1.336060  5.399935
