34
Energy: -18220.2194348 eV PBE+vdW (tier 2 basis)
C    -0.010524  -0.535234  0.284257
C    -0.090912  -0.417713  1.784048
O    0.878115  -0.642047  2.522237
H    0.629122  0.274756  -0.092080
H    0.478177  -1.481074  0.024924
H    -0.983395  -0.475036  -0.216942
N    -1.299971  -0.050861  2.305075
C    -1.507256  0.354825  3.698369
C    -1.597029  -0.846578  4.677629
O    -2.434623  -0.881780  5.620311
H    -2.080365  0.080531  1.670170
H    -0.595004  0.905230  3.992087
C    -2.720594  1.307018  3.694933
C    -3.258955  1.954156  4.981813
C    -2.289579  2.738362  5.883494
C    -1.354423  1.929928  6.783952
N    -2.101455  0.838662  7.507401
H    -3.566569  0.768699  3.238089
H    -2.453432  2.112425  2.993660
H    -3.811851  1.205540  5.564140
H    -4.024272  2.671341  4.652518
H    -2.888096  3.401976  6.527333
H    -1.657330  3.409168  5.282378
H    -0.557840  1.423245  6.226056
H    -0.878474  2.577558  7.529912
H    -2.350197  0.067938  6.761518
H    -1.527383  0.409877  8.240026
H    -2.956870  1.194088  7.948180
N    -0.700749  -1.808548  4.478678
C    -0.611185  -3.014197  5.287901
H    0.029541  -1.608236  3.772106
H    -1.564210  -3.182381  5.797535
H    0.187958  -2.928060  6.037824
H    -0.387229  -3.868296  4.639528
