34
Energy: -18219.3385812 eV PBE+vdW (tier 2 basis)
C    -0.063499  -0.478484  -0.048782
C    -0.132428  -0.776730  1.436070
O    0.868481  -1.027760  2.089448
H    -0.013753  -1.432817  -0.591708
H    0.869233  0.060142  -0.242059
H    -0.909692  0.089177  -0.450449
N    -1.383295  -0.844664  2.045971
C    -2.654559  -0.290522  1.590478
C    -3.175225  -0.962883  0.291941
O    -3.804658  -0.315734  -0.556646
H    -1.292639  -1.004269  3.046764
H    -3.380504  -0.580276  2.368506
C    -2.693674  1.248581  1.477385
C    -4.105814  1.845481  1.660596
C    -4.424548  3.006091  0.701551
C    -4.734586  2.490715  -0.695675
N    -4.912745  3.652708  -1.671776
H    -2.273181  1.541904  0.504807
H    -2.019313  1.658021  2.240346
H    -4.220920  2.211397  2.689235
H    -4.870180  1.066303  1.527679
H    -3.567683  3.701100  0.671275
H    -5.286350  3.576718  1.083887
H    -5.670756  1.920941  -0.727913
H    -3.949150  1.841626  -1.099677
H    -5.666673  4.283942  -1.367884
H    -5.141424  3.318844  -2.617141
H    -4.052125  4.212567  -1.735417
N    -2.924429  -2.283269  0.202452
C    -3.342773  -3.112726  -0.914356
H    -2.337635  -2.684800  0.928240
H    -3.906481  -3.983088  -0.556092
H    -2.476045  -3.464736  -1.490341
H    -3.983568  -2.511504  -1.566072
