34
Energy: -18219.7256477 eV PBE+vdW (tier 2 basis)
C    -0.242062  1.617629  0.352333
C    -0.069857  0.253644  0.955562
O    1.006483  -0.386717  0.825236
H    -0.912876  2.256991  0.936573
H    -0.640838  1.536597  -0.670801
H    0.745969  2.082711  0.276163
N    -1.096010  -0.316241  1.619822
C    -2.519455  -0.055489  1.447163
C    -3.023944  0.916803  2.544190
O    -2.654769  0.763513  3.701798
H    -0.843570  -1.106875  2.206095
H    -2.657809  0.373043  0.443146
C    -3.306443  -1.388214  1.562076
C    -2.638651  -2.690577  1.079651
C    -2.306691  -2.882738  -0.412457
C    -1.051739  -2.236165  -1.002638
N    0.226783  -2.604915  -0.269859
H    -4.267440  -1.254481  1.045553
H    -3.546295  -1.533525  2.625624
H    -3.343623  -3.492379  1.341748
H    -1.755584  -2.916414  1.702870
H    -3.149929  -2.532601  -1.027614
H    -2.242829  -3.965354  -0.606460
H    -1.097919  -1.142288  -1.005058
H    -0.936166  -2.559699  -2.043385
H    0.971190  -2.847284  -0.931098
H    0.089189  -3.418725  0.338354
H    0.609428  -1.745647  0.326632
N    -3.887986  1.873194  2.118277
C    -4.527147  2.818512  3.024273
H    -4.125502  1.913768  1.133763
H    -5.617863  2.696879  3.009638
H    -4.277077  3.850932  2.749227
H    -4.156039  2.616086  4.033571
