34
Energy: -18219.6109402 eV PBE+vdW (tier 2 basis)
C    1.717061  0.202480  1.455387
C    0.814739  0.284705  2.664774
O    1.181058  0.718865  3.747582
H    2.623632  -0.350347  1.729271
H    2.030714  1.217341  1.179766
H    1.252921  -0.277263  0.585008
N    -0.480207  -0.186911  2.482361
C    -1.462077  -0.051029  3.542608
C    -2.304589  -1.321400  3.763583
O    -3.437900  -1.259548  4.260329
H    -0.781842  -0.415285  1.541257
H    -0.847151  0.050345  4.455364
C    -2.295489  1.245586  3.465817
C    -2.997736  1.568594  2.136972
C    -4.170226  0.675231  1.688722
C    -5.281782  0.473764  2.709774
N    -5.781792  1.806330  3.259608
H    -1.603472  2.071043  3.682152
H    -3.003942  1.211229  4.309066
H    -2.255663  1.573016  1.324615
H    -3.331802  2.621042  2.176438
H    -3.816643  -0.338890  1.451388
H    -4.583650  1.073831  0.748757
H    -4.913402  -0.101380  3.572376
H    -6.156622  -0.024269  2.276345
H    -5.012324  2.305128  3.727056
H    -6.529316  1.665047  3.950269
H    -6.143946  2.418919  2.516919
N    -1.694518  -2.481449  3.437503
C    -2.258218  -3.792243  3.718278
H    -0.741723  -2.417622  3.092563
H    -2.255823  -4.414560  2.814761
H    -3.287382  -3.654916  4.062844
H    -1.686904  -4.303981  4.504296
