34
Energy: -18218.9798748 eV PBE+vdW (tier 2 basis)
C    0.803243  -1.401479  0.954714
C    0.354129  -0.056817  1.469406
O    1.072266  0.909867  1.585054
H    0.102868  -1.838010  0.229658
H    0.923647  -2.112439  1.785991
H    1.780737  -1.273324  0.482220
N    -1.032849  0.090852  1.795439
C    -1.907335  -1.004595  2.225988
C    -2.936018  -1.200498  1.107049
O    -2.813636  -0.417686  0.078073
H    -1.164730  0.964577  2.306916
H    -1.310028  -1.929784  2.243753
C    -2.487474  -0.810520  3.655086
C    -3.775841  -0.001248  3.870516
C    -3.759600  1.520525  3.648755
C    -3.939442  2.017940  2.206730
N    -5.037870  1.314138  1.525949
H    -1.664165  -0.383941  4.248307
H    -2.649507  -1.811525  4.077307
H    -4.048893  -0.179355  4.920443
H    -4.596430  -0.426839  3.273972
H    -2.848689  1.969524  4.076826
H    -4.586438  1.937480  4.244539
H    -3.028664  1.858427  1.608859
H    -4.068948  3.113972  2.243945
H    -5.924774  1.530022  1.986769
H    -5.133491  1.664413  0.571902
H    -2.022414  0.167216  0.338381
N    -3.874353  -2.111233  1.074196
C    -4.160346  -3.144636  2.068978
H    -4.492363  -2.062122  0.264074
H    -3.235931  -3.500395  2.533396
H    -4.633581  -3.986573  1.555290
H    -4.842193  -2.766404  2.840677
