34
Energy: -18218.9829195 eV PBE+vdW (tier 2 basis)
C    -0.451900  -1.001989  -0.945821
C    0.054870  -0.976921  0.485910
O    1.197065  -1.297623  0.781811
H    -0.685444  0.008995  -1.310354
H    -1.353165  -1.620733  -1.058496
H    0.342802  -1.418093  -1.570072
N    -0.823956  -0.556923  1.466379
C    -2.228557  -0.200486  1.336322
C    -2.534362  1.034093  2.218595
O    -3.345520  0.978081  3.145949
H    -0.439434  -0.624139  2.406734
H    -2.383153  0.100486  0.287719
C    -3.125688  -1.413608  1.663334
C    -4.648627  -1.216925  1.690441
C    -5.240915  -0.501210  0.466076
C    -6.747851  -0.400963  0.621895
N    -7.378555  0.368505  -0.538515
H    -2.830228  -1.794976  2.650374
H    -2.860618  -2.200426  0.940438
H    -4.908001  -0.643365  2.589094
H    -5.114920  -2.210591  1.783325
H    -4.989385  -1.042127  -0.462383
H    -4.817109  0.513850  0.386361
H    -7.029579  0.142152  1.532733
H    -7.235615  -1.383598  0.633059
H    -7.176231  -0.091549  -1.436600
H    -6.999042  1.323726  -0.590138
H    -8.400575  0.440130  -0.443486
N    -1.879495  2.191176  1.921042
C    -0.859636  2.444442  0.911865
H    -2.068652  2.931432  2.591247
H    -1.146284  2.019761  -0.058662
H    0.121861  2.038716  1.191968
H    -0.767722  3.527827  0.781019
