34
Energy: -18220.3823824 eV PBE+vdW (tier 2 basis)
C    -2.882617  -0.719897  -1.619364
C    -2.611319  0.303413  -0.554722
O    -2.228850  1.460469  -0.879839
H    -3.655459  -0.335024  -2.296624
H    -1.971796  -0.862398  -2.214709
H    -3.203607  -1.685275  -1.214911
N    -2.782820  -0.067375  0.716956
C    -2.555759  0.781417  1.873604
C    -2.503786  -0.196406  3.072380
O    -3.087245  -1.276505  2.994755
H    -3.105946  -1.006463  0.968673
H    -1.583461  1.286627  1.752243
C    -3.697259  1.818269  2.036496
C    -3.371794  3.048990  2.887234
C    -2.272815  3.986205  2.356225
C    -2.524958  4.582266  0.963791
N    -1.783098  3.858152  -0.128290
H    -4.569049  1.301017  2.461504
H    -4.009103  2.130782  1.028381
H    -3.105408  2.745132  3.910362
H    -4.297465  3.633992  2.997628
H    -1.285232  3.494171  2.366296
H    -2.174554  4.822775  3.060772
H    -2.204838  5.629937  0.922265
H    -3.588843  4.550628  0.696300
H    -1.958381  4.300726  -1.037837
H    -2.034431  2.781987  -0.270646
H    -0.770968  3.911438  0.030893
N    -1.835884  0.236099  4.165920
C    -1.733864  -0.547246  5.391583
H    -1.306942  1.097804  4.101995
H    -1.974962  0.075656  6.261084
H    -2.449079  -1.372158  5.326639
H    -0.724548  -0.962195  5.512940
