34
Energy: -18219.173867 eV PBE+vdW (tier 2 basis)
C    0.116110  -0.908736  0.346972
C    0.074025  -0.071577  1.609908
O    1.067771  0.499534  2.037702
H    1.060103  -1.464401  0.347992
H    -0.716497  -1.609684  0.226348
H    0.143748  -0.236441  -0.522065
N    -1.124113  0.026445  2.308437
C    -2.478311  -0.324353  1.890818
C    -2.758253  -1.850944  1.776073
O    -3.672559  -2.261377  1.062045
H    -1.032074  0.640826  3.113260
H    -3.123371  -0.000923  2.725134
C    -2.976182  0.394544  0.624714
C    -3.030672  1.914516  0.779242
C    -3.420185  2.653711  -0.512844
C    -4.815471  2.278679  -0.989224
N    -5.178149  3.054521  -2.252615
H    -3.962867  -0.037576  0.407520
H    -2.332155  0.126944  -0.227019
H    -2.047631  2.297412  1.089479
H    -3.733353  2.191549  1.582564
H    -2.685884  2.417892  -1.301698
H    -3.370874  3.740938  -0.337609
H    -4.904256  1.218128  -1.252178
H    -5.589009  2.522269  -0.249896
H    -4.510405  2.851471  -3.009287
H    -6.120317  2.818988  -2.592432
H    -5.147133  4.069362  -2.082814
N    -1.974855  -2.632754  2.553322
C    -2.120110  -4.076279  2.629016
H    -1.232910  -2.176443  3.073990
H    -1.226856  -4.583595  2.240340
H    -2.985295  -4.360582  2.022113
H    -2.286624  -4.395408  3.665830
