34
Energy: -18220.094445 eV PBE+vdW (tier 2 basis)
C    -1.163486  -1.096999  0.647884
C    -0.797713  -0.125557  1.743918
O    0.353135  0.222972  1.978677
H    -0.894886  -0.652187  -0.318853
H    -2.225735  -1.368971  0.631488
H    -0.559224  -2.004680  0.762861
N    -1.854669  0.356434  2.497543
C    -1.632072  1.367914  3.515505
C    -2.238280  0.936725  4.850983
O    -3.132620  1.592752  5.448120
H    -2.798135  0.068531  2.265769
H    -0.535698  1.348015  3.651976
C    -1.974703  2.805693  3.054769
C    -3.204395  3.011356  2.156680
C    -4.612843  2.972191  2.771016
C    -4.896077  4.090189  3.781189
N    -4.626829  3.647948  5.200113
H    -1.105205  3.137171  2.470566
H    -1.992005  3.465268  3.936380
H    -3.164799  2.281834  1.334420
H    -3.086759  3.989601  1.665295
H    -4.835079  1.995192  3.229268
H    -5.337460  3.082004  1.952490
H    -5.937476  4.427254  3.735918
H    -4.257902  4.961585  3.588954
H    -5.469935  3.243162  5.619967
H    -4.338774  4.427501  5.798839
H    -3.869446  2.842345  5.235078
N    -1.778078  -0.183691  5.424049
C    -0.720632  -1.084385  4.975265
H    -2.243301  -0.411383  6.299852
H    -1.120576  -1.884079  4.337477
H    0.051546  -0.544993  4.416772
H    -0.256427  -1.535394  5.858181
