34
Energy: -18219.1660295 eV PBE+vdW (tier 2 basis)
C    -0.382995  1.031495  -0.209162
C    -0.246535  0.686665  1.255382
O    0.711293  1.057590  1.930189
H    -1.416346  1.120304  -0.562282
H    0.162920  1.959545  -0.401922
H    0.089994  0.233372  -0.799320
N    -1.210574  -0.126276  1.837402
C    -2.635582  -0.208635  1.500799
C    -2.928388  -0.902579  0.140198
O    -3.908861  -0.582817  -0.525857
H    -0.969013  -0.336862  2.803118
H    -3.062050  -0.891393  2.254497
C    -3.408575  1.120425  1.596345
C    -3.325031  1.828901  2.961354
C    -2.091591  2.728737  3.148966
C    -2.035493  3.459253  4.478924
N    -3.186125  4.458768  4.609197
H    -4.454267  0.887900  1.362894
H    -3.082515  1.806073  0.799989
H    -3.368060  1.087148  3.777128
H    -4.247921  2.431552  3.056685
H    -2.020458  3.457089  2.322977
H    -1.158911  2.148886  3.093302
H    -2.134843  2.779985  5.335375
H    -1.114653  4.042447  4.596127
H    -4.089894  3.979408  4.490388
H    -3.124611  5.181406  3.879180
H    -3.189437  4.929464  5.523114
N    -2.059713  -1.890251  -0.185654
C    -2.190533  -2.692220  -1.390444
H    -1.264211  -2.035581  0.426863
H    -2.245434  -3.760023  -1.142691
H    -1.343097  -2.527837  -2.069928
H    -3.114650  -2.393139  -1.894867
