34
Energy: -575226.95107 eV PBE+vdW (tier 2 basis)
C    1.058287  -0.233211  1.168567
C    0.391549  0.595618  2.236161
O    0.907866  1.521790  2.818692
H    0.511705  -0.205190  0.214725
H    1.165135  -1.282522  1.480302
H    2.057862  0.178088  1.003232
N    -0.956138  0.287920  2.579247
C    -1.746433  -0.806146  2.125832
C    -3.138461  -0.419183  1.660927
O    -4.051774  -1.332609  1.891610
H    -1.269793  0.817493  3.393760
H    -1.236265  -1.255481  1.257646
C    -2.083417  -1.917157  3.163546
C    -3.454358  -2.490156  2.676128
C    -3.276182  -3.645131  1.746288
C    -4.358420  -2.759202  3.828582
C    -3.711518  -4.887474  2.053107
C    -4.776223  -4.006043  4.139842
C    -4.420651  -5.105499  3.286923
O    -4.740087  -6.291954  3.724343
H    -2.195482  -1.477438  4.162994
H    -1.306774  -2.686781  3.212147
H    -2.740620  -3.470277  0.811639
H    -4.627991  -1.910032  4.458527
H    -3.524355  -5.729065  1.384323
H    -5.374321  -4.213599  5.026712
H    -4.490445  -7.018880  3.115304
N    -3.430219  0.712290  1.098123
C    -4.743119  1.162433  0.618217
H    -2.635492  1.351954  0.999376
H    -4.710811  1.260488  -0.473806
H    -4.962753  2.140630  1.060872
H    -5.509658  0.438850  0.904335
Hg    -7.493016  -5.051354  1.517621
