34
Energy: -575226.576574 eV PBE+vdW (tier 2 basis)
C    0.515263  -2.277143  0.660763
C    0.122773  -1.341755  1.767605
O    0.927660  -0.447544  2.118935
H    0.594159  -1.704469  -0.273532
H    -0.197052  -3.098437  0.521813
H    1.510351  -2.685915  0.873726
N    -1.093719  -1.518988  2.341510
C    -1.671077  -0.613842  3.323308
C    -0.998851  -0.722626  4.719272
O    -0.397309  0.287935  5.182110
H    -1.675931  -2.258449  1.960210
H    -1.433373  0.415005  3.010598
C    -3.219063  -0.729068  3.403187
C    -3.919239  -0.139683  2.205887
C    -4.413874  -0.969208  1.174499
C    -4.119125  1.260558  2.114514
C    -5.086956  -0.438135  0.093596
C    -4.791728  1.818203  1.047244
C    -5.285192  0.968690  0.021125
O    -5.952959  1.410724  -1.037261
H    -3.536838  -0.197791  4.312180
H    -3.514688  -1.778624  3.531265
H    -4.301447  -2.051938  1.244256
H    -3.763890  1.911702  2.914423
H    -5.492670  -1.064366  -0.699777
H    -4.961668  2.894402  0.995124
H    -6.077983  2.380703  -1.026179
N    -1.060782  -1.824004  5.465606
C    -1.789626  -3.074481  5.259806
H    -0.584667  -1.724574  6.364134
H    -1.820762  -3.344158  4.201027
H    -2.808026  -3.014440  5.666167
H    -1.252749  -3.866240  5.792977
Hg    1.005145  1.438240  3.654751
