34
Energy: -575226.366345 eV PBE+vdW (tier 2 basis)
C    -1.950195  -1.696983  0.809442
C    -0.910620  -0.951100  1.583348
O    0.290222  -1.328988  1.513948
H    -1.987541  -1.307903  -0.219792
H    -2.940948  -1.627443  1.271362
H    -1.649483  -2.748970  0.738619
N    -1.237567  0.102309  2.373457
C    -2.188053  1.153201  2.039304
C    -1.382254  2.229548  1.256329
O    -0.141060  2.303057  1.384312
H    -0.437014  0.462388  2.896631
H    -2.976500  0.734354  1.399633
C    -2.804141  1.717970  3.359708
C    -3.925281  2.701301  3.193667
C    -3.706938  4.088050  3.386171
C    -5.238239  2.247483  2.895160
C    -4.746274  4.989196  3.307218
C    -6.296212  3.126943  2.812119
C    -6.059894  4.513989  3.025909
O    -7.015076  5.430826  2.987495
H    -1.994771  2.169507  3.950916
H    -3.169852  0.843024  3.918180
H    -2.706456  4.446319  3.629555
H    -5.424499  1.180778  2.764115
H    -4.602426  6.055870  3.475006
H    -7.306437  2.769505  2.607759
H    -7.900169  5.051173  2.813157
N    -2.076855  3.069403  0.479918
C    -1.473433  4.154139  -0.292676
H    -3.090173  2.990633  0.471578
H    -1.517308  5.101033  0.262512
H    -2.015926  4.264901  -1.237138
H    -0.425318  3.910910  -0.488472
Hg    1.880690  0.468580  1.397549
