34
Energy: -575227.296858 eV PBE+vdW (tier 2 basis)
C    -3.445375  0.813772  -0.202288
C    -2.457651  0.393576  0.844648
O    -1.442909  1.141038  1.009874
H    -2.934438  0.905364  -1.169305
H    -3.812169  1.817370  0.056983
H    -4.302425  0.138564  -0.298631
N    -2.747902  -0.727585  1.539463
C    -2.260755  -1.355069  2.797271
C    -1.580857  -0.357244  3.757226
O    -0.413439  0.080655  3.591159
H    -3.605771  -1.167592  1.213544
H    -3.193677  -1.676942  3.280302
C    -1.458195  -2.695174  2.590770
C    0.010302  -2.527925  2.315054
C    0.469872  -2.147767  1.062347
C    0.955862  -2.592409  3.371631
C    1.785153  -1.557547  0.914600
C    2.279563  -2.202800  3.234887
C    2.717954  -1.652783  2.018555
O    3.949881  -1.241911  1.763362
H    -1.957273  -3.246751  1.781471
H    -1.603618  -3.287510  3.504056
H    -0.171747  -2.207793  0.180924
H    0.627769  -2.961851  4.344411
H    2.206505  -1.391507  -0.079779
H    2.973922  -2.311782  4.068783
H    4.546144  -1.337835  2.531657
N    -2.296493  -0.014406  4.828775
C    -1.820247  0.898130  5.869328
H    -3.215613  -0.427768  4.955571
H    -2.677421  1.440517  6.279853
H    -1.107668  1.603320  5.432794
H    -1.327486  0.340297  6.676302
Hg    0.546207  0.326348  1.414402
