34
Energy: -575226.729945 eV PBE+vdW (tier 2 basis)
C    0.812956  2.165206  1.379949
C    0.559441  1.147361  2.454870
O    1.520488  0.814578  3.192822
H    -0.096940  2.466487  0.849271
H    1.536042  1.749887  0.665193
H    1.281929  3.048637  1.831922
N    -0.696554  0.654699  2.562565
C    -1.223636  -0.168614  3.651140
C    -1.098766  -1.671753  3.295341
O    -0.032083  -2.302444  3.542392
H    -1.361554  0.980741  1.866680
H    -0.561207  -0.022557  4.517042
C    -2.652249  0.282721  4.051256
C    -2.685702  1.648224  4.689371
C    -3.063202  2.788441  3.946024
C    -2.362158  1.799799  6.060348
C    -3.125449  4.034553  4.535194
C    -2.419148  3.033401  6.675590
C    -2.804656  4.168410  5.914179
O    -2.899581  5.392221  6.420503
H    -3.050168  -0.460357  4.757800
H    -3.312088  0.278712  3.169074
H    -3.346305  2.686377  2.897758
H    -2.090879  0.925734  6.653953
H    -3.433819  4.920717  3.982195
H    -2.189502  3.138555  7.736695
H    -2.688179  5.422135  7.374862
N    -2.110151  -2.290223  2.701627
C    -2.069336  -3.700183  2.292670
H    -2.979993  -1.784818  2.566075
H    -2.915897  -3.891263  1.628302
H    -2.137173  -4.355424  3.170040
H    -1.131548  -3.905154  1.765628
Hg    1.927679  -1.240397  4.311215
