34
Energy: -575226.576637 eV PBE+vdW (tier 2 basis)
C    -0.321119  -1.740933  -0.014799
C    -0.240392  -1.175795  1.373764
O    0.886149  -0.909310  1.855388
H    -1.313317  -2.140748  -0.253958
H    0.433221  -2.527909  -0.128298
H    -0.071866  -0.944803  -0.730919
N    -1.405190  -0.984048  2.043993
C    -1.500927  -0.304610  3.327862
C    -0.891713  -1.122789  4.495725
O    0.050373  -0.614138  5.165519
H    -2.262835  -1.174279  1.532369
H    -0.865431  0.594534  3.288190
C    -2.951197  0.177314  3.601645
C    -3.070468  1.033510  4.836670
C    -2.714784  2.403048  4.792073
C    -3.566306  0.493118  6.046451
C    -2.845557  3.207789  5.902328
C    -3.709874  1.276632  7.173884
C    -3.349154  2.649304  7.110676
O    -3.461724  3.482792  8.136755
H    -3.634339  -0.679142  3.672472
H    -3.256501  0.766384  2.722853
H    -2.357793  2.841364  3.859268
H    -3.865564  -0.554232  6.089146
H    -2.594355  4.267352  5.881946
H    -4.106900  0.857281  8.099183
H    -3.829273  3.052459  8.934561
N    -1.341281  -2.332054  4.834645
C    -2.474079  -3.105506  4.332151
H    -0.832522  -2.738651  5.621850
H    -2.689054  -2.863144  3.289668
H    -3.371138  -2.945296  4.946018
H    -2.209975  -4.167656  4.385975
Hg    1.773889  0.291160  3.769952
