34
Energy: -575227.189418 eV PBE+vdW (tier 2 basis)
C    1.423976  2.376691  2.713420
C    0.756128  1.119659  3.200750
O    1.319649  0.035544  2.881335
H    2.372860  2.493678  3.256403
H    0.819778  3.279288  2.855900
H    1.673336  2.264769  1.651941
N    -0.360595  1.297898  3.941871
C    -1.323042  0.442043  4.674297
C    -0.662098  -0.521985  5.675865
O    0.301993  -1.292970  5.399261
H    -0.583698  2.283542  4.045798
H    -1.862892  1.171832  5.288950
C    -2.458493  -0.204285  3.799222
C    -2.006234  -1.162683  2.730186
C    -1.782934  -0.730612  1.401075
C    -1.683582  -2.483402  3.042802
C    -1.187108  -1.532728  0.434797
C    -0.919202  -3.294498  2.123565
C    -0.725048  -2.816966  0.775578
O    -0.149116  -3.670914  -0.058971
H    -3.016813  0.626663  3.348131
H    -3.149643  -0.700259  4.496611
H    -2.096030  0.274651  1.115151
H    -1.946791  -2.915454  4.010272
H    -1.077860  -1.167937  -0.587232
H    -0.768856  -4.358832  2.315690
H    -0.059037  -3.312049  -0.962937
N    -1.150102  -0.537842  6.916666
C    -2.173519  0.315818  7.531400
H    -0.684200  -1.210019  7.526943
H    -2.302985  -0.013832  8.566068
H    -3.141336  0.216617  7.024988
H    -1.860585  1.367896  7.550999
Hg    0.736452  -2.070089  3.280373
