34
Energy: -575227.184077 eV PBE+vdW (tier 2 basis)
C    0.538866  3.262421  3.136131
C    0.249675  1.810125  3.372323
O    1.167415  0.985461  3.069073
H    0.774797  3.418124  2.075468
H    1.442974  3.528437  3.702184
H    -0.275919  3.930525  3.435315
N    -0.951605  1.510517  3.913576
C    -1.560961  0.315055  4.552176
C    -0.518806  -0.660335  5.130103
O    0.136553  -1.463644  4.414547
H    -1.526452  2.339084  4.049802
H    -2.102543  0.748564  5.401407
C    -2.689675  -0.386993  3.705166
C    -2.213699  -1.395826  2.697637
C    -1.664731  -1.001359  1.486305
C    -2.159521  -2.775554  3.027450
C    -0.812799  -1.906585  0.741715
C    -1.504180  -3.719778  2.252044
C    -0.794630  -3.307328  1.111700
O    -0.127792  -4.105919  0.293936
H    -3.270912  0.413668  3.226113
H    -3.363892  -0.867193  4.427124
H    -1.790612  0.016279  1.111165
H    -2.652398  -3.114245  3.940016
H    -0.496514  -1.656624  -0.273862
H    -1.528059  -4.773694  2.531433
H    -0.153349  -5.041217  0.576209
N    -0.360209  -0.681281  6.454934
C    -1.023363  0.117516  7.491440
H    0.322302  -1.370631  6.770650
H    -0.533238  -0.101425  8.444345
H    -2.084502  -0.145476  7.589744
H    -0.913840  1.191717  7.300122
Hg    0.745618  -0.958385  2.157509
