34
Energy: -575226.397354 eV PBE+vdW (tier 2 basis)
C    -0.153230  0.536328  0.952321
C    -0.457497  0.317128  2.401640
O    -0.194672  1.211069  3.240672
H    -0.726941  1.401855  0.594214
H    -0.387249  -0.335602  0.331204
H    0.909332  0.789743  0.845687
N    -1.016575  -0.887109  2.760952
C    -1.415043  -1.042857  4.135938
C    -0.269478  -1.483160  5.072554
O    0.127449  -0.664423  5.958796
H    -1.226729  -1.568682  2.037860
H    -1.501302  0.007634  4.412771
C    -2.833195  -1.574931  4.534569
C    -3.179774  -0.732136  5.751280
C    -2.921803  -1.195592  7.070925
C    -3.404797  0.626487  5.568052
C    -2.789362  -0.338796  8.149255
C    -3.141498  1.560371  6.613238
C    -2.886853  1.052768  7.951065
O    -2.798190  1.830527  9.017591
H    -2.858323  -2.650050  4.745183
H    -3.519448  -1.376073  3.699215
H    -2.803809  -2.266945  7.241294
H    -3.668049  1.021190  4.584439
H    -2.618827  -0.712727  9.157904
H    -3.429984  2.608026  6.491965
H    -2.965902  2.774660  8.830679
N    0.294849  -2.677183  4.975053
C    -0.013786  -3.750160  4.029587
H    1.073106  -2.838689  5.616360
H    0.714326  -3.758331  3.208142
H    -1.023165  -3.638015  3.623779
H    0.035392  -4.710048  4.554826
Hg    -0.746969  1.515720  5.761996
