34
Energy: -575226.719844 eV PBE+vdW (tier 2 basis)
C    -0.257599  -1.825546  0.230689
C    -0.373793  -1.305908  1.634114
O    0.625816  -1.356314  2.388046
H    0.276500  -2.782432  0.243795
H    0.350662  -1.120195  -0.353685
H    -1.230630  -1.949864  -0.258341
N    -1.574694  -0.804232  2.024025
C    -1.801027  -0.126111  3.291663
C    -1.714687  -1.104684  4.494741
O    -0.859223  -0.927211  5.399698
H    -2.305594  -0.763037  1.317989
H    -0.984569  0.594623  3.463329
C    -3.134132  0.666972  3.245218
C    -3.385530  1.505549  4.472030
C    -4.219272  1.037288  5.512481
C    -2.809749  2.795915  4.580649
C    -4.477510  1.814979  6.621570
C    -3.053957  3.596374  5.676998
C    -3.896264  3.110527  6.712921
O    -4.198910  3.810890  7.798470
H    -3.976544  -0.023676  3.087354
H    -3.084878  1.321490  2.361523
H    -4.689269  0.057020  5.431911
H    -2.184168  3.179508  3.773703
H    -5.129022  1.477581  7.426403
H    -2.623506  4.596286  5.745390
H    -3.789245  4.699136  7.800853
N    -2.579071  -2.114851  4.546555
C    -2.608537  -3.119184  5.610126
H    -3.288397  -2.178434  3.820240
H    -1.608069  -3.212957  6.042579
H    -2.929023  -4.074837  5.183205
H    -3.310183  -2.825866  6.402519
Hg    1.313076  -0.397796  4.515235
