34
Energy: -575226.573183 eV PBE+vdW (tier 2 basis)
C    -0.558851  -5.080729  1.908946
C    -0.643498  -4.157266  3.089698
O    0.342405  -3.434421  3.365753
H    -0.490443  -4.477210  0.993472
H    -1.417263  -5.757864  1.832788
H    0.365682  -5.666523  1.978790
N    -1.792839  -4.158159  3.810729
C    -2.072947  -3.227256  4.893335
C    -1.246138  -3.518185  6.175203
O    -0.436708  -2.638917  6.586860
H    -2.542840  -4.756366  3.477522
H    -1.712190  -2.233992  4.583334
C    -3.591735  -3.097643  5.188910
C    -4.350633  -2.370343  4.108085
C    -4.234942  -0.965693  3.973726
C    -5.218587  -3.071611  3.239176
C    -4.954273  -0.280825  3.019208
C    -5.954020  -2.409989  2.274882
C    -5.827640  -1.000395  2.156635
O    -6.500313  -0.277235  1.269947
H    -3.689140  -2.545028  6.135698
H    -4.033743  -4.088283  5.356309
H    -3.593031  -0.405020  4.654633
H    -5.342589  -4.149717  3.349140
H    -4.894006  0.801664  2.915769
H    -6.636279  -2.955317  1.621518
H    -7.098934  -0.818631  0.717606
N    -1.380655  -4.639512  6.881328
C    -2.320179  -5.749780  6.735979
H    -0.778715  -4.666007  7.706605
H    -1.844524  -6.646946  7.146405
H    -2.546468  -5.940508  5.683917
H    -3.246455  -5.564007  7.295963
Hg    0.920993  -1.648231  4.917042
