34
Energy: -575226.926382 eV PBE+vdW (tier 2 basis)
C    0.018576  0.657639  -0.287934
C    -0.360256  -0.431464  0.660349
O    -0.098623  -1.657452  0.452139
H    -0.397662  0.427804  -1.278158
H    1.113037  0.685687  -0.397130
H    -0.326950  1.646943  0.028885
N    -1.047052  -0.114629  1.769563
C    -1.516256  -1.062506  2.749514
C    -2.779075  -0.387866  3.376341
O    -2.802071  0.843528  3.390560
H    -1.403574  0.838259  1.924625
H    -1.736247  -2.019246  2.259655
C    -0.486962  -1.292419  3.945929
C    0.798494  -1.872785  3.470732
C    1.899831  -1.029525  3.183769
C    0.922453  -3.261524  3.229737
C    3.100778  -1.536635  2.723572
C    2.099361  -3.811311  2.761307
C    3.249585  -2.962366  2.581355
O    4.411992  -3.570421  2.452374
H    -0.982111  -1.972155  4.651399
H    -0.335464  -0.327412  4.445718
H    1.810895  0.044535  3.348715
H    0.077383  -3.922366  3.424115
H    3.965551  -0.887286  2.575640
H    2.229569  -4.886802  2.640903
H    5.171433  -2.953933  2.418509
N    -3.722577  -1.193048  3.878163
C    -4.963109  -0.681748  4.464781
H    -3.649607  -2.193412  3.717610
H    -5.291635  -1.370902  5.249503
H    -5.750999  -0.597790  3.704249
H    -4.770948  0.309525  4.887357
Hg    2.041239  -2.509921  0.079159
