34
Energy: -575226.660995 eV PBE+vdW (tier 2 basis)
C    0.457083  -1.769288  1.284362
C    0.237452  -1.112145  2.608973
O    1.151402  -0.996342  3.477524
H    0.862845  -2.776393  1.450147
H    1.217784  -1.211553  0.718017
H    -0.449195  -1.841324  0.673460
N    -0.996749  -0.639793  2.893451
C    -1.352546  0.005869  4.137779
C    -2.739969  -0.551256  4.656226
O    -3.715074  0.192642  4.616717
H    -1.724805  -0.742488  2.186483
H    -0.572773  -0.256609  4.867154
C    -1.463162  1.556294  3.982356
C    -0.095686  2.147188  4.013533
C    0.626173  2.408520  2.850199
C    0.541503  2.367819  5.277049
C    1.969484  2.816941  2.912624
C    1.823848  2.859607  5.390394
C    2.550458  3.147287  4.207905
O    3.702010  3.784104  4.173056
H    -2.089743  1.913467  4.813022
H    -1.999377  1.795660  3.056250
H    0.164951  2.278219  1.871303
H    -0.022009  2.168391  6.190217
H    2.501823  3.162410  2.024193
H    2.257233  3.077230  6.367582
H    4.032078  4.030860  5.061484
N    -2.765635  -1.812997  5.113984
C    -1.687726  -2.796998  5.157781
H    -3.694326  -2.125015  5.396022
H    -1.936350  -3.538133  5.923964
H    -0.734837  -2.334768  5.439777
H    -1.572514  -3.320877  4.198658
Hg    2.988351  0.450467  3.096357
