34
Energy: -575226.965185 eV PBE+vdW (tier 2 basis)
C    -1.496600  -0.899100  -1.246603
C    -1.151428  -0.012460  -0.103194
O    -0.245677  0.893574  -0.306364
H    -1.556613  -0.282876  -2.154096
H    -2.440547  -1.433318  -1.104881
H    -0.683446  -1.620525  -1.415744
N    -1.731831  -0.097042  1.090056
C    -2.499912  -1.134937  1.773333
C    -3.409121  -0.324361  2.727960
O    -2.910244  0.689488  3.248880
H    -1.631574  0.704032  1.737075
H    -3.065443  -1.746222  1.060373
C    -1.544679  -2.068263  2.624388
C    -0.459074  -1.279180  3.315332
C    -0.721114  -0.493936  4.480461
C    0.798360  -1.182663  2.757318
C    0.184404  0.422019  5.000944
C    1.744683  -0.152393  3.177760
C    1.419231  0.623796  4.371175
O    2.372479  1.431934  4.797380
H    -1.094479  -2.802539  1.943535
H    -2.167058  -2.625130  3.337891
H    -1.660861  -0.634656  5.011829
H    1.100486  -1.848773  1.946292
H    -0.058267  0.967077  5.914049
H    2.812216  -0.295468  2.978575
H    2.125760  1.915145  5.611351
N    -4.638020  -0.791472  2.959624
C    -5.600167  -0.147718  3.855513
H    -4.955676  -1.602520  2.435609
H    -5.980835  -0.880489  4.576379
H    -6.440049  0.256676  3.277270
H    -5.098319  0.668150  4.381544
Hg    1.067400  1.049805  1.404055
