34
Energy: -575226.462747 eV PBE+vdW (tier 2 basis)
C    0.640288  -1.003535  0.696014
C    -0.326511  0.138717  0.771481
O    -0.763858  0.768737  -0.170162
H    0.072196  -1.931991  0.530637
H    1.237016  -1.126167  1.607793
H    1.295891  -0.864668  -0.169837
N    -0.769266  0.515769  2.082089
C    -1.990147  1.307913  2.154130
C    -1.755799  2.744822  1.600842
O    -0.795539  3.460153  1.989122
H    -0.655879  -0.186285  2.816642
H    -2.743598  0.849131  1.493062
C    -2.533273  1.402136  3.603601
C    -2.938996  0.078763  4.200590
C    -2.168014  -0.515200  5.226497
C    -4.125723  -0.570681  3.770742
C    -2.553394  -1.705055  5.809999
C    -4.536440  -1.757599  4.338429
C    -3.750413  -2.339251  5.370816
O    -4.069041  -3.469717  5.984515
H    -3.407070  2.071143  3.577865
H    -1.784163  1.891354  4.242229
H    -1.272596  -0.011334  5.592769
H    -4.744846  -0.114920  2.997223
H    -1.981744  -2.167733  6.613554
H    -5.459552  -2.240908  4.015595
H    -4.907952  -3.855406  5.660088
N    -2.677518  3.224390  0.780434
C    -2.663463  4.579825  0.228704
H    -3.440002  2.607591  0.511259
H    -3.196213  5.274196  0.891823
H    -3.157965  4.560708  -0.747093
H    -1.626992  4.914203  0.118741
Hg    1.135167  2.403470  2.839061
