34
Energy: -575226.492119 eV PBE+vdW (tier 2 basis)
C    1.155597  -2.297477  2.063700
C    0.724621  -1.479649  3.238251
O    1.511881  -1.092623  4.132222
H    1.596216  -3.234057  2.433335
H    1.949626  -1.767894  1.519321
H    0.344146  -2.535673  1.367485
N    -0.605990  -1.172181  3.349041
C    -1.141557  -0.468159  4.470377
C    -2.382548  -1.166145  5.149539
O    -2.240618  -1.347571  6.354398
H    -1.233040  -1.539188  2.636682
H    -0.378987  -0.497189  5.253652
C    -1.489397  1.075046  4.213294
C    -0.218419  1.833173  4.127849
C    0.376765  2.117220  2.874488
C    0.471936  2.192420  5.315209
C    1.586145  2.776215  2.786218
C    1.680659  2.849914  5.271627
C    2.228116  3.224667  3.995855
O    3.220897  4.089476  4.017417
H    -2.084118  1.389370  5.081032
H    -2.097634  1.179782  3.308390
H    -0.134463  1.828097  1.956055
H    0.032909  1.957540  6.285777
H    2.009575  3.050471  1.818454
H    2.189193  3.191797  6.172932
H    3.508576  4.375156  3.126339
N    -3.487140  -1.483553  4.458840
C    -3.758164  -1.395483  3.026778
H    -4.194691  -1.946986  5.028955
H    -3.408190  -2.288199  2.486166
H    -3.326325  -0.489119  2.587873
H    -4.842099  -1.329349  2.886158
Hg    3.328526  0.535151  3.981291
