34
Energy: -575226.665639 eV PBE+vdW (tier 2 basis)
C    0.843705  -1.591203  1.151059
C    0.426497  -1.043276  2.482286
O    1.291099  -0.740137  3.334583
H    1.200187  -0.758987  0.526120
H    0.025417  -2.099880  0.627953
H    1.683890  -2.280458  1.288229
N    -0.905186  -0.893984  2.728985
C    -1.380420  -0.180959  3.898140
C    -1.116334  -0.976485  5.199504
O    -0.478894  -0.443454  6.143183
H    -1.558706  -1.139766  1.990435
H    -0.770485  0.729261  4.016224
C    -2.851384  0.310312  3.778031
C    -3.933901  -0.706965  3.536974
C    -4.259710  -1.123377  2.222935
C    -4.708154  -1.204525  4.615838
C    -5.289799  -2.010274  1.986386
C    -5.748786  -2.088145  4.406095
C    -6.050770  -2.501570  3.082311
O    -7.042668  -3.330774  2.779722
H    -2.858604  1.044113  2.956977
H    -3.062714  0.872387  4.697690
H    -3.732146  -0.696171  1.367772
H    -4.499806  -0.860736  5.629499
H    -5.563217  -2.322336  0.979286
H    -6.350591  -2.447599  5.241978
H    -7.552942  -3.612253  3.565008
N    -1.601283  -2.212786  5.294475
C    -1.458455  -3.059805  6.477394
H    -2.154966  -2.566805  4.518754
H    -2.335040  -2.966974  7.132641
H    -0.570858  -2.745736  7.035083
H    -1.356957  -4.101424  6.156062
Hg    1.524123  0.645735  5.389167
