34
Energy: -575226.657645 eV PBE+vdW (tier 2 basis)
C    -3.727486  0.945443  0.882049
C    -2.742142  0.783371  2.004970
O    -1.525116  0.637265  1.706878
H    -4.769851  0.818006  1.194244
H    -3.489521  0.225288  0.090171
H    -3.598704  1.948230  0.449415
N    -3.240974  0.791163  3.259020
C    -2.602103  0.527365  4.555541
C    -1.881199  1.769887  5.112002
O    -1.039084  2.436319  4.448292
H    -4.244722  0.938810  3.307350
H    -3.443388  0.312651  5.229718
C    -1.669704  -0.724817  4.604827
C    -2.355416  -2.028087  4.303042
C    -2.317436  -2.583832  3.002818
C    -3.025064  -2.735229  5.333374
C    -2.926136  -3.790195  2.728910
C    -3.643247  -3.942983  5.086403
C    -3.598335  -4.484980  3.773552
O    -4.150581  -5.644873  3.442518
H    -1.265339  -0.755472  5.627882
H    -0.820740  -0.591382  3.922147
H    -1.777915  -2.066956  2.209336
H    -3.038719  -2.332013  6.346733
H    -2.894641  -4.242663  1.738693
H    -4.147711  -4.486613  5.886268
H    -4.581423  -6.087811  4.200879
N    -2.186111  2.132604  6.357043
C    -1.563127  3.257524  7.058045
H    -2.960864  1.666252  6.821327
H    -1.583499  3.054496  8.132980
H    -2.109853  4.187566  6.853570
H    -0.530303  3.370481  6.716095
Hg    0.336858  1.664686  2.719096
