34
Energy: -575226.796846 eV PBE+vdW (tier 2 basis)
C    -0.033378  1.447777  0.292264
C    -0.399676  0.136210  0.911452
O    -0.191912  -0.967557  0.366144
H    1.053708  1.481372  0.131987
H    -0.329194  2.317776  0.888600
H    -0.500702  1.514062  -0.699405
N    -1.015670  0.160990  2.140104
C    -1.374208  -1.033271  2.839187
C    -2.793232  -0.993642  3.517294
O    -2.962309  -1.670259  4.530194
H    -1.124882  1.060019  2.608471
H    -1.407582  -1.836700  2.088909
C    -0.355789  -1.416745  3.974675
C    0.809702  -2.133978  3.436899
C    2.100461  -1.535690  3.445809
C    0.645407  -3.404622  2.817751
C    3.178884  -2.145772  2.848722
C    1.699430  -4.049918  2.219048
C    3.008277  -3.452526  2.271161
O    4.011742  -4.221187  1.908801
H    -0.999121  -2.054474  4.629658
H    -0.076935  -0.528739  4.555137
H    2.236688  -0.567145  3.927381
H    -0.332966  -3.886191  2.824624
H    4.171480  -1.693154  2.876084
H    1.604990  -5.046488  1.788312
H    4.888184  -3.801381  2.031232
N    -3.736215  -0.255295  2.919547
C    -5.130708  -0.240539  3.371352
H    -3.521122  0.152441  2.013844
H    -5.591959  0.695071  3.040194
H    -5.152215  -0.303791  4.464024
H    -5.689125  -1.088673  2.953581
Hg    2.041947  -2.054985  -0.210037
