34
Energy: -575226.724854 eV PBE+vdW (tier 2 basis)
C    -3.234591  -1.529715  -0.414341
C    -2.209607  -1.164413  0.620396
O    -1.021314  -0.997327  0.244525
H    -4.260140  -1.512418  -0.029313
H    -3.003198  -2.532732  -0.798567
H    -3.147927  -0.836421  -1.260429
N    -2.633648  -1.032778  1.898163
C    -1.874181  -0.482974  3.022223
C    -1.217632  -1.630371  3.827390
O    -0.199530  -2.224968  3.370475
H    -3.614581  -1.240965  2.064004
H    -1.032943  0.081915  2.592280
C    -2.743167  0.495775  3.850144
C    -3.129494  1.742447  3.094187
C    -2.175288  2.762455  2.865697
C    -4.453453  1.928365  2.634656
C    -2.519766  3.924644  2.210475
C    -4.827148  3.085293  1.978497
C    -3.857882  4.099756  1.760996
O    -4.125024  5.249173  1.152159
H    -2.163539  0.783401  4.740794
H    -3.655102  -0.011262  4.203064
H    -1.155944  2.649184  3.237291
H    -5.206912  1.163371  2.825711
H    -1.803492  4.727844  2.043399
H    -5.855317  3.229509  1.644036
H    -5.062529  5.324536  0.884323
N    -1.741474  -2.010069  4.984755
C    -1.202824  -3.105612  5.799789
H    -2.581084  -1.545437  5.316223
H    -0.109174  -3.056300  5.802118
H    -1.515904  -4.075869  5.393863
H    -1.581236  -2.996981  6.819609
Hg    0.955039  -1.508058  1.445409
