34
Energy: -575226.620348 eV PBE+vdW (tier 2 basis)
C    -2.502375  -1.601465  0.751904
C    -1.392778  -1.168335  1.664805
O    -0.204957  -1.364535  1.288284
H    -2.344374  -1.142498  -0.233374
H    -3.495860  -1.326292  1.122996
H    -2.445081  -2.688764  0.610693
N    -1.734178  -0.575805  2.828081
C    -0.857585  0.196263  3.715050
C    -0.293573  -0.665374  4.868296
O    0.217590  -1.793743  4.628530
H    -2.732671  -0.499179  3.002076
H    0.037578  0.447915  3.119348
C    -1.509698  1.542153  4.075550
C    -2.862011  1.595179  4.749926
C    -3.517693  0.489133  5.337868
C    -3.504894  2.860658  4.796042
C    -4.753722  0.628707  5.942384
C    -4.733219  3.026390  5.398573
C    -5.375990  1.904529  5.980843
O    -6.560478  1.961563  6.579561
H    -1.577549  2.122153  3.140640
H    -0.782860  2.124158  4.673713
H    -3.063449  -0.502269  5.339451
H    -3.017006  3.725367  4.344659
H    -5.268428  -0.216664  6.396837
H    -5.209640  4.007333  5.424903
H    -6.939840  2.862809  6.575917
N    -0.307616  -0.187885  6.111563
C    0.284057  -0.878743  7.257779
H    -0.817580  0.670686  6.297365
H    -0.457705  -1.526853  7.743821
H    0.634821  -0.130403  7.975217
H    1.118736  -1.496768  6.914724
Hg    1.498030  -2.157423  2.665974
