34
Energy: -575226.812678 eV PBE+vdW (tier 2 basis)
C    0.899543  -1.199653  1.100377
C    0.382784  -0.816310  2.447262
O    1.089276  -0.867626  3.504318
H    1.737753  -0.541375  0.826850
H    0.139913  -1.143094  0.314112
H    1.296189  -2.222833  1.149212
N    -0.898085  -0.438473  2.567271
C    -1.541967  -0.080270  3.808542
C    -3.051757  -0.406428  3.572611
O    -3.445100  -0.355802  2.405178
H    -1.555566  -0.507817  1.777627
H    -1.095791  -0.650401  4.631485
C    -1.469409  1.478648  4.122521
C    -0.068567  1.946828  4.311226
C    0.636444  2.539737  3.235661
C    0.605672  1.743745  5.538360
C    1.945901  2.963103  3.371866
C    1.915449  2.143209  5.718348
C    2.588619  2.847793  4.656257
O    3.693278  3.486844  4.985572
H    -2.056196  1.639331  5.036942
H    -1.965787  2.009667  3.300716
H    0.133288  2.685705  2.279490
H    0.085412  1.267880  6.369927
H    2.456044  3.482977  2.558907
H    2.420877  2.058353  6.680407
H    4.067194  4.019783  4.254667
N    -3.831522  -0.684568  4.625942
C    -3.430729  -0.925619  6.010665
H    -4.797510  -0.893917  4.374762
H    -2.886783  -1.873669  6.120423
H    -4.338511  -0.982291  6.618413
H    -2.822513  -0.100791  6.402764
Hg    3.114585  0.233500  3.788862
