34
Energy: -575226.660238 eV PBE+vdW (tier 2 basis)
C    2.460504  2.202842  2.719962
C    1.174462  1.467422  2.979803
O    1.025068  0.334175  2.464603
H    2.568810  2.349712  1.637449
H    3.298308  1.571631  3.043521
H    2.517841  3.172163  3.227296
N    0.260603  2.088550  3.762520
C    -1.048510  1.592063  4.220476
C    -0.881706  0.264934  5.010162
O    -1.284378  -0.840262  4.564645
H    0.516628  3.018392  4.079882
H    -1.383403  2.336907  4.955406
C    -2.112589  1.581505  3.097583
C    -3.540919  1.732452  3.479982
C    -4.369397  2.566342  2.680196
C    -4.124927  1.046611  4.580015
C    -5.696991  2.755060  2.981670
C    -5.453708  1.217786  4.898975
C    -6.257027  2.081699  4.102918
O    -7.542773  2.297004  4.332626
H    -2.028296  0.617748  2.497295
H    -1.835049  2.355190  2.370318
H    -3.940314  3.083464  1.821704
H    -3.533829  0.349244  5.171545
H    -6.336491  3.408506  2.389719
H    -5.897477  0.683587  5.740143
H    -7.878057  1.805841  5.109355
N    -0.317503  0.325211  6.218597
C    0.125694  1.497544  6.971724
H    -0.200738  -0.585712  6.663392
H    -0.628542  2.294761  6.957014
H    1.077418  1.882729  6.582581
H    0.273129  1.198075  8.013078
Hg    -0.771840  -1.222177  2.238848
