34
Energy: -575226.493873 eV PBE+vdW (tier 2 basis)
C    0.573179  0.836768  1.157607
C    0.024118  0.495319  2.507734
O    0.497385  1.045933  3.531972
H    0.123498  0.243928  0.353133
H    1.659934  0.684931  1.164535
H    0.399045  1.903686  0.962096
N    -0.990223  -0.429102  2.568689
C    -1.586069  -0.666520  3.859881
C    -0.820023  -1.692399  4.720281
O    -0.244881  -1.278592  5.774672
H    -1.339947  -0.835605  1.706269
H    -1.295617  0.259748  4.352050
C    -3.135401  -0.642076  4.082305
C    -3.271130  0.010370  5.450142
C    -2.900592  1.344175  5.582663
C    -3.409557  -0.758116  6.634617
C    -2.417040  1.852927  6.826186
C    -3.092667  -0.263357  7.892599
C    -2.564759  1.033467  8.015470
O    -2.234185  1.618128  9.156122
H    -3.604574  -1.631564  4.040113
H    -3.584151  -0.020407  3.294517
H    -2.861313  2.001491  4.711016
H    -3.759686  -1.788961  6.558077
H    -2.251598  2.923009  6.971201
H    -3.240831  -0.880424  8.779531
H    -2.389282  1.045470  9.933288
N    -0.752273  -2.973264  4.388834
C    -1.337000  -3.639160  3.225063
H    -0.175433  -3.547050  5.006012
H    -0.574666  -3.798806  2.451498
H    -2.161813  -3.052570  2.810685
H    -1.734916  -4.611644  3.534480
Hg    -0.188528  1.072264  6.014666
