34
Energy: -575226.481847 eV PBE+vdW (tier 2 basis)
C    0.500244  0.298466  0.308919
C    0.198217  -0.080135  1.722677
O    1.082920  -0.339661  2.570456
H    -0.389664  0.514527  -0.292054
H    1.057326  -0.524618  -0.160494
H    1.161676  1.175705  0.296948
N    -1.117639  -0.177628  2.091767
C    -1.520976  -0.634336  3.386334
C    -2.564299  -1.813287  3.301479
O    -2.112687  -2.885724  3.692749
H    -1.818056  -0.039726  1.366394
H    -0.645739  -1.110097  3.837546
C    -2.005568  0.506538  4.400047
C    -0.817781  1.272390  4.848243
C    -0.457383  2.486110  4.213260
C    0.032027  0.744438  5.855129
C    0.670549  3.187088  4.588754
C    1.168188  1.410020  6.257057
C    1.469849  2.692298  5.680125
O    2.389972  3.407081  6.294095
H    -2.479607  -0.023746  5.236582
H    -2.749837  1.148848  3.919069
H    -1.090802  2.890619  3.423585
H    -0.222222  -0.201806  6.334476
H    0.907795  4.154377  4.142539
H    1.793934  1.050692  7.073840
H    2.506540  4.301558  5.913769
N    -3.802639  -1.644055  2.817093
C    -4.522922  -0.428211  2.441440
H    -4.352535  -2.503429  2.831173
H    -5.061287  0.002236  3.296573
H    -5.252004  -0.686699  1.666369
H    -3.855610  0.331923  2.021185
Hg    2.744288  1.141632  3.575919
