34
Energy: -575226.44073 eV PBE+vdW (tier 2 basis)
C    0.206855  1.251936  1.294917
C    -0.005206  0.624593  2.637153
O    0.743184  0.825824  3.601027
H    -0.196085  2.275790  1.309565
H    -0.283728  0.697909  0.485331
H    1.281588  1.325726  1.098137
N    -1.107268  -0.219557  2.775644
C    -1.463182  -0.683521  4.069665
C    -0.583712  -1.874281  4.602749
O    0.049788  -1.715456  5.668378
H    -1.738006  -0.334654  1.985483
H    -1.106887  0.116695  4.755368
C    -2.991704  -0.884589  4.391675
C    -3.130256  -0.093965  5.659967
C    -3.257024  1.320817  5.580134
C    -2.792692  -0.688287  6.894445
C    -2.961233  2.126695  6.656078
C    -2.453367  0.092230  7.981686
C    -2.545906  1.520959  7.880117
O    -2.316685  2.196490  8.990802
H    -3.250735  -1.941129  4.517869
H    -3.601595  -0.474012  3.576620
H    -3.560798  1.780522  4.638978
H    -2.729972  -1.772782  6.978564
H    -3.070278  3.210494  6.594202
H    -2.179074  -0.340263  8.943562
H    -2.456033  3.160035  8.889646
N    -0.558902  -3.024484  3.937210
C    -1.222155  -3.374360  2.679637
H    0.046564  -3.734477  4.349937
H    -0.605909  -3.091218  1.816927
H    -2.209134  -2.907096  2.601878
H    -1.369369  -4.458851  2.664730
Hg    0.440916  0.658266  6.316921
