34
Energy: -575226.441568 eV PBE+vdW (tier 2 basis)
C    0.864682  -3.431461  2.215384
C    0.245900  -3.175216  3.557112
O    0.916883  -3.378258  4.596242
H    1.435458  -4.366063  2.250631
H    1.576672  -2.621885  1.998198
H    0.123263  -3.478783  1.409161
N    -1.037798  -2.729423  3.596960
C    -1.644396  -2.285071  4.838105
C    -1.935056  -3.442134  5.822918
O    -1.481017  -3.341961  6.999672
H    -1.505517  -2.555265  2.712483
H    -0.877471  -1.707272  5.377086
C    -2.814454  -1.269866  4.675855
C    -4.086639  -1.683256  3.991312
C    -4.222607  -1.585600  2.585641
C    -5.203083  -2.103347  4.755204
C    -5.405168  -1.916108  1.956661
C    -6.400728  -2.432362  4.152624
C    -6.513164  -2.341997  2.739500
O    -7.627517  -2.619661  2.073340
H    -2.382346  -0.407580  4.144482
H    -3.043042  -0.922354  5.692869
H    -3.399917  -1.196249  1.983170
H    -5.125640  -2.146849  5.842107
H    -5.530641  -1.828818  0.878235
H    -7.260954  -2.735980  4.751069
H    -8.366703  -2.872221  2.661823
N    -2.639110  -4.528169  5.505626
C    -3.319146  -4.925481  4.277124
H    -2.702601  -5.192651  6.280230
H    -2.923626  -5.897402  3.954377
H    -3.163281  -4.194259  3.484377
H    -4.395519  -5.028110  4.460793
Hg    0.849285  -2.816886  7.009624
