25
Energy: -572019.1955328  eV PBE+vdW (tier 2 basis)
C    0.621523  -0.475970  1.004486
C    -0.137812  -0.254144  2.278045
O    0.051585  -0.974889  3.301582
H    0.632940  -1.548380  0.777258
H    1.662747  -0.156318  1.154880
H    0.211369  0.078448  0.153990
N    -1.039162  0.741004  2.288607
C    -1.853761  1.175974  3.418080
C    -3.106895  1.863189  2.789721
O    -3.092895  2.169934  1.600326
H    -1.285004  1.217863  1.416454
H    -2.161893  0.294232  3.996983
C    -1.125546  2.182782  4.345043
C    0.119659  1.452982  4.901399
O    -0.074101  0.621224  5.830902
O    1.192187  1.607753  4.250183
H    -1.766621  2.464174  5.186205
H    -0.812937  3.073198  3.791365
N    -4.128910  2.101668  3.634084
C    -5.372796  2.729228  3.198226
H    -4.096764  1.699389  4.565040
H    -5.806898  3.284012  4.036281
H    -6.095695  1.980812  2.845980
H    -5.151533  3.416128  2.375639
Hg    1.741214  -0.594290  4.923244
