25
Energy: -572018.8903052  eV PBE+vdW (tier 2 basis)
C    0.435143  -0.780348  0.395865
C    -0.026256  -0.527448  1.803358
O    0.299520  -1.165502  2.784585
H    -0.407478  -1.088918  -0.239532
H    1.182409  -1.577479  0.403720
H    0.872150  0.128190  -0.041822
N    -0.922359  0.561413  1.944371
C    -1.404963  0.945029  3.210237
C    -2.888766  0.400310  3.594535
O    -3.006303  -0.049228  4.718283
H    -1.167711  1.093794  1.114575
H    -0.791995  0.412958  3.949552
C    -1.434650  2.442427  3.468346
C    0.012950  3.050730  3.354425
O    0.758335  2.670667  2.427857
O    0.230246  3.916071  4.242452
H    -1.832724  2.654652  4.465130
H    -2.025831  3.009810  2.732798
N    -3.887225  0.485368  2.694291
C    -3.875574  0.954984  1.316098
H    -4.752962  0.069144  3.030695
H    -3.418722  0.227706  0.630684
H    -4.915224  1.102473  1.006653
H    -3.378183  1.928217  1.218997
Hg    2.468170  4.303981  3.458849
