25
Energy: -572018.8845963  eV PBE+vdW (tier 2 basis)
C    -2.046275  0.357657  -0.103214
C    -1.200742  -0.319396  0.942139
O    -0.487765  -1.295657  0.708626
H    -2.705471  1.130366  0.307859
H    -2.643987  -0.401536  -0.620708
H    -1.382754  0.814929  -0.848862
N    -1.223736  0.221678  2.207116
C    -0.454900  -0.388986  3.260287
C    -0.922606  -1.875502  3.478264
O    -2.122310  -2.213703  3.605577
H    -1.893909  0.947036  2.449719
H    0.594031  -0.445050  2.934826
C    -0.449952  0.454215  4.549210
C    -1.851177  0.275474  5.166138
O    -2.804679  0.761193  4.486216
O    -1.948862  -0.542459  6.118386
H    -0.267364  1.507597  4.309324
H    0.309801  0.093116  5.247096
N    0.032162  -2.813596  3.502487
C    1.431080  -2.674569  3.105672
H    -0.329028  -3.758408  3.617526
H    1.504810  -2.229890  2.102642
H    1.868960  -3.676146  3.067900
H    2.001876  -2.081612  3.831236
Hg    -3.986205  -1.234750  5.082538
