25
Energy: -572019.3323509  eV PBE+vdW (tier 2 basis)
C    1.187828  -1.666311  1.949887
C    -0.086220  -0.877352  2.016900
O    -0.735841  -0.768833  3.074359
H    1.773705  -1.476547  1.044042
H    0.931134  -2.734656  1.986324
H    1.792966  -1.444803  2.836037
N    -0.499689  -0.269742  0.868711
C    -1.779151  0.423923  0.722765
C    -2.054701  1.349272  1.947165
O    -2.980870  1.190856  2.801137
H    0.012398  -0.468719  0.014534
H    -1.633140  1.126865  -0.109871
C    -2.968560  -0.493006  0.278905
C    -2.822818  -2.004837  0.556195
O    -2.413187  -2.763729  -0.300757
O    -3.173008  -2.529419  1.737995
H    -3.042402  -0.420616  -0.811986
H    -3.914363  -0.099036  0.677672
N    -1.289706  2.431890  2.017277
C    -1.358957  3.410821  3.100067
H    -0.625545  2.598084  1.266794
H    -1.604535  2.898270  4.035097
H    -2.130595  4.163806  2.894294
H    -0.386289  3.903295  3.189033
Hg    -3.238453  -1.003475  3.179425
