25
Energy: -572018.8713245  eV PBE+vdW (tier 2 basis)
C    0.806063  -1.447341  1.424198
C    0.243937  -0.066559  1.530917
O    0.963242  0.884307  1.048262
H    0.080983  -2.200590  1.749368
H    1.147051  -1.650900  0.405746
H    1.673179  -1.496897  2.101553
N    -0.787428  0.211365  2.393456
C    -2.160163  -0.262707  2.214365
C    -2.295480  -0.775101  0.751141
O    -1.374279  -0.571687  -0.050371
H    -0.749618  1.172791  2.748334
H    -2.403345  -1.077335  2.914543
C    -3.171449  0.923080  2.492353
C    -2.531336  2.140793  1.826514
O    -1.749683  2.829497  2.533911
O    -2.577050  2.185298  0.542667
H    -3.272554  1.099959  3.567811
H    -4.148400  0.681697  2.062009
N    -3.421243  -1.434720  0.451224
C    -3.719478  -1.937239  -0.887524
H    -4.119995  -1.566657  1.175025
H    -4.298393  -2.862388  -0.803282
H    -2.778537  -2.140436  -1.407220
H    -4.293348  -1.201313  -1.466070
Hg    -0.345677  2.594082  0.475071
