25
Energy: -572018.7762117  eV PBE+vdW (tier 2 basis)
C    -0.534421  -1.874535  -0.203908
C    -0.516641  -1.460807  1.234207
O    -0.053523  -2.264414  2.100095
H    -0.410022  -1.024922  -0.883760
H    -1.490053  -2.376804  -0.418810
H    0.261735  -2.607657  -0.368305
N    -0.966558  -0.240352  1.598301
C    -2.087147  0.508210  0.995616
C    -1.811207  2.013363  1.204817
O    -1.353954  2.660166  0.266045
H    -0.812645  -0.024919  2.583554
H    -2.059944  0.352926  -0.088173
C    -3.490673  0.031919  1.532793
C    -3.200858  -0.866847  2.745760
O    -3.250257  -2.115327  2.517120
O    -2.724061  -0.327545  3.781849
H    -4.025519  -0.535275  0.766746
H    -4.103910  0.883656  1.847378
N    -2.067663  2.515478  2.433021
C    -1.804664  3.909011  2.774524
H    -2.366021  1.878361  3.171231
H    -1.958026  4.528304  1.884595
H    -0.771082  4.048979  3.120384
H    -2.494101  4.218389  3.566360
Hg    -1.494785  -2.528357  3.986560
