25
Energy: -572018.7625259  eV PBE+vdW (tier 2 basis)
C    -0.444183  -1.390375  0.723379
C    -0.302283  0.085657  0.909254
O    0.735306  0.676146  0.468709
H    -0.380758  -1.887906  1.700337
H    -1.422576  -1.644226  0.294080
H    0.344514  -1.747157  0.057793
N    -1.231330  0.803031  1.581151
C    -2.697987  0.640530  1.645885
C    -3.086592  -0.655548  2.404274
O    -2.285861  -1.133084  3.203263
H    -0.942844  1.768918  1.727703
H    -3.018317  1.453277  2.313063
C    -3.369532  0.867980  0.255993
C    -2.345421  1.649110  -0.608044
O    -1.725307  0.971729  -1.472640
O    -2.058819  2.829359  -0.249429
H    -4.288159  1.456810  0.360122
H    -3.580383  -0.069768  -0.265869
N    -4.316405  -1.154725  2.168378
C    -4.851156  -2.289076  2.918760
H    -4.953403  -0.638075  1.571822
H    -5.616750  -2.785394  2.314665
H    -5.291671  -1.965627  3.871451
H    -4.038484  -2.990574  3.131423
Hg    0.161950  2.388152  -1.065247
