25
Energy: -572019.1696300  eV PBE+vdW (tier 2 basis)
C    -1.374597  -0.473667  -0.529974
C    -0.806485  -0.320031  0.852386
O    0.403740  -0.268326  1.084055
H    -2.466567  -0.558445  -0.548880
H    -1.072177  0.396002  -1.128106
H    -0.929864  -1.358470  -1.001480
N    -1.714681  -0.210166  1.886456
C    -1.302773  -0.053714  3.251882
C    -0.725106  -1.410596  3.873951
O    -1.430251  -2.064959  4.636815
H    -2.710976  -0.348500  1.717435
H    -0.426977  0.622022  3.275636
C    -2.378719  0.542892  4.125252
C    -3.630387  -0.371745  4.288531
O    -4.108755  -0.902842  3.251221
O    -4.088195  -0.476240  5.459936
H    -2.751947  1.478463  3.686110
H    -1.991401  0.748701  5.126391
N    0.528903  -1.695283  3.503666
C    1.182285  -2.946572  3.866237
H    0.914840  -1.123098  2.744246
H    0.983865  -3.733501  3.125082
H    2.262198  -2.774702  3.921653
H    0.806495  -3.276890  4.840238
Hg    -5.861465  -1.836332  4.758261
