25
Energy: -572018.7111176  eV PBE+vdW (tier 2 basis)
C    0.544429  0.391152  0.052438
C    0.289780  -0.105119  1.453690
O    1.155087  -0.619394  2.157644
H    -0.372580  0.484579  -0.540568
H    1.243936  -0.287701  -0.445654
H    1.026662  1.376612  0.115863
N    -0.991852  0.043389  1.940883
C    -1.237417  -0.182114  3.351389
C    -0.695836  -1.551930  3.850666
O    -0.071185  -1.614041  4.956231
H    -1.653372  0.608136  1.416686
H    -0.672214  0.542970  3.956357
C    -2.746670  0.028664  3.670465
C    -2.807910  -0.310571  5.170766
O    -3.119604  -1.490195  5.474954
O    -2.249960  0.545561  5.928068
H    -3.399878  -0.639407  3.100676
H    -3.018610  1.076690  3.501785
N    -0.905183  -2.685958  3.178498
C    -1.533951  -2.918645  1.885600
H    -0.454446  -3.487557  3.616669
H    -1.861829  -3.962795  1.856107
H    -0.829179  -2.750220  1.059223
H    -2.409504  -2.279536  1.747579
Hg    -1.230714  -1.254569  7.017986
