25
Energy: -572018.8892520  eV PBE+vdW (tier 2 basis)
C    0.354467  -0.931521  0.430680
C    -0.063256  -0.500963  1.800407
O    0.833578  -0.473543  2.720375
H    -0.298385  -0.537370  -0.354769
H    0.359514  -2.029986  0.386661
H    1.382874  -0.593186  0.260823
N    -1.320253  -0.138738  2.067061
C    -2.566080  -0.566579  1.433163
C    -3.580559  0.528257  1.852934
O    -3.303115  1.237708  2.821957
H    -1.533548  0.382125  2.933747
H    -2.442955  -0.618323  0.345648
C    -3.041570  -1.984237  1.970784
C    -2.022111  -2.414880  3.035273
O    -1.019818  -3.070141  2.667367
O    -2.162835  -1.869437  4.189034
H    -3.050885  -2.725200  1.167297
H    -4.033417  -1.908490  2.426758
N    -4.732280  0.616444  1.160555
C    -5.118417  -0.136106  -0.028893
H    -5.369082  1.329389  1.506399
H    -4.433297  0.044209  -0.868889
H    -6.113151  0.199592  -0.335012
H    -5.181522  -1.215504  0.165016
Hg    0.100103  -1.771518  4.455625
