25
Energy: -572019.0822703  eV PBE+vdW (tier 2 basis)
C    0.569754  0.851980  -0.477089
C    0.051405  -0.407652  0.173045
O    0.473705  -1.482698  -0.333642
H    1.644506  0.741074  -0.657029
H    0.079695  0.956293  -1.454936
H    0.390645  1.757316  0.113242
N    -0.799163  -0.204297  1.207487
C    -1.585674  -1.011531  2.174335
C    -0.749177  -2.106307  2.878064
O    0.115954  -2.802564  2.310645
H    -0.959526  0.787336  1.349556
H    -1.835288  -0.280203  2.955873
C    -2.971439  -1.505699  1.637467
C    -2.708256  -2.459258  0.476365
O    -2.354583  -3.663171  0.893192
O    -2.606180  -2.021531  -0.667489
H    -3.549799  -0.643900  1.287350
H    -3.500844  -1.998468  2.461565
N    -1.017291  -2.261810  4.181314
C    -0.382789  -3.296684  4.994851
H    -1.663886  -1.626259  4.635171
H    0.667333  -3.048249  5.194319
H    -0.423125  -4.257453  4.470122
H    -0.923095  -3.374985  5.942178
Hg    -0.372882  -3.522283  0.010042
