25
Energy: -572018.8799999  eV PBE+vdW (tier 2 basis)
C    0.509828  -0.555068  0.901647
C    -0.254787  0.466958  1.697470
O    0.243311  1.488542  2.142959
H    0.232007  -1.591221  1.127382
H    0.333732  -0.379916  -0.169683
H    1.575942  -0.411550  1.097377
N    -1.627913  0.275870  1.942302
C    -2.444811  -0.895116  1.781634
C    -1.901206  -2.197311  2.447740
O    -2.109040  -3.273646  1.889301
H    -2.039851  1.089264  2.399944
H    -3.403066  -0.685486  2.279185
C    -2.738667  -1.187212  0.298581
C    -3.955183  -2.163936  0.139801
O    -3.861850  -2.836426  -0.933287
O    -4.887867  -2.160034  0.957885
H    -1.885260  -1.619822  -0.228314
H    -3.044712  -0.265375  -0.217656
N    -1.266152  -2.046628  3.622805
C    -0.787961  -3.173476  4.416427
H    -1.209732  -1.113607  4.019473
H    -1.555500  -3.517992  5.122641
H    -0.534255  -3.998596  3.743510
H    0.101950  -2.865329  4.974808
Hg    -5.830462  -3.998699  -0.537173
