25
Energy: -572018.8951260  eV PBE+vdW (tier 2 basis)
C    0.137766  0.488410  0.044802
C    -0.584646  -0.040018  1.256573
O    -1.774225  -0.314846  1.295240
H    1.062740  -0.067063  -0.159673
H    0.409414  1.541555  0.207563
H    -0.526607  0.426001  -0.820586
N    0.202686  -0.218636  2.397088
C    -0.330993  -0.719919  3.634527
C    -1.259370  -1.970377  3.532085
O    -2.311995  -1.946427  4.174340
H    1.207319  -0.087254  2.318221
H    0.518070  -1.001680  4.273953
C    -1.147714  0.388780  4.321007
C    -1.520982  0.006678  5.796428
O    -2.590872  0.574450  6.170127
O    -0.753796  -0.695033  6.478959
H    -2.068850  0.603410  3.775108
H    -0.551942  1.309245  4.409983
N    -0.852847  -3.051307  2.840606
C    0.364299  -3.241031  2.065050
H    -1.542449  -3.797947  2.818923
H    0.296660  -2.794486  1.062740
H    0.524619  -4.317779  1.947371
H    1.238813  -2.837768  2.588835
Hg    -2.529099  -0.435957  8.256732
