25
Energy: -572019.1055072  eV PBE+vdW (tier 2 basis)
C    1.407629  -1.167208  1.767443
C    0.708996  -0.046898  2.476713
O    1.358016  0.838642  3.113286
H    1.966800  -0.753961  0.916134
H    0.725473  -1.937568  1.393591
H    2.136743  -1.619173  2.450948
N    -0.631053  -0.032349  2.428835
C    -1.527852  0.955768  3.024484
C    -2.856728  0.190652  3.302314
O    -3.025930  -0.899056  2.753059
H    -1.138964  -0.836160  2.045735
H    -1.088131  1.304327  3.968317
C    -1.792760  2.162592  2.090229
C    -0.424915  2.844061  1.870501
O    0.226057  2.485588  0.847975
O    0.019042  3.541738  2.827125
H    -2.466985  2.880967  2.565258
H    -2.201215  1.833701  1.130225
N    -3.761341  0.756590  4.123217
C    -3.669414  1.992688  4.889943
H    -4.613365  0.208603  4.220584
H    -4.156868  1.845486  5.859925
H    -2.625650  2.261012  5.085772
H    -4.164209  2.829685  4.377018
Hg    2.165622  2.830273  2.159368
