25
Energy: -572019.1049921  eV PBE+vdW (tier 2 basis)
C    -0.063902  0.644725  -0.040723
C    -0.818258  0.619803  1.258311
O    -1.228270  1.621683  1.834310
H    -0.588725  1.312629  -0.733637
H    0.931890  1.075760  0.131196
H    0.046877  -0.344510  -0.498583
N    -1.019196  -0.634594  1.835766
C    -1.745553  -0.800454  3.061803
C    -0.842441  -0.724935  4.341470
O    -0.830136  -1.668536  5.131070
H    -0.469243  -1.416571  1.485525
H    -2.446825  0.044436  3.124972
C    -2.479425  -2.141742  3.029504
C    -3.474100  -2.315250  4.217463
O    -3.767641  -3.531176  4.433101
O    -3.932038  -1.316969  4.808018
H    -1.792053  -2.993396  3.060397
H    -3.089624  -2.219607  2.117729
N    -0.144897  0.416307  4.470869
C    0.658147  0.712667  5.650209
H    -0.350679  1.166926  3.811191
H    1.045358  -0.226364  6.059200
H    1.489628  1.364044  5.361889
H    0.062331  1.214299  6.425541
Hg    -5.158224  -2.969175  6.218407
