25
Energy: -572018.6403681  eV PBE+vdW (tier 2 basis)
C    1.120419  -0.096434  0.368840
C    -0.012978  -0.062734  1.368255
O    -1.101449  0.451029  1.093464
H    1.491057  0.928583  0.235713
H    0.730031  -0.432025  -0.598235
H    1.951770  -0.740665  0.675748
N    0.232227  -0.630141  2.583022
C    -0.643132  -0.592965  3.753514
C    -1.205855  -1.989855  4.165005
O    -1.145069  -2.345831  5.371877
H    1.164540  -0.996918  2.746358
H    0.000450  -0.337765  4.605046
C    -1.745109  0.507858  3.707004
C    -2.384033  0.350559  5.122983
O    -3.415722  -0.356416  5.199739
O    -1.636321  0.718282  6.076313
H    -2.512626  0.353769  2.949905
H    -1.293749  1.498944  3.607270
N    -1.712458  -2.834319  3.258838
C    -1.929467  -2.671880  1.825079
H    -1.989302  -3.725751  3.666774
H    -2.172112  -1.636443  1.571029
H    -2.779769  -3.301081  1.542085
H    -1.052179  -2.992423  1.246600
Hg    -2.405162  -1.150376  7.274775
