25
Energy: -572018.8719490  eV PBE+vdW (tier 2 basis)
C    0.688256  -1.426237  0.911903
C    0.241206  -0.030485  1.204552
O    0.923283  0.916085  0.663420
H    -0.017805  -2.163587  1.307626
H    0.838712  -1.569738  -0.161269
H    1.652272  -1.571413  1.424510
N    -0.606667  0.234222  2.251086
C    -2.016292  -0.157798  2.288023
C    -2.434639  -0.554770  0.842313
O    -1.657535  -0.334781  -0.095639
H    -0.449431  1.163896  2.654242
H    -2.183773  -1.007601  2.968191
C    -2.890398  1.053298  2.813304
C    -2.300246  2.283634  2.124849
O    -2.564618  2.424889  0.874618
O    -1.367434  2.878744  2.725493
H    -2.796171  1.155525  3.898948
H    -3.939067  0.892611  2.544618
N    -3.632954  -1.136912  0.708032
C    -4.197173  -1.519225  -0.584011
H    -4.198090  -1.290676  1.536740
H    -4.871503  -0.740556  -0.964013
H    -4.752196  -2.456440  -0.473482
H    -3.379570  -1.659836  -1.296656
Hg    -0.359164  2.724151  0.437602
