25
Energy: -572018.9692352  eV PBE+vdW (tier 2 basis)
C    0.233285  -0.401286  0.397822
C    -0.285540  -0.001022  1.743051
O    0.569725  0.306701  2.648381
H    0.443954  -1.480528  0.401440
H    1.182885  0.116934  0.225711
H    -0.466470  -0.169610  -0.411810
N    -1.597831  0.050993  1.993656
C    -2.675218  -0.729494  1.385979
C    -3.941945  0.137332  1.585683
O    -3.946749  0.964746  2.496356
H    -1.935009  0.551140  2.828006
H    -2.452784  -0.903592  0.326964
C    -2.867015  -2.126110  2.117733
C    -1.742831  -2.236900  3.161243
O    -0.626412  -2.669405  2.793942
O    -1.977795  -1.658713  4.282480
H    -2.781087  -2.953418  1.407842
H    -3.835186  -2.161534  2.625023
N    -4.978116  -0.132383  0.768547
C    -6.267169  0.544896  0.870787
H    -4.838822  -0.785088  0.004518
H    -6.298984  1.079082  1.824604
H    -7.078613  -0.190971  0.834278
H    -6.396142  1.266607  0.053837
Hg    0.206867  -1.038376  4.471927
