25
Energy: -572018.9953170  eV PBE+vdW (tier 2 basis)
C    -0.127776  -0.013869  -0.076089
C    0.132420  -0.482511  1.335175
O    1.271711  -0.987729  1.525817
H    -0.233910  -0.900943  -0.715347
H    0.745821  0.544615  -0.429635
H    -1.022896  0.610000  -0.174794
N    -0.900374  -0.299352  2.193183
C    -1.224498  -0.550358  3.619857
C    -0.143448  -0.031217  4.589520
O    1.076966  -0.042779  4.323220
H    -1.693224  0.111939  1.712366
H    -2.107845  0.081222  3.785772
C    -1.712167  -2.006004  3.928427
C    -0.547866  -2.952643  3.645552
O    -0.411293  -3.443931  2.528392
O    0.351168  -2.930856  4.614646
H    -2.558526  -2.249143  3.277252
H    -2.027092  -2.054923  4.976979
N    -0.573159  0.476188  5.755895
C    -1.938816  0.682664  6.229302
H    0.185896  0.765901  6.368850
H    -2.461386  -0.266475  6.406629
H    -2.521938  1.297801  5.530729
H    -1.889013  1.221021  7.179828
Hg    1.917243  -2.130614  3.334469
