25
Energy: -572018.7997851  eV PBE+vdW (tier 2 basis)
C    -0.252568  0.421004  0.187400
C    -0.205873  0.508152  1.679320
O    0.664766  1.231298  2.253776
H    0.524160  1.065664  -0.230386
H    -1.230313  0.742061  -0.197796
H    -0.093450  -0.614343  -0.141543
N    -1.058898  -0.220832  2.447508
C    -2.466758  -0.585567  2.170571
C    -2.647462  -1.426017  0.878338
O    -3.370433  -1.017580  -0.029345
H    -0.856010  -0.128832  3.442615
H    -2.755612  -1.222773  3.016074
C    -3.415130  0.659307  2.137130
C    -2.618479  1.860676  2.668070
O    -2.333486  1.837710  3.911376
O    -2.118829  2.656261  1.829295
H    -4.286292  0.486365  2.775970
H    -3.730500  0.850614  1.106644
N    -1.971321  -2.591870  0.845076
C    -2.055519  -3.520360  -0.277707
H    -1.467091  -2.884866  1.675736
H    -1.093848  -4.029356  -0.401776
H    -2.295114  -2.955457  -1.184065
H    -2.842388  -4.269570  -0.116045
Hg    -0.371552  3.041312  3.424766
