25
Energy: -572018.9692118  eV PBE+vdW (tier 2 basis)
C    0.117030  -0.731565  0.155148
C    -0.188379  -0.302579  1.556019
O    0.798282  -0.045276  2.333283
H    1.063411  -0.270258  -0.146784
H    -0.670180  -0.456605  -0.554393
H    0.261808  -1.821431  0.136424
N    -1.450122  -0.173793  1.982504
C    -2.635737  -0.900370  1.526933
C    -3.821710  0.051891  1.807184
O    -3.689639  0.910150  2.678462
H    -1.634395  0.342109  2.851901
H    -2.529976  -1.133994  0.461574
C    -2.836944  -2.246633  2.341740
C    -1.568664  -2.444370  3.190165
O    -0.559475  -2.954317  2.653782
O    -1.581866  -1.856237  4.330788
H    -2.955446  -3.097186  1.664671
H    -3.702237  -2.166661  3.005277
N    -4.947931  -0.181432  1.105304
C    -6.174903  0.584811  1.300495
H    -4.923391  -0.863442  0.354600
H    -6.116910  1.087878  2.270020
H    -7.037462  -0.090509  1.286522
H    -6.295897  1.342530  0.515276
Hg    0.642734  -1.397712  4.184104
