25
Energy: -572018.9274254  eV PBE+vdW (tier 2 basis)
C    0.269573  -1.475050  1.385051
C    0.171065  -0.163522  2.118579
O    1.034591  0.271760  2.861138
H    1.266502  -1.887266  1.559604
H    -0.477170  -2.191930  1.755469
H    0.113377  -1.352247  0.304397
N    -0.984771  0.616198  1.929639
C    -2.221847  0.214813  1.333368
C    -2.820887  1.279162  0.369009
O    -4.042286  1.308220  0.220217
H    -0.983415  1.453467  2.515854
H    -2.051647  -0.690116  0.733663
C    -3.280397  -0.102808  2.410761
C    -4.494439  -0.880602  1.808629
O    -5.581152  -0.608218  2.404636
O    -4.312276  -1.720704  0.908531
H    -3.653046  0.798456  2.906867
H    -2.856419  -0.774229  3.172435
N    -1.944555  2.083149  -0.254853
C    -2.341377  3.072562  -1.250094
H    -0.956061  1.917398  -0.088399
H    -3.349299  3.428458  -1.014640
H    -1.637561  3.910554  -1.220755
H    -2.346346  2.641222  -2.260305
Hg    -6.821429  -2.002796  1.019476
