25
Energy: -572018.9430490  eV PBE+vdW (tier 2 basis)
C    -1.439069  -1.086388  -0.603329
C    -0.858360  -0.983351  0.772270
O    -0.006320  -1.825644  1.161440
H    -2.297999  -1.774243  -0.577741
H    -0.687743  -1.529931  -1.265449
H    -1.766404  -0.122085  -1.007147
N    -1.246009  0.031892  1.597315
C    -2.597605  0.598731  1.656756
C    -2.651841  2.136321  1.680854
O    -3.658387  2.651869  2.172445
H    -0.749622  0.030409  2.491713
H    -3.131199  0.279214  0.752555
C    -3.377301  0.049237  2.904674
C    -2.740176  -1.319283  3.213532
O    -2.985745  -2.274392  2.432085
O    -1.825841  -1.311273  4.101780
H    -4.435865  -0.082141  2.664864
H    -3.269638  0.718755  3.760971
N    -1.614371  2.804458  1.150186
C    -1.565215  4.260609  1.062200
H    -0.852480  2.260270  0.757921
H    -2.305445  4.674707  1.753352
H    -1.799922  4.601495  0.045325
H    -0.565953  4.612908  1.340385
Hg    -0.790490  -3.132144  3.064045
