25
Energy: -572018.9713747  eV PBE+vdW (tier 2 basis)
C    -0.167339  0.714808  -0.199649
C    -0.060680  0.330880  1.251253
O    0.936299  0.504026  1.935983
H    0.725929  0.362617  -0.727982
H    -0.170867  1.811407  -0.266397
H    -1.065502  0.328649  -0.694612
N    -1.199961  -0.257263  1.814202
C    -1.253696  -0.652415  3.190521
C    -1.596272  -2.159611  3.402613
O    -2.649031  -2.444910  3.980855
H    -2.003423  -0.438821  1.216641
H    -0.256753  -0.441213  3.605458
C    -2.323161  0.190827  3.895421
C    -2.326413  -0.042360  5.446466
O    -3.423503  0.311930  5.971913
O    -1.310109  -0.467689  6.023316
H    -3.331882  -0.022411  3.530817
H    -2.114282  1.262251  3.762375
N    -0.722788  -3.082295  2.963411
C    0.544705  -2.876515  2.270974
H    -1.031999  -4.040549  3.107669
H    1.172159  -3.757546  2.438755
H    1.075634  -2.002915  2.664246
H    0.405417  -2.752598  1.187562
Hg    -2.711483  -0.311283  8.103191
