25
Energy: -572018.9026034  eV PBE+vdW (tier 2 basis)
C    0.667033  0.602039  0.904401
C    -0.021433  0.928984  2.206244
O    0.316204  1.839697  2.948449
H    1.731204  0.840273  0.993731
H    0.245023  1.241897  0.116231
H    0.540784  -0.446122  0.608626
N    -1.103065  0.116448  2.545850
C    -1.999058  0.548364  3.604435
C    -1.292944  0.486136  4.998474
O    -1.588182  1.246471  5.959984
H    -1.484197  -0.481389  1.817491
H    -2.268752  1.606889  3.475746
C    -3.295911  -0.299245  3.542119
C    -4.093108  0.186647  4.763933
O    -4.025369  -0.509253  5.807430
O    -4.504798  1.387496  4.675868
H    -3.093472  -1.372166  3.625632
H    -3.846702  -0.072656  2.622422
N    -0.332181  -0.424229  5.125693
C    0.476951  -0.589127  6.325967
H    -0.060306  -0.911015  4.274712
H    1.258111  0.181402  6.378871
H    0.944307  -1.577795  6.300495
H    -0.159926  -0.507302  7.212386
Hg    -3.817210  1.673557  6.877810
