25
Energy: -572018.9023375  eV PBE+vdW (tier 2 basis)
C    0.622307  0.677957  0.915923
C    -0.060566  0.937961  2.235703
O    0.252739  1.836990  3.002348
H    0.167482  1.327021  0.153986
H    0.529924  -0.364067  0.587750
H    1.678315  0.951640  1.000345
N    -1.106842  0.075195  2.562074
C    -2.004917  0.439681  3.644015
C    -1.280383  0.357998  5.027468
O    -1.592149  1.073572  6.017656
H    -1.474771  -0.513395  1.819542
H    -2.314300  1.491236  3.552956
C    -3.270805  -0.452462  3.568026
C    -4.070685  -0.035807  4.813409
O    -3.966084  -0.762255  5.832708
O    -4.526196  1.151590  4.769080
H    -3.028542  -1.519355  3.614362
H    -3.840305  -0.216717  2.662128
N    -0.284373  -0.518478  5.114006
C    0.542496  -0.691734  6.301159
H    -0.004090  -0.966697  4.244857
H    1.078917  -1.641227  6.218172
H    -0.091710  -0.706302  7.193445
H    1.266863  0.128603  6.395087
Hg    -3.824326  1.391054  6.971795
