25
Energy: -572018.9687049  eV PBE+vdW (tier 2 basis)
C    0.635985  -1.868414  0.632625
C    -0.150489  -1.742674  1.899538
O    -0.104975  -2.716080  2.733457
H    1.504066  -2.507102  0.827710
H    0.969154  -0.900588  0.243507
H    0.019260  -2.373811  -0.124662
N    -0.866385  -0.644401  2.165327
C    -1.501068  0.274924  1.220961
C    -1.599749  1.618393  1.982291
O    -1.595908  1.594875  3.212257
H    -1.195839  -0.478621  3.125261
H    -0.886127  0.351681  0.317105
C    -2.957870  -0.215094  0.824473
C    -3.137172  -1.613734  1.438925
O    -2.689332  -2.604231  0.817912
O    -3.536834  -1.625827  2.658434
H    -3.064322  -0.281752  -0.261821
H    -3.713545  0.458300  1.238395
N    -1.747596  2.719701  1.220500
C    -1.927138  4.055288  1.781170
H    -1.663543  2.630304  0.213441
H    -1.015137  4.655000  1.664552
H    -2.150302  3.952227  2.846925
H    -2.759292  4.561737  1.278591
Hg    -2.247844  -3.446101  3.117125
