25
Energy: -572018.8039761  eV PBE+vdW (tier 2 basis)
C    0.677396  -1.569924  1.383191
C    0.347035  -0.121717  1.521815
O    1.064442  0.737661  0.925683
H    0.028217  -2.208286  1.990931
H    0.630839  -1.859676  0.325993
H    1.717488  -1.714187  1.709483
N    -0.681282  0.274939  2.322133
C    -2.056303  -0.235531  2.210195
C    -2.366788  -0.547674  0.721981
O    -1.760424  0.049129  -0.198089
H    -0.687378  1.288039  2.484661
H    -2.199144  -1.134103  2.829128
C    -3.028036  0.876928  2.714773
C    -3.005204  2.033019  1.681663
O    -3.876284  2.146234  0.846339
O    -1.871083  2.739334  1.769906
H    -2.706936  1.216758  3.706892
H    -4.045738  0.479468  2.779393
N    -3.314544  -1.457089  0.491313
C    -3.836597  -1.775431  -0.835911
H    -3.749516  -1.906033  1.291745
H    -3.979913  -2.857691  -0.920990
H    -3.116627  -1.439925  -1.586557
H    -4.794214  -1.265590  -1.002871
Hg    -0.526407  2.277346  0.141199
