25
Energy: -572018.9937680  eV PBE+vdW (tier 2 basis)
C    -2.745530  1.236834  1.472805
C    -2.321473  0.294455  2.573203
O    -3.253326  -0.094853  3.328020
H    -3.655672  0.846661  1.004316
H    -1.978776  1.391352  0.705703
H    -2.997551  2.203120  1.930730
N    -0.997146  0.008171  2.595810
C    -0.042260  -0.797369  3.397581
C    -0.502915  -2.253864  3.609066
O    -1.700901  -2.579508  3.747706
H    -0.512273  0.511169  1.860365
H    0.840693  -0.851250  2.746288
C    0.466360  -0.093418  4.700547
C    -0.733921  0.084756  5.627552
O    -1.409758  1.108456  5.569819
O    -1.059050  -1.043802  6.234716
H    0.887654  0.883944  4.442149
H    1.240542  -0.720002  5.157800
N    0.455014  -3.194577  3.611160
C    1.888200  -3.057548  3.368063
H    0.096068  -4.129402  3.793011
H    2.092152  -2.588492  2.396017
H    2.324693  -4.059999  3.348329
H    2.388248  -2.488136  4.162475
Hg    -3.007072  -1.163701  5.274771
