20
Energy: -601092.822711 eV PBE+vdW (tier 2 basis)
N    0.325388  -0.172660  -0.517103
C    -0.042524  0.445207  0.822434
C    1.158714  1.186491  1.379385
O    1.002193  1.894350  2.431526
H    1.206937  -0.703400  -0.454062
H    0.438593  0.526363  -1.264129
H    -0.836304  1.180215  0.623070
C    -0.590757  -0.640163  1.795394
C    -1.876551  -1.260503  1.232336
C    0.460207  -1.694894  2.161199
H    -0.854232  -0.069067  2.699086
H    -2.324973  -1.914649  1.990113
H    -1.698178  -1.911724  0.359333
H    -2.628274  -0.505960  0.965456
H    1.373552  -1.261025  2.592456
H    0.747504  -2.327785  1.307331
H    0.046843  -2.375358  2.915006
O    2.305730  1.091516  0.817155
H    -0.425417  -0.825250  -0.797147
Pb    3.222548  2.534295  2.458159
