20
Energy: -601092.583709 eV PBE+vdW (tier 2 basis)
N    0.995574  -2.103367  0.567642
C    0.139428  -0.929751  0.932503
C    0.845380  -0.185305  2.048666
O    1.545936  -0.781679  2.908846
H    1.785142  -1.804750  -0.019577
H    0.450602  -2.753036  -0.012496
H    0.018552  -0.255437  0.073117
C    -1.280049  -1.420428  1.384207
C    -1.248727  -2.391463  2.571308
C    -2.236421  -0.251044  1.654172
H    -1.659296  -1.965081  0.502484
H    -0.682434  -3.337003  2.366576
H    -2.254027  -2.792173  2.771218
H    -0.924811  -1.924853  3.515304
H    -2.249861  0.459375  0.818253
H    -1.983065  0.297082  2.571281
H    -3.256700  -0.634307  1.774311
O    0.636467  1.094023  2.080720
H    1.070751  1.529682  2.850764
Pb    1.766556  -3.067485  2.702702
