20
Energy: -601092.600814 eV PBE+vdW (tier 2 basis)
N    0.759355  -1.337322  0.547645
C    0.213102  -0.604711  1.730717
C    1.100621  -0.911962  2.919302
O    1.721906  -2.001539  3.029093
H    1.567928  -0.838520  0.155270
H    0.048427  -1.342811  -0.195045
H    0.217441  0.480274  1.554219
C    -1.258788  -1.057696  2.025162
C    -2.193364  -0.601397  0.895973
C    -1.387380  -2.562192  2.304535
H    -1.545928  -0.523302  2.944197
H    -3.234488  -0.802762  1.177476
H    -2.024823  -1.138122  -0.051591
H    -2.107580  0.475669  0.706391
H    -1.161675  -3.187309  1.404830
H    -2.436186  -2.834614  2.497221
H    -0.838250  -2.910262  3.194723
O    1.120487  0.004942  3.836528
H    1.659779  -0.251366  4.620315
Pb    1.382418  -3.569997  1.371037
