20
Energy: -601092.224384 eV PBE+vdW (tier 2 basis)
N    0.985379  -1.873547  0.903174
C    0.252555  -0.607848  1.242335
C    1.139934  0.280939  2.103920
O    2.315890  -0.038707  2.431773
H    0.493982  -2.658254  1.354424
H    0.908530  -2.056183  -0.103553
H    0.089986  -0.054479  0.301890
C    -1.140477  -0.882394  1.901230
C    -2.071290  -1.601531  0.917472
C    -1.009947  -1.610355  3.244649
H    -1.580898  0.113389  2.088987
H    -2.173387  -1.060387  -0.032476
H    -3.071742  -1.684257  1.359028
H    -1.744508  -2.629684  0.700200
H    -0.633720  -2.641148  3.137020
H    -2.000362  -1.710252  3.704809
H    -0.374323  -1.078714  3.967695
O    0.722720  1.429936  2.532960
H    -0.200615  1.645122  2.280222
Pb    3.338291  -1.886646  1.696241
