20
Energy: -601091.027599 eV PBE+vdW (tier 2 basis)
N    -0.131794  0.061683  -0.127681
C    -0.279729  0.077250  1.312950
C    1.182562  0.395383  1.597775
O    1.610065  1.607465  1.627381
H    -0.612893  0.770726  -0.672464
H    -0.051288  -0.842140  -0.587027
H    -0.883619  0.939724  1.625280
C    -0.805387  -1.206458  1.979517
C    -0.749475  -1.081486  3.507587
C    -2.225273  -1.509324  1.482594
H    -0.160450  -2.054618  1.658166
H    -1.073936  -2.018939  3.974598
H    -1.424885  -0.290087  3.860627
H    0.258053  -0.866224  3.896479
H    -2.922954  -0.715532  1.783719
H    -2.579107  -2.447355  1.926506
H    -2.280220  -1.621435  0.392629
O    2.097295  -0.531266  1.727511
H    1.695500  -1.428373  1.785142
Pb    3.437505  2.716501  2.011868
