20
Energy: -601092.819859 eV PBE+vdW (tier 2 basis)
N    0.390010  -0.282455  -0.451090
C    -0.041981  0.464801  0.801650
C    1.163516  1.180710  1.389770
O    1.011504  1.849546  2.466962
H    -0.428737  -0.500163  -1.037208
H    0.834030  -1.178811  -0.195231
H    -0.746966  1.244470  0.471959
C    -0.758153  -0.488537  1.795168
C    -2.058893  -1.029805  1.186508
C    0.165669  -1.604561  2.298472
H    -1.018902  0.163329  2.643073
H    -2.613953  -1.587365  1.950476
H    -1.882554  -1.741878  0.364724
H    -2.717769  -0.228148  0.826543
H    -0.352981  -2.188105  3.068404
H    1.091479  -1.226396  2.754777
H    0.435319  -2.331978  1.514668
O    2.301729  1.133142  0.803117
H    1.069479  0.253242  -1.010925
Pb    3.211231  2.562315  2.460349
