20
Energy: -601092.392704 eV PBE+vdW (tier 2 basis)
N    1.001751  -0.897109  0.390804
C    0.379372  -0.178526  1.545624
C    1.454717  0.008504  2.607340
O    2.380151  -0.831577  2.741276
H    1.549940  -0.245995  -0.185973
H    0.262521  -1.257480  -0.224902
H    -0.000821  0.800849  1.216986
C    -0.823792  -1.008945  2.115846
C    -0.433229  -2.417185  2.581518
C    -1.571422  -0.249640  3.220814
H    -1.507799  -1.104338  1.255348
H    -0.001233  -3.053005  1.768060
H    -1.328527  -2.995467  2.853846
H    0.210307  -2.421995  3.474873
H    -1.850625  0.763710  2.900109
H    -0.997864  -0.189169  4.156339
H    -2.506948  -0.770958  3.456781
O    1.423457  0.990903  3.454929
H    0.697988  1.633219  3.307399
Pb    2.458059  -2.648797  1.369982
