20
Energy: -601092.763746 eV PBE+vdW (tier 2 basis)
N    -0.355325  0.451023  0.191683
C    0.084610  -0.136246  1.523154
C    1.603606  -0.166566  1.537725
O    2.247371  -0.197401  0.427211
H    -0.259761  1.475213  0.151473
H    -1.349693  0.210825  0.038413
H    -0.274256  0.538267  2.313328
C    -0.555946  -1.552134  1.720550
C    -0.268410  -2.083273  3.130467
C    -2.071737  -1.488129  1.467100
H    -0.097059  -2.227335  0.977506
H    -0.718277  -1.440367  3.899331
H    0.800720  -2.179889  3.349434
H    -0.712573  -3.080385  3.231394
H    -2.356826  -1.301348  0.417874
H    -2.568493  -0.752458  2.116057
H    -2.509089  -2.467575  1.697345
O    2.227965  -0.196326  2.650593
H    0.201976  0.052176  -0.580746
Pb    4.291197  -0.331068  1.609108
