20
Energy: -601092.238106 eV PBE+vdW (tier 2 basis)
N    0.869736  -0.140144  0.425224
C    0.026785  0.179840  1.625540
C    0.906540  0.795780  2.708470
O    2.114680  1.108248  2.507708
H    0.355944  0.103039  -0.429299
H    0.994006  -1.162106  0.384768
H    -0.668767  0.984837  1.330969
C    -0.822259  -1.051834  2.089155
C    0.048187  -2.215401  2.578268
C    -1.906124  -0.670955  3.113514
H    -1.353759  -1.358402  1.173161
H    -0.588448  -3.076988  2.813648
H    0.602616  -1.964627  3.494634
H    0.769377  -2.581072  1.829736
H    -2.661318  -1.466898  3.149405
H    -2.443134  0.254373  2.859753
H    -1.532513  -0.625467  4.153433
O    0.426321  1.063670  3.876745
H    -0.501654  0.739041  3.990549
Pb    3.132041  0.888550  0.531143
