20
Energy: -601092.226654 eV PBE+vdW (tier 2 basis)
N    0.685967  -0.907737  0.574635
C    0.405275  -0.443733  1.968619
C    1.655281  -0.682827  2.798759
O    2.409298  -1.666752  2.560510
H    1.156537  -0.172855  0.030347
H    -0.214632  -1.068499  0.103631
H    0.152418  0.628722  1.964698
C    -0.800745  -1.252972  2.563414
C    -1.011006  -0.970312  4.054860
C    -2.078388  -0.971716  1.761011
H    -0.532048  -2.326866  2.451064
H    -0.172684  -1.291373  4.686515
H    -1.895109  -1.515164  4.406421
H    -1.211517  0.096774  4.236168
H    -2.020136  -1.223705  0.690352
H    -2.378004  0.081657  1.847103
H    -2.896389  -1.582068  2.163462
O    1.977368  0.061740  3.808726
H    1.365681  0.809970  3.974161
Pb    2.113833  -2.930284  0.719546
