30
Energy: -244756.783343 eV PBE+vdW (tier 2 basis)
C    0.837545  1.682121  1.141906
C    0.552764  0.869745  2.369916
O    1.564132  0.226525  2.902029
H    -0.064809  2.162205  0.752983
H    1.261004  1.038204  0.359354
H    1.594394  2.445848  1.367563
N    -0.666627  0.845035  2.848099
C    -0.889610  0.082735  4.082700
C    -0.658576  -1.425025  3.868475
O    0.310968  -2.016687  4.432117
H    -1.729800  2.295174  2.955825
H    -0.159159  0.372913  4.859308
C    -2.316342  0.355917  4.630524
C    -2.643073  1.807799  4.753934
N    -2.343188  2.680820  3.722790
C    -3.299720  2.546253  5.705781
C    -2.777743  3.905591  4.016047
N    -3.369190  3.837146  5.218597
H    -2.442002  -0.130974  5.605841
H    -3.063148  -0.097213  3.958962
H    -3.725291  2.267623  6.661083
H    -2.677245  4.794814  3.406059
H    -3.810427  4.622526  5.690004
N    -1.488475  -2.067240  3.053306
C    -1.406206  -3.487454  2.721261
H    -2.191490  -1.512675  2.572011
H    -0.922080  -4.022858  3.542320
H    -0.836860  -3.641908  1.794628
H    -2.418253  -3.880308  2.581552
Ba    2.685507  -1.399653  4.121025
