30
Energy: -244756.892839 eV PBE+vdW (tier 2 basis)
C    -0.061964  1.581800  0.701626
C    -0.017468  0.848631  2.002934
O    1.097890  0.419274  2.459617
H    0.632642  2.431246  0.743540
H    -1.065983  1.940619  0.455504
H    0.288752  0.919384  -0.101654
N    -1.159149  0.661714  2.656526
C    -1.263047  0.125187  4.022818
C    -0.854802  -1.362445  4.079590
O    0.321086  -1.678400  4.441527
H    -1.999114  1.252645  2.384416
H    -0.532420  0.648128  4.661305
C    -2.687484  0.394604  4.572948
C    -3.178393  1.785419  4.322689
N    -3.230841  2.269454  3.024542
C    -3.707492  2.716149  5.186272
C    -3.776527  3.473254  3.102362
N    -4.081294  3.774172  4.390944
H    -2.693235  0.168968  5.646319
H    -3.406671  -0.298776  4.105121
H    -3.865432  2.713165  6.257628
H    -3.972645  4.142667  2.272299
H    -4.531623  4.626173  4.710695
N    -1.746513  -2.281544  3.745819
C    -1.510064  -3.724944  3.754412
H    -2.667361  -1.960419  3.458037
H    -2.449271  -4.233908  3.991258
H    -0.763408  -3.967761  4.515373
H    -1.159680  -4.066225  2.771268
Ba    2.551088  -0.903925  3.807833
