30
Energy: -244756.722448 eV PBE+vdW (tier 2 basis)
C    -0.661133  1.515797  1.135247
C    -0.151051  0.402198  1.994757
O    1.091267  0.359154  2.295491
H    -0.064450  1.565412  0.215296
H    -0.519239  2.469064  1.663450
H    -1.719412  1.406641  0.880034
N    -1.035323  -0.491111  2.424172
C    -0.842305  -1.786825  3.107096
C    0.145846  -1.802070  4.275894
O    1.400599  -1.886888  4.114064
H    -1.928772  -0.569368  1.882418
H    -1.834504  -1.997844  3.532304
C    -0.569821  -2.894459  2.064558
C    -1.772488  -3.064317  1.178604
N    -2.647497  -2.013176  0.951155
C    -2.211017  -4.182459  0.506034
C    -3.593075  -2.487099  0.154118
N    -3.360355  -3.791273  -0.139175
H    -0.341250  -3.838415  2.578885
H    0.327185  -2.623109  1.481720
H    -1.824856  -5.191747  0.435945
H    -4.446677  -1.935144  -0.223018
H    -3.941072  -4.381199  -0.727113
N    -0.393715  -1.801365  5.489555
C    0.355219  -1.896842  6.740973
H    -1.405520  -1.728114  5.555306
H    1.272739  -2.468175  6.574333
H    -0.262710  -2.411916  7.482721
H    0.605148  -0.897577  7.121826
Ba    3.139239  -0.601776  2.993348
