30
Energy: -244756.442463 eV PBE+vdW (tier 2 basis)
C    -0.846081  1.286146  1.633933
C    -1.039503  0.570370  2.933714
O    -0.313971  0.855812  3.935400
H    -0.157152  2.121606  1.785212
H    -1.795928  1.665840  1.240075
H    -0.422366  0.613079  0.873021
N    -1.982524  -0.392568  3.069650
C    -2.259657  -1.445388  2.081968
C    -0.925465  -2.220426  1.820276
O    0.109702  -1.951824  2.538146
H    -2.096066  -0.689516  4.037625
H    -2.924264  -2.150447  2.603233
C    -3.027516  -0.963474  0.818276
C    -3.887276  -2.020405  0.194508
N    -3.371038  -3.254022  -0.154529
C    -5.213309  -1.964536  -0.166075
C    -4.360395  -3.935377  -0.715105
N    -5.487135  -3.183787  -0.741989
H    -2.322812  -0.570259  0.070765
H    -3.669736  -0.129605  1.127646
H    -5.960817  -1.186091  -0.077432
H    -4.304258  -4.946215  -1.102457
H    -6.382579  -3.471957  -1.124524
N    -0.926448  -3.141736  0.894926
C    0.230999  -3.972895  0.580681
H    -1.867205  -3.331702  0.375603
H    1.107348  -3.353573  0.354200
H    -0.011530  -4.579020  -0.296618
H    0.473479  -4.641492  1.417341
Ba    1.431700  -0.869325  4.250846
