30
Energy: -244756.684987 eV PBE+vdW (tier 2 basis)
C    -0.074414  -2.499987  0.032866
C    0.501355  -1.725451  1.171885
O    1.679741  -1.913567  1.562043
H    -0.844012  -1.948012  -0.515030
H    -0.491250  -3.452677  0.390732
H    0.751672  -2.751248  -0.642959
N    -0.207498  -0.760994  1.850741
C    -1.615270  -0.601228  2.228514
C    -1.595444  -0.188445  3.722365
O    -0.620479  -0.538099  4.445537
H    0.402527  -0.056415  2.262321
H    -2.063014  0.205766  1.629989
C    -2.492527  -1.855347  2.034666
C    -2.247497  -3.078223  2.879909
N    -1.017064  -3.536007  3.350910
C    -3.216061  -4.004183  3.197912
C    -1.263085  -4.715784  3.929049
N    -2.573055  -5.024114  3.852433
H    -2.460191  -2.127604  0.970703
H    -3.530779  -1.539582  2.203498
H    -4.280991  -4.029153  2.999600
H    -0.533916  -5.370202  4.396496
H    -3.007545  -5.871168  4.209237
N    -2.608346  0.505528  4.228865
C    -3.809447  1.024367  3.572111
H    -2.523864  0.684588  5.229738
H    -3.633832  1.201230  2.506908
H    -4.071620  1.981461  4.034483
H    -4.653712  0.333381  3.694810
Ba    1.260615  -2.224832  4.099668
