30
Energy: -244756.48451 eV PBE+vdW (tier 2 basis)
C    0.243017  -0.119388  0.180113
C    0.058535  -0.308787  1.652836
O    0.990168  -0.849612  2.352864
H    -0.591806  0.410698  -0.288711
H    0.339511  -1.108372  -0.290055
H    1.175285  0.425023  -0.018652
N    -1.076152  0.084406  2.198253
C    -1.544064  -0.072030  3.569095
C    -2.933482  0.634471  3.539235
O    -3.165578  1.411803  2.607150
H    -1.765876  0.639871  1.659648
H    -1.658644  -1.143008  3.790114
C    -0.619603  0.555862  4.657628
C    0.061595  1.832856  4.276031
N    1.423972  1.889197  3.977166
C    -0.469217  3.095239  4.164157
C    1.692038  3.169349  3.701427
N    0.573070  3.913937  3.801806
H    0.128488  -0.193821  4.955607
H    -1.222108  0.716239  5.561497
H    -1.476473  3.468244  4.302950
H    2.659259  3.587486  3.444274
H    0.514801  4.917950  3.651920
N    -3.806075  0.392045  4.533284
C    -3.715602  -0.550095  5.644000
H    -4.673599  0.917751  4.441163
H    -4.705294  -0.984578  5.821497
H    -3.384323  -0.060734  6.570970
H    -3.034735  -1.375252  5.409296
Ba    2.887938  -0.317253  3.664835
