30
Energy: -244756.641455 eV PBE+vdW (tier 2 basis)
C    -0.891307  0.605804  -0.704960
C    -0.859255  1.133028  0.699117
O    -0.104917  2.133253  0.970551
H    0.129219  0.413001  -1.058720
H    -1.313135  1.384224  -1.356698
H    -1.490427  -0.304654  -0.804395
N    -1.622672  0.512575  1.585075
C    -2.026085  0.804296  2.966156
C    -1.115097  1.651766  3.839245
O    0.152601  1.594995  3.785532
H    -2.189168  -0.324506  1.243853
H    -3.004729  1.304712  2.906539
C    -2.236594  -0.568183  3.689245
C    -3.256491  -1.424122  3.003959
N    -3.231931  -1.591242  1.629029
C    -4.282142  -2.168834  3.539714
C    -4.223020  -2.419914  1.337737
N    -4.874282  -2.794073  2.467409
H    -2.542880  -0.390757  4.727919
H    -1.258404  -1.073186  3.726384
H    -4.624000  -2.317789  4.556420
H    -4.497140  -2.768045  0.348320
H    -5.660593  -3.434748  2.514376
N    -1.698671  2.409164  4.769835
C    -3.127132  2.612286  5.035062
H    -1.048297  2.837589  5.426060
H    -3.653324  2.946047  4.133144
H    -3.219320  3.396606  5.791429
H    -3.600117  1.701743  5.423628
Ba    1.831310  2.539965  2.283033
