30
Energy: -244756.597142 eV PBE+vdW (tier 2 basis)
C    -0.371828  1.289429  1.250042
C    -0.041388  0.031018  2.000067
O    1.230510  -0.168530  2.264367
H    0.163619  1.306390  0.291007
H    -0.024286  2.159767  1.823289
H    -1.446360  1.389716  1.075576
N    -1.022404  -0.762664  2.334877
C    -0.805389  -2.046407  3.022984
C    0.218314  -2.036690  4.168404
O    1.414400  -2.436471  4.040604
H    -2.246716  -1.302508  1.186498
H    -1.770336  -2.279426  3.504537
C    -0.545969  -3.179280  2.000094
C    -1.718929  -3.327826  1.079441
N    -2.498980  -2.233747  0.740422
C    -2.269416  -4.405986  0.433449
C    -3.486293  -2.607864  -0.072217
N    -3.355988  -3.927680  -0.272665
H    -0.363433  -4.133736  2.511113
H    0.358321  -2.946981  1.416136
H    -1.990705  -5.451648  0.420171
H    -4.256000  -1.972705  -0.493276
H    -3.974070  -4.487059  -0.854953
N    -0.244244  -1.587643  5.333555
C    0.533361  -1.485165  6.564414
H    -1.211870  -1.277621  5.362333
H    -0.120072  -1.692603  7.417718
H    0.952445  -0.476499  6.684488
H    1.340278  -2.223361  6.545995
Ba    3.202431  -1.153220  2.934529
