30
Energy: -244757.454779 eV PBE+vdW (tier 2 basis)
C    -1.315567  -0.342521  -0.640490
C    -0.835428  -0.345587  0.777752
O    0.266345  -0.875117  1.082589
H    -2.276292  0.163637  -0.780896
H    -1.406048  -1.382887  -0.982119
H    -0.559941  0.137916  -1.275534
N    -1.635739  0.222639  1.704359
C    -1.451181  0.264112  3.164223
C    -0.385235  1.303788  3.552342
O    0.798500  1.212042  3.131342
H    -2.503269  0.618720  1.355797
H    -2.412179  0.620825  3.547103
C    -1.216333  -1.166684  3.768827
C    -0.300586  -1.288310  4.944866
N    1.084496  -1.374578  4.807034
C    -0.626033  -1.435507  6.272741
C    1.566513  -1.568132  6.033199
N    0.564201  -1.608063  6.938016
H    -0.849262  -1.822539  2.970975
H    -2.201259  -1.560736  4.045920
H    -1.581129  -1.466307  6.783012
H    2.609492  -1.692161  6.304482
H    0.672038  -1.770527  7.935415
N    -0.739250  2.313326  4.346314
C    -2.048903  2.619119  4.931420
H    0.019366  2.963424  4.548659
H    -2.793781  2.844510  4.158006
H    -1.936435  3.509222  5.556601
H    -2.403654  1.801217  5.569910
Ba    2.301553  -0.665846  2.477139
