30
Energy: -244756.629906 eV PBE+vdW (tier 2 basis)
C    -0.788457  -1.579035  0.227906
C    -0.952373  -0.541762  1.300248
O    -0.127896  -0.378989  2.208558
H    0.075568  -1.300636  -0.391382
H    -1.665746  -1.687301  -0.419862
H    -0.551175  -2.543446  0.691654
N    -2.076160  0.249573  1.238465
C    -2.215642  1.441090  2.064679
C    -2.641893  1.104809  3.512060
O    -3.737468  1.552161  4.010030
H    -2.771952  0.078544  0.519530
H    -1.204803  1.871238  2.166260
C    -3.088401  2.509747  1.367816
C    -4.377544  2.068616  0.739522
N    -5.592421  1.940895  1.416959
C    -4.587516  1.776591  -0.589399
C    -6.495747  1.578711  0.501571
N    -5.921715  1.467383  -0.711673
H    -2.470222  2.945158  0.571912
H    -3.262716  3.332584  2.076405
H    -3.920255  1.798821  -1.443087
H    -7.551430  1.394597  0.672179
H    -6.400864  1.219842  -1.573748
N    -1.790888  0.374067  4.191831
C    -1.942680  -0.067709  5.571599
H    -0.956643  0.064236  3.630855
H    -0.971562  0.005535  6.072694
H    -2.271851  -1.114934  5.602563
H    -2.669513  0.560334  6.093906
Ba    -5.921033  2.405278  4.010948
