30
Energy: -244756.798746 eV PBE+vdW (tier 2 basis)
C    0.810556  0.983267  0.536463
C    0.169717  0.723992  1.865986
O    0.353569  1.528362  2.830411
H    1.901175  0.920114  0.663219
H    0.589347  2.005442  0.205332
H    0.506722  0.278095  -0.244088
N    -0.581672  -0.378465  1.987193
C    -1.140085  -1.016885  3.188150
C    -2.290349  -0.233285  3.860545
O    -2.390447  1.038884  3.774489
H    -0.663564  -0.936398  1.142146
H    -1.591756  -1.940711  2.805998
C    -0.060130  -1.450403  4.227710
C    -0.363618  -2.809264  4.793706
N    -1.666351  -3.238539  4.978633
C    0.505056  -3.800439  5.188409
C    -1.588510  -4.463547  5.480096
N    -0.292871  -4.833381  5.623241
H    0.017492  -0.696207  5.027264
H    0.917627  -1.474852  3.730427
H    1.586079  -3.863350  5.196191
H    -2.424916  -5.102027  5.741001
H    0.033540  -5.727504  5.976946
N    -3.120614  -0.973188  4.557922
C    -4.251071  -0.454714  5.317550
H    -2.813712  -1.986009  4.701708
H    -4.648615  0.445996  4.840709
H    -3.954766  -0.221927  6.350133
H    -5.031930  -1.221147  5.346900
Ba    -1.118902  3.052088  4.012606
