30
Energy: -244756.862695 eV PBE+vdW (tier 2 basis)
C    -0.305432  -0.434306  -0.041069
C    -0.136974  -0.204366  1.424369
O    0.971852  -0.359570  1.997516
H    0.011535  -1.466935  -0.249045
H    0.369078  0.218149  -0.610581
H    -1.334274  -0.310453  -0.392001
N    -1.205489  0.182722  2.183472
C    -2.177842  1.200324  1.807475
C    -1.473314  2.377326  1.099687
O    -0.270653  2.651985  1.374095
H    -1.041091  0.113085  3.187895
H    -2.940882  0.781093  1.138209
C    -2.902590  1.728459  3.085809
C    -2.152417  1.704681  4.393446
N    -0.799368  1.997429  4.601103
C    -2.748353  1.478198  5.614241
C    -0.619940  1.954028  5.924748
N    -1.770264  1.650903  6.559091
H    -3.814865  1.136054  3.228911
H    -3.240201  2.755623  2.880649
H    -3.769349  1.230542  5.879535
H    0.309564  2.132873  6.456299
H    -1.891466  1.565051  7.565014
N    -2.158754  3.104246  0.224920
C    -3.542276  2.917674  -0.228115
H    -1.643909  3.892570  -0.165454
H    -3.744398  3.661238  -1.003579
H    -4.259587  3.071128  0.587299
H    -3.686538  1.922899  -0.667275
Ba    1.475194  1.943358  3.014339
