30
Energy: -244756.939855 eV PBE+vdW (tier 2 basis)
C    -0.496928  -1.310211  -0.597146
C    -1.278818  -1.581956  0.645181
O    -0.795732  -2.238399  1.603049
H    -1.055563  -0.759450  -1.359542
H    -0.203911  -2.284044  -1.017089
H    0.435635  -0.783945  -0.355921
N    -2.558891  -1.116245  0.763869
C    -3.001221  0.224300  0.402969
C    -1.911150  1.260665  0.761781
O    -1.164455  1.075104  1.761765
H    -3.075155  -1.530683  1.540253
H    -3.214398  0.290309  -0.674445
C    -4.318499  0.564532  1.171728
C    -4.572154  -0.103098  2.498190
N    -3.643972  -0.336739  3.519695
C    -5.818305  -0.493305  2.935899
C    -4.346699  -0.842182  4.537894
N    -5.653147  -0.942676  4.220499
H    -5.164297  0.309922  0.520917
H    -4.356585  1.657201  1.297515
H    -6.788001  -0.470406  2.452828
H    -3.956422  -1.143007  5.505180
H    -6.389253  -1.291097  4.829359
N    -1.837642  2.338644  -0.007184
C    -0.941209  3.474991  0.207631
H    -2.463299  2.388712  -0.808098
H    -0.339060  3.642339  -0.692868
H    -0.284766  3.256254  1.052577
H    -1.526508  4.377922  0.420050
Ba    -0.895595  -0.614451  3.590462
