30
Energy: -244757.054797 eV PBE+vdW (tier 2 basis)
C    -1.926961  -2.892193  1.184492
C    -1.669760  -1.581381  1.849928
O    -0.589191  -0.955351  1.677914
H    -2.919212  -3.302088  1.399589
H    -1.161867  -3.612238  1.505216
H    -1.812294  -2.768671  0.099355
N    -2.638236  -1.062559  2.651349
C    -2.408587  0.224400  3.284960
C    -1.687659  0.083312  4.643127
O    -0.438607  0.264415  4.670177
H    -3.507689  -1.573777  2.772354
H    -1.659205  0.653304  2.621811
C    -3.496638  1.294248  3.203982
C    -2.813634  2.644115  3.222686
N    -1.482715  2.832604  2.833056
C    -3.370859  3.863177  3.522856
C    -1.273813  4.148722  2.896575
N    -2.385354  4.794911  3.306031
H    -4.246490  1.233927  4.004436
H    -4.037305  1.161781  2.253570
H    -4.366165  4.140234  3.848256
H    -0.351202  4.667915  2.659043
H    -2.479009  5.799604  3.428093
N    -2.396223  -0.245534  5.715730
C    -1.841940  -0.462567  7.053271
H    -3.400495  -0.358845  5.607131
H    -0.759962  -0.318395  7.014425
H    -2.065384  -1.483240  7.385575
H    -2.284002  0.250615  7.758933
Ba    0.759462  1.019558  2.588080
