30
Energy: -244756.550703 eV PBE+vdW (tier 2 basis)
C    1.194290  -0.969434  1.557125
C    0.394967  -1.059499  2.826409
O    0.827799  -1.484562  3.885993
H    2.012791  -0.252564  1.706314
H    0.606771  -0.664846  0.683460
H    1.659607  -1.942958  1.360595
N    -0.947012  -0.636984  2.740410
C    -1.693910  -0.521655  3.971205
C    -2.851464  -1.505861  4.067262
O    -3.621335  -1.453186  5.089278
H    -1.221531  -0.077486  1.937279
H    -0.966050  -0.882295  4.729383
C    -2.128695  0.934517  4.337428
C    -1.578513  1.433548  5.636054
N    -2.068451  1.034768  6.882244
C    -0.531816  2.299951  5.832728
C    -1.316655  1.660845  7.795787
N    -0.387054  2.425530  7.194663
H    -3.225578  1.019187  4.328746
H    -1.776939  1.603600  3.542848
H    0.105636  2.827555  5.134102
H    -1.415587  1.591317  8.874001
H    0.302749  3.001893  7.669747
N    -2.985895  -2.407922  3.119146
C    -3.971316  -3.482210  3.068933
H    -2.282791  -2.345232  2.379478
H    -4.707378  -3.338780  3.863360
H    -3.474147  -4.451849  3.197851
H    -4.476476  -3.468373  2.096497
Ba    -4.068927  -0.642241  7.280548
