30
Energy: -244756.302018 eV PBE+vdW (tier 2 basis)
C    0.014998  -0.331696  -0.008511
C    -0.007576  -0.206341  1.477516
O    1.075916  -0.238846  2.153078
H    0.650019  0.457968  -0.431808
H    -0.980918  -0.271834  -0.459443
H    0.472182  -1.293248  -0.280473
N    -1.173983  -0.064836  2.110257
C    -1.263386  -0.016134  3.570599
C    -2.542782  -0.609122  4.211921
O    -2.368468  -1.330086  5.188975
H    -2.020964  -0.046759  1.549168
H    -0.505020  -0.718800  3.937080
C    -0.936268  1.397637  4.144705
C    -0.400846  1.325618  5.536141
N    0.872816  0.824117  5.814686
C    -1.015657  1.655152  6.716712
C    1.001715  0.862747  7.145980
N    -0.114889  1.357303  7.711701
H    -1.830837  2.032329  4.128013
H    -0.207923  1.888370  3.480309
H    -1.997168  2.060541  6.928045
H    1.869088  0.558182  7.722063
H    -0.265231  1.486700  8.708841
N    -3.772244  -0.270894  3.747516
C    -4.157351  0.591321  2.637175
H    -4.522703  -0.737814  4.253060
H    -5.162184  0.982575  2.827556
H    -4.200190  0.051376  1.676380
H    -3.494253  1.460842  2.545670
Ba    2.571280  -0.155092  4.027893
