30
Energy: -244757.432806 eV PBE+vdW (tier 2 basis)
C    0.382891  2.308411  3.111671
C    -0.321234  1.000696  3.308211
O    0.225257  -0.084130  2.986214
H    -0.201432  3.177027  3.432419
H    0.638599  2.420421  2.049973
H    1.330038  2.288468  3.667401
N    -1.551457  1.033029  3.861455
C    -2.422541  -0.116953  4.132809
C    -1.645532  -1.276185  4.789243
O    -1.350060  -2.316852  4.139465
H    -1.930498  1.949578  4.079318
H    -3.119209  0.241588  4.902780
C    -3.314607  -0.579050  2.936292
C    -2.857665  -0.357522  1.527968
N    -1.860910  -1.086668  0.882808
C    -3.435807  0.497927  0.618082
C    -1.853672  -0.668306  -0.382856
N    -2.789070  0.285721  -0.574898
H    -4.271000  -0.050949  3.036651
H    -3.545666  -1.642773  3.089772
H    -4.256009  1.199605  0.711022
H    -1.209877  -1.029062  -1.178345
H    -2.998729  0.743233  -1.457775
N    -1.334285  -1.171381  6.079416
C    -1.642402  -0.079545  7.006826
H    -0.861221  -1.987454  6.464819
H    -1.221647  -0.336453  7.982647
H    -2.726169  0.046678  7.129722
H    -1.190506  0.863353  6.677628
Ba    0.094182  -2.428928  2.129379
