30
Energy: -244756.547668 eV PBE+vdW (tier 2 basis)
C    -1.367376  1.103449  -0.368731
C    -1.190503  0.914112  1.109930
O    0.041431  0.973154  1.561966
H    -2.418922  1.049357  -0.662736
H    -0.789596  0.346191  -0.915981
H    -0.966373  2.082709  -0.664080
N    -2.255385  0.707375  1.839402
C    -2.146094  0.455349  3.287332
C    -1.181599  1.374423  4.043815
O    -0.048407  0.981986  4.467477
H    -3.451702  -0.551633  1.462124
H    -3.143161  0.682962  3.699606
C    -1.892276  -1.044807  3.568320
C    -3.025799  -1.868799  3.037498
N    -3.726834  -1.472934  1.909296
C    -3.601712  -3.042741  3.453238
C    -4.691096  -2.350964  1.635557
N    -4.623340  -3.315759  2.564551
H    -1.783665  -1.228719  4.645029
H    -0.951508  -1.359388  3.089861
H    -3.380542  -3.691094  4.291092
H    -5.402466  -2.300276  0.820336
H    -5.241281  -4.122333  2.605277
N    -1.579468  2.625282  4.270063
C    -2.846138  3.251776  3.881706
H    -0.945429  3.179486  4.843298
H    -3.621462  3.076774  4.639702
H    -3.175206  2.874474  2.908804
H    -2.683719  4.330646  3.795237
Ba    1.885627  0.852944  2.952007
