30
Energy: -244756.535969 eV PBE+vdW (tier 2 basis)
C    0.463937  0.184792  0.392315
C    -0.037381  0.418422  1.778432
O    0.578510  1.205785  2.573272
H    -0.157222  -0.514525  -0.176734
H    1.489826  -0.205423  0.442444
H    0.509508  1.141247  -0.145682
N    -1.139669  -0.206700  2.192859
C    -1.699578  -0.052859  3.540836
C    -2.710084  -1.204747  3.855176
O    -3.854204  -0.933907  4.195746
H    -1.631671  -0.805241  1.532259
H    -0.857034  -0.140269  4.246900
C    -2.399033  1.315081  3.731141
C    -2.356302  1.801723  5.142116
N    -1.238035  2.446150  5.680849
C    -3.318815  1.697108  6.114029
C    -1.547546  2.725615  6.953134
N    -2.788486  2.286871  7.237838
H    -3.445755  1.200373  3.423622
H    -1.950657  2.058161  3.053807
H    -4.305545  1.251233  6.091626
H    -0.919924  3.236758  7.675219
H    -3.258085  2.384967  8.134321
N    -2.223788  -2.458606  3.705882
C    -3.034980  -3.647076  3.972420
H    -1.232639  -2.592008  3.534884
H    -2.701007  -4.464857  3.326093
H    -4.081922  -3.414216  3.757326
H    -2.951949  -3.957240  5.022532
Ba    0.955530  2.858387  4.273338
