30
Energy: -244756.477037 eV PBE+vdW (tier 2 basis)
C    -0.582084  1.791939  1.002830
C    -0.562448  1.127970  2.339185
O    0.404834  1.344932  3.154158
H    -0.523438  2.880772  1.130092
H    -1.474409  1.543005  0.420283
H    0.310858  1.484911  0.440429
N    -1.545265  0.306405  2.666261
C    -1.597763  -0.553868  3.836175
C    -2.302252  -1.845348  3.296244
O    -2.979654  -1.736192  2.274069
H    -2.247921  0.002604  1.968942
H    -0.567867  -0.773827  4.158228
C    -2.449177  0.016255  5.008702
C    -2.360401  1.473950  5.343486
N    -1.220632  2.150618  5.782999
C    -3.430349  2.336523  5.401660
C    -1.623453  3.387632  6.098884
N    -2.944504  3.528960  5.878851
H    -2.224755  -0.583135  5.904951
H    -3.504700  -0.184250  4.778814
H    -4.478427  2.193201  5.167347
H    -1.007228  4.188483  6.496649
H    -3.490949  4.367442  6.058052
N    -2.156477  -2.965501  4.021673
C    -2.809156  -4.230571  3.679687
H    -1.545586  -2.953276  4.831049
H    -3.405740  -4.587706  4.527130
H    -2.060845  -4.987932  3.416771
H    -3.463206  -4.057446  2.821108
Ba    1.353994  1.799451  5.254293
