30
Energy: -244756.527559 eV PBE+vdW (tier 2 basis)
C    0.111870  -0.091494  0.060870
C    0.050917  -0.105034  1.550559
O    1.130730  -0.162430  2.249100
H    0.606521  -1.009035  -0.286935
H    0.726949  0.754458  -0.273930
H    -0.878021  -0.022766  -0.400750
N    -1.119059  -0.060711  2.159503
C    -1.319637  -0.096524  3.600839
C    -2.843364  -0.376685  3.746639
O    -3.571078  -0.014685  2.822424
H    -2.014573  0.021884  1.651766
H    -0.705917  -0.903916  4.024532
C    -0.942299  1.275332  4.255652
C    -0.358301  1.183191  5.625375
N    0.927941  0.688652  5.862345
C    -0.917950  1.551145  6.824141
C    1.115651  0.764296  7.184684
N    0.025220  1.277116  7.787247
H    -1.831598  1.917982  4.275959
H    -0.232694  1.786324  3.587117
H    -1.883022  1.981269  7.063041
H    2.005454  0.468522  7.730744
H    -0.074985  1.446250  8.784974
N    -3.305180  -0.931296  4.886362
C    -2.568534  -1.654442  5.917150
H    -4.316807  -1.055646  4.876805
H    -3.122473  -1.588533  6.859866
H    -1.583720  -1.206982  6.084103
H    -2.446866  -2.716881  5.660966
Ba    2.721321  0.068007  3.969191
