30
Energy: -244756.664299 eV PBE+vdW (tier 2 basis)
C    0.549253  0.523765  0.411096
C    -0.046348  0.660301  1.771149
O    0.335038  1.604607  2.559539
H    1.634516  0.380532  0.505993
H    0.393541  1.453402  -0.152656
H    0.125617  -0.313777  -0.151599
N    -0.969355  -0.192416  2.171151
C    -1.597865  -0.210160  3.480783
C    -2.306331  -1.598584  3.523173
O    -2.458428  -2.205392  2.463730
H    -1.303745  -0.983900  1.591552
H    -0.817330  -0.152482  4.255604
C    -2.612548  0.966137  3.661611
C    -2.674732  1.512872  5.049550
N    -1.666967  2.321654  5.583811
C    -3.658470  1.351939  5.995034
C    -2.059037  2.631550  6.824168
N    -3.249007  2.063686  7.099537
H    -3.611152  0.633709  3.351158
H    -2.341681  1.769660  2.960544
H    -4.603198  0.822633  5.964476
H    -1.523784  3.250262  7.537055
H    -3.763512  2.160470  7.971324
N    -2.741592  -2.010955  4.727088
C    -3.442633  -3.279949  4.926487
H    -2.490891  -1.468601  5.546600
H    -2.788929  -4.012206  5.416785
H    -3.739284  -3.666506  3.947812
H    -4.335781  -3.122182  5.541472
Ba    0.472635  3.234931  4.246972
