30
Energy: -244757.563697 eV PBE+vdW (tier 2 basis)
C    -0.357604  0.790853  -0.011342
C    -0.331690  0.656286  1.479480
O    0.543522  1.249367  2.164827
H    0.597289  0.424851  -0.413175
H    -0.429221  1.853887  -0.275706
H    -1.177817  0.245829  -0.489885
N    -1.267932  -0.132098  2.048740
C    -1.397235  -0.492614  3.471930
C    -1.957247  0.692253  4.282430
O    -1.308098  1.756395  4.446787
H    -1.931941  -0.565395  1.414267
H    -2.161582  -1.279277  3.486771
C    -0.073855  -1.126234  4.027306
C    0.271100  -0.892226  5.463461
N    0.961744  0.243236  5.885978
C    0.089146  -1.728985  6.539122
C    1.181992  0.078745  7.188812
N    0.667767  -1.096312  7.613267
H    0.762975  -0.784771  3.407131
H    -0.144985  -2.206464  3.852003
H    -0.363849  -2.709390  6.623091
H    1.707128  0.763508  7.846100
H    0.728684  -1.463041  8.559098
N    -3.177517  0.540877  4.791363
C    -3.862648  1.576791  5.566152
H    -3.673208  -0.327826  4.619361
H    -3.261891  1.858802  6.438546
H    -4.824059  1.180527  5.902291
H    -4.033804  2.466623  4.948354
Ba    1.089835  2.429802  4.276442
