30
Energy: -244756.649735 eV PBE+vdW (tier 2 basis)
C    0.060386  1.300399  1.523490
C    -0.421953  0.053012  2.191242
O    0.281491  -1.012362  2.135142
H    1.005657  1.613230  1.988848
H    -0.657455  2.123343  1.589977
H    0.277148  1.086542  0.468779
N    -1.581432  0.107457  2.843422
C    -2.350736  -1.022639  3.399715
C    -1.520980  -1.960068  4.278261
O    -1.021253  -3.036394  3.820711
H    -2.259348  0.849089  2.560288
H    -3.089021  -0.542395  4.056860
C    -3.150374  -1.730008  2.288742
C    -4.175245  -0.781580  1.730598
N    -3.979121  0.590372  1.776909
C    -5.392090  -1.054326  1.147337
C    -5.055557  1.133614  1.229344
N    -5.927951  0.172138  0.833771
H    -3.640288  -2.624662  2.696633
H    -2.457891  -2.076617  1.500006
H    -5.913259  -1.981118  0.941821
H    -5.242981  2.194315  1.105225
H    -6.828028  0.331206  0.391574
N    -1.370494  -1.647762  5.559878
C    -1.882410  -0.473020  6.275469
H    -0.872212  -2.344039  6.113220
H    -2.958425  -0.567848  6.471865
H    -1.681388  0.446048  5.715543
H    -1.361604  -0.409909  7.235106
Ba    0.702817  -3.363021  2.137225
