17
Energy: -10917.7865326 eV PBE+vdW (tier 2 basis)
N    -0.625294  0.316468  1.100373
C    0.151900  -0.794602  1.654106
C    1.639862  -0.446222  1.688034
O    2.145254  0.449571  1.053249
H    0.046416  1.006947  0.755701
H    -0.165718  -1.017885  2.689829
C    -0.118920  -2.043327  0.743213
C    -0.668546  -1.426975  -0.549429
C    -1.428210  -0.203049  -0.021204
H    -0.875910  -2.681304  1.220006
H    0.778478  -2.655365  0.585704
H    -1.298150  -2.127359  -1.113741
H    0.156380  -1.106698  -1.202225
H    -2.425834  -0.500857  0.343699
H    -1.576631  0.583007  -0.771876
O    2.413891  -1.239762  2.483119
H    1.847034  -1.880586  2.948443
