17
Energy: -10917.8503988 eV PBE+vdW (tier 2 basis)
N    -0.341115  0.130802  0.325197
C    -0.093400  -0.319609  1.720789
C    1.364286  0.011771  2.035728
O    2.325953  -0.668175  1.744657
H    -1.226665  0.632879  0.294555
H    -0.728440  0.252793  2.408219
C    -0.377126  -1.846018  1.775469
C    -1.028992  -2.164226  0.418176
C    -0.426429  -1.088909  -0.496539
H    -1.013499  -2.107879  2.628896
H    0.571877  -2.387345  1.880241
H    -2.122157  -2.044783  0.469769
H    -0.819889  -3.188428  0.082545
H    -1.010559  -0.889076  -1.403664
H    0.588778  -1.378977  -0.809279
O    1.476374  1.216371  2.661751
H    2.435003  1.377808  2.762492
