17
Energy: -10917.8546992 eV PBE+vdW (tier 2 basis)
N    -0.998799  -0.581095  1.675535
C    0.378950  -1.121481  1.604863
C    1.325754  0.005173  2.019552
O    2.013434  0.680281  1.284313
H    -1.473291  -0.837201  2.536973
H    0.538338  -1.964455  2.299267
C    0.569861  -1.561915  0.140422
C    -0.622639  -0.937919  -0.601698
C    -1.722076  -0.966124  0.458073
H    0.526325  -2.657874  0.082238
H    1.537693  -1.235638  -0.255078
H    -0.893429  -1.485693  -1.512266
H    -0.396674  0.101292  -0.877558
H    -2.168179  -1.980219  0.516114
H    -2.532439  -0.251728  0.255944
O    1.284836  0.194588  3.369611
H    1.856336  0.966006  3.550696
