17
Energy: -10918.0876395 eV PBE+vdW (tier 2 basis)
N    -0.024415  -0.440246  -0.267014
C    0.555141  -0.202905  1.081911
C    1.794497  -1.107193  1.281049
O    2.451342  -1.114249  2.299045
H    0.045329  0.381141  -0.862751
H    0.903609  0.832092  1.204691
C    -0.567874  -0.542824  2.082622
C    -1.460028  -1.504665  1.286650
C    -1.424845  -0.907920  -0.121207
H    -1.125386  0.368839  2.340373
H    -0.167583  -0.966389  3.010039
H    -1.027536  -2.516011  1.282718
H    -2.478939  -1.577845  1.684292
H    -1.667445  -1.637605  -0.905038
H    -2.141312  -0.072007  -0.200824
O    2.055313  -1.877496  0.211304
H    1.318131  -1.611716  -0.422862
