17
Energy: -10917.7794954 eV PBE+vdW (tier 2 basis)
N    -0.356511  0.383749  0.879333
C    0.099387  -0.762302  1.667124
C    1.540834  -0.601568  2.149812
O    2.299280  0.256817  1.765512
H    0.343920  1.124691  0.927021
H    -0.535682  -0.878562  2.567800
C    -0.059319  -2.007800  0.745166
C    -1.015880  -1.511132  -0.346745
C    -0.595272  -0.051168  -0.508008
H    -0.432080  -2.887097  1.285500
H    0.911674  -2.273694  0.302427
H    -2.057996  -1.568326  -0.000849
H    -0.931819  -2.086207  -1.276871
H    -1.375899  0.566506  -0.973521
H    0.311105  0.013898  -1.140188
O    1.957717  -1.516589  3.074904
H    1.221542  -2.116213  3.291582
