17
Energy: -10917.8785636 eV PBE+vdW (tier 2 basis)
N    -0.980285  -1.197290  1.610062
C    0.484073  -1.337699  1.467041
C    1.182679  -0.185539  2.187450
O    1.470816  0.896679  1.716036
H    -1.260481  -0.904501  2.545808
H    0.808348  -2.283103  1.922546
C    0.709116  -1.289389  -0.059637
C    -0.632077  -0.798166  -0.662251
C    -1.428148  -0.290549  0.544885
H    0.979073  -2.282141  -0.436430
H    1.529752  -0.602781  -0.294985
H    -1.165321  -1.631783  -1.136939
H    -0.486783  -0.017233  -1.417506
H    -2.514785  -0.382529  0.412472
H    -1.194459  0.773338  0.741340
O    1.371749  -0.478523  3.511270
H    1.745731  0.330209  3.912839
