17
Energy: -10917.8249994 eV PBE+vdW (tier 2 basis)
N    -1.095916  -0.236456  1.636148
C    0.153757  -0.975419  1.815931
C    1.341310  -0.033044  2.033996
O    1.497128  1.061009  1.541623
H    -1.748069  -0.387154  2.398597
H    0.120245  -1.664694  2.672290
C    0.361648  -1.758867  0.489252
C    -0.461847  -0.947826  -0.518958
C    -1.671231  -0.512872  0.310144
H    -0.053343  -2.770176  0.604495
H    1.418206  -1.862044  0.213177
H    -0.743646  -1.529984  -1.404754
H    0.103447  -0.066145  -0.850420
H    -2.428879  -1.320241  0.332662
H    -2.153622  0.387422  -0.096717
O    2.279902  -0.620578  2.840528
H    3.025911  0.009067  2.880008
