17
Energy: -10917.8784869 eV PBE+vdW (tier 2 basis)
N    -0.642541  0.282255  0.443831
C    -0.255625  -0.257816  1.750475
C    1.161541  0.029153  2.230332
O    1.522476  -0.036067  3.386753
H    -0.086821  1.092778  0.180397
H    -0.906830  0.147022  2.540219
C    -0.456613  -1.803655  1.619663
C    -1.121485  -1.984553  0.245270
C    -0.583938  -0.796271  -0.549571
H    -1.050952  -2.200343  2.449356
H    0.515782  -2.314065  1.644098
H    -2.214238  -1.909343  0.331059
H    -0.878763  -2.951165  -0.212617
H    -1.204150  -0.544980  -1.420979
H    0.442816  -1.009379  -0.909556
O    2.015427  0.359993  1.213988
H    2.883912  0.498436  1.639282
