17
Energy: -10917.8657125 eV PBE+vdW (tier 2 basis)
N    -0.489702  -1.728958  1.686234
C    0.768157  -1.236130  1.144673
C    1.394884  -0.001006  1.804361
O    2.511497  0.410439  1.569216
H    -0.542303  -1.640728  2.697337
H    1.551837  -2.008291  1.198696
C    0.407043  -0.932269  -0.323941
C    -1.005155  -0.338240  -0.208076
C    -1.625303  -1.065718  1.003601
H    0.391026  -1.880793  -0.877186
H    1.131588  -0.266303  -0.805196
H    -1.592070  -0.472927  -1.124391
H    -0.945093  0.741698  -0.014684
H    -2.358049  -1.824931  0.689533
H    -2.147302  -0.354422  1.662691
O    0.567204  0.604148  2.708657
H    1.074741  1.362432  3.058472
