17
Energy: -10917.845887 eV PBE+vdW (tier 2 basis)
N    -1.047196  -0.774691  1.648004
C    0.320215  -1.168185  1.278246
C    1.342141  -0.113477  1.705321
O    1.967066  -0.143708  2.747145
H    -1.111050  -0.381222  2.586248
H    0.600186  -2.081651  1.819292
C    0.198410  -1.391506  -0.239265
C    -0.967736  -0.478010  -0.700558
C    -1.566978  0.108657  0.594834
H    -0.044226  -2.446410  -0.414679
H    1.136069  -1.175657  -0.763260
H    -1.714459  -1.059581  -1.253988
H    -0.616756  0.322582  -1.361182
H    -2.665355  0.080874  0.603801
H    -1.255955  1.162595  0.713928
O    1.435408  0.937455  0.833399
H    2.055215  1.568936  1.248714
