17
Energy: -10917.9521716 eV PBE+vdW (tier 2 basis)
N    0.116439  -0.057543  -0.050462
C    -0.122087  -0.041976  1.398164
C    1.187321  0.085778  2.153310
O    2.291353  -0.121149  1.690400
H    1.125175  -0.145506  -0.191303
H    -0.752491  0.811340  1.693349
C    -0.858758  -1.380695  1.759621
C    -0.612647  -2.268897  0.533838
C    -0.565321  -1.240270  -0.604202
H    -1.930451  -1.175080  1.881854
H    -0.500036  -1.817137  2.699089
H    -1.390976  -3.032755  0.405210
H    0.356656  -2.781817  0.617663
H    -1.588692  -0.965978  -0.911497
H    -0.038961  -1.591868  -1.500267
O    0.988755  0.453488  3.448015
H    1.874240  0.484910  3.859237
