17
Energy: -10917.8447963 eV PBE+vdW (tier 2 basis)
N    -0.814789  0.180975  1.144618
C    0.097092  -0.817539  1.675076
C    1.289483  -0.192544  2.370066
O    1.400151  0.970066  2.691068
H    -1.250006  0.754446  1.864792
H    -0.373296  -1.480420  2.440202
C    0.421223  -1.682259  0.431367
C    -0.828831  -1.515520  -0.473225
C    -1.755321  -0.564875  0.311157
H    0.615058  -2.723080  0.712037
H    1.320256  -1.301454  -0.067724
H    -1.320480  -2.472665  -0.684676
H    -0.546852  -1.069159  -1.434231
H    -2.487236  -1.155110  0.902980
H    -2.321365  0.116246  -0.337644
O    2.242758  -1.130846  2.648312
H    2.949152  -0.655261  3.126826
