30
Energy: -106809.838548 eV PBE+vdW (tier 2 basis)
C    -0.691090  -1.639324  -0.267443
C    -0.727778  -0.835842  0.998674
O    -1.608975  -1.063514  1.864511
H    0.056338  -1.299188  -0.991734
H    -1.684236  -1.616769  -0.734149
H    -0.484033  -2.688364  -0.013386
N    0.223875  0.115883  1.135523
C    0.529417  1.075097  2.216834
C    0.783072  0.401723  3.584038
O    -0.079831  -0.289925  4.185266
H    0.868676  0.169177  0.352278
H    1.490464  1.504066  1.904381
C    -0.430779  2.314393  2.288019
C    -1.839561  2.013505  2.656579
N    -2.852607  1.782757  1.750095
C    -2.394444  1.699552  3.882227
C    -3.928369  1.285172  2.418858
N    -3.676673  1.196365  3.723477
H    -0.376845  2.820557  1.314166
H    -0.000426  3.012693  3.019825
H    -2.817646  1.973591  0.752149
H    -1.954704  1.845775  4.866285
H    -4.862772  1.022148  1.932938
N    1.978492  0.627276  4.123898
C    2.385279  0.113769  5.434038
H    2.660068  1.167431  3.599998
H    3.374299  0.514266  5.670410
H    2.433557  -0.981896  5.417672
H    1.673213  0.430730  6.204583
Sr    -2.315980  -1.061104  4.075991
