30
Energy: -106807.942479 eV PBE+vdW (tier 2 basis)
C    -2.253896  -0.404605  -0.302327
C    -1.603632  -0.713843  1.013705
O    -0.570769  -1.359377  1.156857
H    -1.793854  0.503608  -0.719527
H    -3.333686  -0.232740  -0.219824
H    -2.058240  -1.222175  -1.003255
N    -2.239293  -0.229027  2.164924
C    -1.454192  -0.281921  3.378501
C    -1.218620  -1.742912  3.814288
O    -0.161902  -2.055081  4.459522
H    -2.959419  0.482689  2.072685
H    -0.439897  0.101867  3.177065
C    -2.083306  0.582107  4.510000
C    -1.230109  0.482413  5.731727
N    -1.590684  -0.195583  6.873632
C    0.117875  0.744276  5.895290
C    -0.489392  -0.366910  7.653909
N    0.582747  0.177393  7.076689
H    -3.112095  0.259062  4.722153
H    -2.134774  1.623283  4.160609
H    -2.533698  -0.491579  7.116188
H    0.760169  1.351780  5.259777
H    -0.512774  -0.854060  8.623973
N    -2.168602  -2.618476  3.555175
C    -2.106878  -4.051933  3.824892
H    -2.924635  -2.269065  2.965176
H    -3.124219  -4.432882  3.955245
H    -1.532023  -4.234324  4.736892
H    -1.631712  -4.575939  2.984658
Sr    1.724508  -1.560045  5.602403
