30
Energy: -106809.278457 eV PBE+vdW (tier 2 basis)
C    0.430790  -1.212423  0.703151
C    0.204411  -0.184101  1.772116
O    1.155902  0.537274  2.161156
H    1.285803  -1.839516  0.986469
H    0.709153  -0.698271  -0.227443
H    -0.436011  -1.851481  0.505168
N    -1.054181  -0.097994  2.263100
C    -1.686038  0.757137  3.286052
C    -1.576315  2.265810  2.993270
O    -0.475757  2.831907  2.751454
H    -1.702420  -0.751310  1.833333
H    -2.747998  0.499769  3.201353
C    -1.323745  0.399182  4.772436
C    0.093450  0.642956  5.152680
N    1.082927  -0.316866  5.132716
C    0.766482  1.828809  5.375890
C    2.288331  0.299353  5.267328
N    2.136480  1.616530  5.393973
H    -1.602887  -0.651341  4.931538
H    -1.986351  0.993433  5.417800
H    0.941588  -1.320349  5.051147
H    0.337674  2.810623  5.563913
H    3.232446  -0.236036  5.286146
N    -2.698339  2.983552  3.044943
C    -4.078345  2.543739  3.282319
H    -2.557420  3.978931  2.874617
H    -4.412095  1.838006  2.511091
H    -4.197410  2.100511  4.278554
H    -4.723197  3.425260  3.229126
Sr    1.871073  2.602906  2.941600
