30
Energy: -106807.869159 eV PBE+vdW (tier 2 basis)
C    -0.548294  0.195685  -0.221723
C    -0.421002  -0.174467  1.226425
O    0.633705  -0.416925  1.803367
H    -1.527663  -0.054635  -0.646477
H    0.243882  -0.299170  -0.792381
H    -0.398117  1.280824  -0.323887
N    -1.607884  -0.255519  1.967371
C    -1.442676  -0.323166  3.402654
C    -0.790832  -1.659117  3.815310
O    -0.063792  -1.719354  4.863250
H    -2.460332  0.146525  1.586173
H    -0.713532  0.438933  3.725465
C    -2.782590  -0.059018  4.149409
C    -2.547945  -0.153489  5.621281
N    -3.003340  -1.183597  6.412011
C    -1.645059  0.523597  6.420341
C    -2.358781  -1.141758  7.609337
N    -1.501409  -0.120590  7.644083
H    -3.555440  -0.771538  3.828734
H    -3.135269  0.946725  3.879516
H    -3.730148  -1.849742  6.159599
H    -1.136878  1.461788  6.203471
H    -2.556927  -1.835644  8.420588
N    -1.069048  -2.724242  3.091101
C    -0.500834  -4.056031  3.277395
H    -1.592199  -2.536384  2.235083
H    0.451678  -4.141178  2.737135
H    -1.202095  -4.799156  2.886226
H    -0.331346  -4.242690  4.341340
Sr    0.773166  -0.889663  6.791805
