30
Energy: -106809.815552 eV PBE+vdW (tier 2 basis)
C    2.058409  0.688464  1.177933
C    0.923850  0.230499  2.044605
O    1.155838  -0.275245  3.170427
H    2.630823  1.451653  1.722831
H    2.738622  -0.156486  1.006678
H    1.746964  1.099090  0.212016
N    -0.321991  0.401106  1.546415
C    -1.677815  0.125426  2.077413
C    -1.865871  0.553934  3.551424
O    -1.383804  -0.093080  4.518228
H    -0.338287  0.822637  0.621790
H    -2.313494  0.790124  1.477331
C    -2.208743  -1.312278  1.759328
C    -1.756940  -2.387280  2.688073
N    -2.545864  -2.897714  3.697320
C    -0.509861  -2.938608  2.909884
C    -1.770314  -3.668209  4.509498
N    -0.511834  -3.694892  4.073624
H    -1.906554  -1.547767  0.729225
H    -3.306757  -1.261183  1.747553
H    -3.545213  -2.745668  3.809129
H    0.377116  -2.858652  2.287757
H    -2.156945  -4.203765  5.371371
N    -2.618501  1.635883  3.741069
C    -2.947291  2.198811  5.051043
H    -2.966792  2.130366  2.924639
H    -2.224789  2.978027  5.327179
H    -2.930151  1.404834  5.802273
H    -3.947764  2.640108  5.005456
Sr    0.489949  -1.448135  5.056486
