30
Energy: -106808.871318 eV PBE+vdW (tier 2 basis)
C    -2.229830  2.367872  0.965847
C    -1.488566  1.074742  1.066283
O    -0.224976  1.050461  0.855345
H    -2.150763  2.774103  -0.051538
H    -3.285636  2.294138  1.239316
H    -1.743784  3.090337  1.636412
N    -2.115729  -0.052390  1.396104
C    -3.521524  -0.406420  1.152503
C    -3.684905  -1.824917  1.742470
O    -2.790355  -2.656621  1.509483
H    -1.534375  -0.892983  1.498138
H    -4.191846  0.314849  1.634866
C    -3.816723  -0.451290  -0.402373
C    -2.583176  -0.799206  -1.169640
N    -1.932193  -2.009215  -1.061158
C    -1.703062  0.013405  -1.853745
C    -0.706554  -1.900054  -1.614228
N    -0.517699  -0.667010  -2.108762
H    -4.640109  -1.153896  -0.589140
H    -4.161011  0.536068  -0.733638
H    -2.257301  -2.772623  -0.456298
H    -1.867786  1.030231  -2.199698
H    -0.003111  -2.725083  -1.674120
N    -4.807727  -2.068560  2.424172
C    -5.147639  -3.374092  2.990457
H    -5.451621  -1.300944  2.590892
H    -5.230713  -3.297939  4.081106
H    -4.354270  -4.080976  2.735182
H    -6.101798  -3.724385  2.579493
Sr    1.186782  0.675398  -0.891734
