30
Energy: -106808.226666 eV PBE+vdW (tier 2 basis)
C    0.294018  0.038533  0.124398
C    0.157429  0.044730  1.617497
O    1.204044  -0.112134  2.345937
H    1.026473  0.793157  -0.192296
H    -0.651775  0.225655  -0.393390
H    0.678501  -0.942317  -0.189124
N    -1.056633  0.213683  2.113146
C    -1.599956  0.067981  3.462941
C    -3.085056  -0.342759  3.173435
O    -3.525697  -0.112324  2.044712
H    -1.872733  0.261689  1.463828
H    -1.054278  -0.719885  3.999362
C    -1.586224  1.399222  4.280308
C    -0.219722  1.717277  4.776514
N    0.297582  1.223382  5.958617
C    0.857358  2.295537  4.144629
C    1.630315  1.468212  5.997665
N    2.016634  2.107720  4.888426
H    -2.293078  1.315814  5.116662
H    -1.957835  2.209261  3.639465
H    -0.240417  0.803630  6.713149
H    0.854316  2.847352  3.208249
H    2.263323  1.215890  6.842694
N    -3.815748  -0.890441  4.158792
C    -3.419679  -1.248357  5.513991
H    -4.782089  -1.071574  3.891627
H    -2.355018  -1.506098  5.558105
H    -3.979618  -2.137103  5.823807
H    -3.634595  -0.443603  6.232751
Sr    3.140157  0.656871  3.205108
