30
Energy: -106808.906097 eV PBE+vdW (tier 2 basis)
C    -0.018235  -0.228706  -0.079808
C    -0.228580  -0.395681  1.388575
O    0.410279  -1.287594  2.036147
H    1.051994  -0.064970  -0.266823
H    -0.589908  0.602712  -0.504427
H    -0.294436  -1.157530  -0.597553
N    -1.099232  0.415052  1.996692
C    -1.291325  0.583683  3.443270
C    -2.002526  -0.632339  4.075225
O    -1.313061  -1.644797  4.421725
H    -1.423315  1.229860  1.453094
H    -0.298868  0.610704  3.922141
C    -1.997136  1.959102  3.682080
C    -1.441467  3.043039  2.826846
N    -0.280316  3.748745  3.082256
C    -1.838426  3.466150  1.566350
C    -0.052600  4.561716  2.001110
N    -0.967867  4.400289  1.067780
H    -1.946314  2.190649  4.754823
H    -3.065079  1.888725  3.423274
H    0.239278  3.767834  3.954003
H    -2.740378  3.187189  1.024234
H    0.784310  5.252271  1.960049
N    -3.308652  -0.594001  4.265534
C    -4.106610  -1.664094  4.867127
H    -3.803903  0.244572  3.973968
H    -3.482090  -2.245441  5.550338
H    -4.514117  -2.321851  4.088257
H    -4.935383  -1.213662  5.421889
Sr    0.541962  -2.782627  3.714823
