30
Energy: -106808.942855 eV PBE+vdW (tier 2 basis)
C    -0.377532  1.692049  0.344203
C    -0.119331  0.895445  1.585504
O    1.084262  0.575776  1.892964
H    -0.045400  1.108190  -0.525863
H    0.216568  2.615188  0.361432
H    -1.433542  1.947157  0.212248
N    -1.163015  0.546595  2.322180
C    -1.269831  -0.369972  3.453060
C    -2.734563  -0.911810  3.311889
O    -3.520325  -0.248280  2.631311
H    -2.129459  0.742741  1.984907
H    -0.524282  -1.171288  3.354461
C    -1.114336  0.337217  4.836503
C    0.201376  1.022815  4.952418
N    0.376565  2.375315  4.757631
C    1.482568  0.516397  5.036696
C    1.704036  2.648074  4.695068
N    2.416517  1.528710  4.847549
H    -1.215595  -0.418912  5.626295
H    -1.942746  1.046201  4.972302
H    -0.368750  3.067093  4.716130
H    1.779692  -0.502930  5.274802
H    2.106099  3.649492  4.576943
N    -3.032200  -2.033505  3.980989
C    -4.368677  -2.632882  3.989023
H    -2.291181  -2.528810  4.465910
H    -4.356540  -3.597845  3.468057
H    -5.054006  -1.953863  3.475352
H    -4.705142  -2.781446  5.021432
Sr    3.185771  0.565092  2.682599
