30
Energy: -106807.852342 eV PBE+vdW (tier 2 basis)
C    -1.307773  1.394759  -1.021863
C    -0.945377  0.730708  0.263861
O    0.154012  0.073643  0.355469
H    -1.210068  0.693358  -1.858948
H    -0.577788  2.199357  -1.199482
H    -2.306598  1.840341  -1.015554
N    -1.715790  0.826740  1.340387
C    -3.163696  0.953988  1.477447
C    -3.370662  0.719002  3.007196
O    -2.527607  0.035607  3.606523
H    -1.365849  0.391729  2.215211
H    -3.512123  1.951702  1.181308
C    -3.969255  -0.138514  0.660307
C    -3.151564  -1.341538  0.312287
N    -3.013739  -1.814885  -0.979653
C    -2.223781  -2.059677  1.037051
C    -2.026503  -2.739656  -1.015388
N    -1.497868  -2.899172  0.202410
H    -4.348157  0.315623  -0.264569
H    -4.855644  -0.418504  1.246662
H    -3.595996  -1.553415  -1.772215
H    -2.052007  -2.004348  2.110197
H    -1.745226  -3.281493  -1.912603
N    -4.478467  1.236450  3.545713
C    -4.859641  1.060582  4.947756
H    -5.061849  1.838401  2.972123
H    -4.824233  2.023271  5.471819
H    -4.154979  0.368663  5.415544
H    -5.874739  0.651996  5.010995
Sr    0.810969  -2.073717  0.702008
