30
Energy: -106809.740753 eV PBE+vdW (tier 2 basis)
C    2.307923  0.732012  1.423521
C    1.092794  0.321484  2.199945
O    1.214551  -0.157890  3.354361
H    2.973722  -0.135435  1.320864
H    2.089251  1.134564  0.429154
H    2.857045  1.486967  2.002555
N    -0.101324  0.501862  1.591192
C    -1.502096  0.263705  2.011891
C    -1.802230  0.727329  3.456281
O    -1.431099  0.082733  4.472470
H    -0.030180  0.899592  0.658629
H    -2.072198  0.927405  1.348115
C    -2.034285  -1.169426  1.678319
C    -1.673634  -2.237718  2.653767
N    -2.550798  -2.729943  3.597018
C    -0.456454  -2.801590  2.984406
C    -1.855866  -3.502421  4.477539
N    -0.565665  -3.547322  4.149744
H    -1.661574  -1.427275  0.677036
H    -3.127266  -1.099124  1.584292
H    -3.554168  -2.565819  3.622582
H    0.480783  -2.738062  2.438916
H    -2.320320  -4.026391  5.307513
N    -2.526432  1.839296  3.562725
C    -2.942171  2.436372  4.832514
H    -2.785394  2.330784  2.712120
H    -3.877790  2.981306  4.675323
H    -2.178337  3.134729  5.199126
H    -3.097681  1.647411  5.573715
Sr    0.365896  -1.293137  5.190366
