30
Energy: -106808.766553 eV PBE+vdW (tier 2 basis)
C    2.012867  0.977678  1.652284
C    0.830878  0.392952  2.365585
O    0.917364  0.083880  3.579827
H    2.870238  0.302356  1.770004
H    1.845546  1.164517  0.586622
H    2.283895  1.923656  2.141275
N    -0.296841  0.236106  1.635849
C    -1.658494  -0.250015  1.960546
C    -2.208437  0.292364  3.300074
O    -1.828360  -0.139361  4.420380
H    -0.203212  0.532147  0.667991
H    -2.272874  0.198227  1.168195
C    -1.847072  -1.792127  1.772891
C    -1.387917  -2.641852  2.908516
N    -2.245633  -3.204241  3.830095
C    -0.125889  -2.886773  3.414264
C    -1.510293  -3.703340  4.862157
N    -0.209856  -3.503060  4.655009
H    -1.319202  -2.072290  0.850445
H    -2.913753  -1.970321  1.575683
H    -3.257760  -3.260805  3.747659
H    0.833389  -2.681701  2.947602
H    -1.947503  -4.218757  5.712117
N    -3.155404  1.222301  3.195800
C    -3.829303  1.848350  4.333680
H    -3.412754  1.547898  2.268396
H    -3.291336  2.750902  4.652018
H    -3.873695  1.140196  5.165677
H    -4.844155  2.125502  4.033030
Sr    0.120568  -1.002390  5.467328
