30
Energy: -106808.282433 eV PBE+vdW (tier 2 basis)
C    0.081628  -0.242616  0.192227
C    -0.026583  -0.171536  1.685980
O    0.983495  -0.505141  2.406504
H    0.270668  -1.286042  -0.097044
H    0.936959  0.352824  -0.154427
H    -0.820832  0.104850  -0.320106
N    -1.177970  0.238162  2.190540
C    -1.715871  0.233618  3.550368
C    -3.256329  0.101462  3.290629
O    -3.665146  0.382150  2.161251
H    -1.981255  0.422667  1.549774
H    -1.317831  -0.627469  4.103804
C    -1.439737  1.560645  4.326917
C    -0.027514  1.634664  4.790568
N    0.414534  1.092716  5.982082
C    1.124294  1.980754  4.121659
C    1.770046  1.086198  5.992095
N    2.244293  1.605141  4.854306
H    -2.131332  1.630735  5.177146
H    -1.670439  2.408036  3.668366
H    -0.175590  0.806065  6.759620
H    1.203594  2.491410  3.165535
H    2.363384  0.749171  6.836375
N    -4.059864  -0.274108  4.299540
C    -3.715606  -0.666129  5.659407
H    -5.047403  -0.276949  4.048913
H    -2.715666  -1.113697  5.699117
H    -4.424194  -1.429298  5.998455
H    -3.768378  0.181476  6.358807
Sr    3.045644  -0.087755  3.213592
