30
Energy: -106809.077091 eV PBE+vdW (tier 2 basis)
C    1.247016  2.087708  2.828636
C    -0.248785  2.200108  2.859091
O    -0.799223  3.066330  3.582809
H    1.620360  2.008063  3.857595
H    1.661357  3.016344  2.411717
H    1.620926  1.242210  2.241919
N    -0.930724  1.331305  2.076321
C    -2.367192  1.121593  1.811777
C    -3.087495  2.369282  1.264586
O    -3.059454  3.483250  1.855020
H    -0.331636  0.700272  1.552157
H    -2.363783  0.383963  1.001369
C    -3.162456  0.414024  2.967106
C    -3.296538  1.204814  4.219617
N    -2.452405  1.096864  5.304340
C    -4.081403  2.306712  4.500523
C    -2.691401  2.138855  6.145919
N    -3.665814  2.915265  5.674968
H    -2.670508  -0.549779  3.156967
H    -4.160655  0.175875  2.572616
H    -1.775602  0.355227  5.464339
H    -4.943419  2.667343  3.943645
H    -2.159026  2.284129  7.080731
N    -3.792522  2.227481  0.142335
C    -3.948641  1.050229  -0.720120
H    -4.270621  3.078459  -0.152727
H    -4.597470  1.331501  -1.554163
H    -4.427165  0.218553  -0.188743
H    -2.985933  0.729673  -1.138205
Sr    -2.553785  4.552347  3.902853
