30
Energy: -106808.271837 eV PBE+vdW (tier 2 basis)
C    -0.019619  0.062293  0.065966
C    -0.057920  0.099840  1.564303
O    1.018573  -0.128755  2.227311
H    0.259578  -0.952069  -0.252526
H    0.751767  0.747076  -0.311048
H    -0.978027  0.322054  -0.394074
N    -1.220464  0.369630  2.133448
C    -1.683766  0.281562  3.517641
C    -3.211474  -0.017123  3.331187
O    -3.706819  0.236169  2.230392
H    -2.070933  0.473637  1.537096
H    -1.165246  -0.539675  4.030402
C    -1.515626  1.616783  4.310948
C    -0.099408  1.834514  4.713128
N    0.454862  1.316621  5.867890
C    0.975012  2.320740  4.003863
C    1.802024  1.459033  5.817460
N    2.162674  2.053578  4.675097
H    -2.170593  1.596929  5.192282
H    -1.865855  2.445878  3.682558
H    -0.063142  0.948792  6.662466
H    0.952847  2.860064  3.060480
H    2.467765  1.169146  6.624431
N    -3.914980  -0.498380  4.369571
C    -3.458572  -0.875056  5.700447
H    -4.907766  -0.607455  4.168342
H    -4.060653  -1.717806  6.056401
H    -3.566341  -0.051526  6.421969
H    -2.415065  -1.210421  5.678700
Sr    3.059166  0.499925  2.947873
