30
Energy: -106808.678065 eV PBE+vdW (tier 2 basis)
C    -1.525014  -2.123240  -0.578533
C    -0.925210  -1.430949  0.602585
O    0.234554  -1.746126  1.014573
H    -2.557329  -1.822029  -0.784511
H    -1.484676  -3.210360  -0.435812
H    -0.907585  -1.895494  -1.460066
N    -1.639741  -0.466965  1.199294
C    -1.192967  0.507421  2.211725
C    -1.213719  -0.122172  3.627311
O    -0.479297  -1.147620  3.836770
H    -2.563941  -0.291238  0.810114
H    -0.127958  0.713423  2.014485
C    -2.023981  1.799791  1.955129
C    -1.912124  2.904598  2.948071
N    -0.778798  3.663008  3.181718
C    -2.847513  3.385903  3.850915
C    -1.083129  4.551041  4.183499
N    -2.317206  4.395419  4.613175
H    -3.090155  1.525615  1.907410
H    -1.751548  2.143024  0.944020
H    0.076874  3.663364  2.636176
H    -3.888934  3.085769  3.952119
H    -0.368640  5.283331  4.547224
N    -1.945859  0.423511  4.570617
C    -2.037297  -0.031232  5.956191
H    -2.379931  1.335523  4.349048
H    -3.080981  -0.277043  6.187626
H    -1.712124  0.776975  6.622553
H    -1.410854  -0.913088  6.102754
Sr    1.147086  -2.469161  2.967818
