30
Energy: -106809.913121 eV PBE+vdW (tier 2 basis)
C    -0.503848  2.197151  -0.964592
C    -1.127327  1.365525  0.116896
O    -0.489824  0.407609  0.620936
H    -0.142185  1.534447  -1.761305
H    -1.174578  2.947732  -1.395406
H    0.378005  2.707234  -0.552255
N    -2.379292  1.710815  0.496209
C    -3.301499  1.168213  1.514865
C    -2.706764  1.147503  2.940537
O    -1.673350  0.498933  3.250251
H    -2.752874  2.514170  -0.001037
H    -4.113705  1.906654  1.533171
C    -4.016242  -0.169570  1.110664
C    -3.124784  -1.350352  0.963516
N    -2.553408  -1.755071  -0.224369
C    -2.517645  -2.135742  1.924276
C    -1.600369  -2.687586  0.047924
N    -1.532326  -2.928681  1.355882
H    -4.569305  0.026922  0.181728
H    -4.773828  -0.374216  1.880436
H    -2.813735  -1.434356  -1.153377
H    -2.764759  -2.199579  2.981679
H    -1.002528  -3.170180  -0.718949
N    -3.384406  1.835912  3.856240
C    -3.007912  1.890760  5.270755
H    -4.198139  2.369725  3.566796
H    -3.771391  2.457199  5.809874
H    -2.946824  0.878893  5.687667
H    -2.037583  2.388028  5.389668
Sr    -0.040574  -0.998092  2.412319
