30
Energy: -106809.007923 eV PBE+vdW (tier 2 basis)
C    -0.372416  0.287133  0.287050
C    -0.174993  0.166324  1.767772
O    0.962888  0.337912  2.271187
H    -1.400419  0.106212  -0.043333
H    0.297731  -0.419144  -0.221020
H    -0.067674  1.295038  -0.026639
N    -1.271903  -0.124965  2.503923
C    -1.481310  -0.280650  3.960556
C    -0.730360  0.784022  4.790038
O    0.487334  0.662544  5.099235
H    -2.121294  -0.243102  1.958296
H    -2.551015  -0.072759  4.081932
C    -1.311449  -1.744091  4.481271
C    0.087840  -2.205323  4.710338
N    0.648014  -2.331987  5.963183
C    1.140212  -2.408071  3.837291
C    1.987359  -2.538566  5.823256
N    2.328926  -2.565214  4.536026
H    -1.812803  -2.400438  3.755601
H    -1.891589  -1.829204  5.411249
H    0.148592  -2.290088  6.848243
H    1.107223  -2.479397  2.753904
H    2.658485  -2.691295  6.663197
N    -1.424709  1.840374  5.209264
C    -2.830285  2.187072  4.967455
H    -0.883265  2.491163  5.777918
H    -3.003187  3.185741  5.378265
H    -3.509940  1.491155  5.475805
H    -3.053958  2.221941  3.894771
Sr    2.491966  0.028660  3.996966
