30
Energy: -106808.292069 eV PBE+vdW (tier 2 basis)
C    -0.555254  1.040827  0.907047
C    -0.153322  -0.323929  1.362637
O    1.058603  -0.712313  1.203557
H    -1.599393  1.287120  1.116857
H    -0.366525  1.155826  -0.168477
H    0.085906  1.770999  1.421381
N    -1.023157  -1.136673  1.954014
C    -2.479357  -1.180671  1.794074
C    -2.937393  -2.325694  2.726322
O    -2.194298  -3.317836  2.823494
H    -0.674471  -2.041718  2.300952
H    -2.933744  -0.220957  2.060249
C    -2.865514  -1.561843  0.303390
C    -1.796598  -2.398956  -0.319229
N    -1.474371  -3.675965  0.091487
C    -0.754834  -2.024899  -1.141839
C    -0.276489  -4.017002  -0.427352
N    0.209961  -3.023928  -1.186489
H    -2.972865  -0.645075  -0.289125
H    -3.844870  -2.059129  0.301545
H    -1.972617  -4.193799  0.818840
H    -0.659916  -1.107814  -1.716657
H    0.188445  -4.985152  -0.268013
N    -4.130537  -2.225294  3.322794
C    -5.054758  -1.088725  3.317846
H    -4.379861  -3.035319  3.887922
H    -5.350811  -0.808956  2.298915
H    -4.630710  -0.219202  3.837227
H    -5.960764  -1.388545  3.851648
Sr    2.260511  -1.910380  -0.307015
