30
Energy: -106808.994850 eV PBE+vdW (tier 2 basis)
C    -0.320504  2.592069  0.877923
C    -0.688053  1.189137  0.541537
O    0.179151  0.283101  0.411462
H    0.135913  3.026850  -0.026924
H    -1.176926  3.219375  1.144644
H    0.442421  2.620936  1.663246
N    -1.997799  0.860976  0.307319
C    -3.103421  1.161802  1.217474
C    -2.586284  1.115505  2.681427
O    -1.581500  0.409625  2.980862
H    -2.066809  -0.056526  -0.130894
H    -3.531564  2.153888  1.011724
C    -4.236911  0.089256  0.989183
C    -3.653779  -1.289262  0.962294
N    -3.307043  -1.951674  -0.207576
C    -2.990081  -1.985944  1.952175
C    -2.438674  -2.955389  0.099727
N    -2.192469  -2.981132  1.408703
H    -4.749655  0.324373  0.046918
H    -4.983721  0.188651  1.786859
H    -3.708898  -1.784865  -1.128880
H    -3.064069  -1.840281  3.026292
H    -2.030060  -3.636852  -0.640215
N    -3.262170  1.828964  3.571579
C    -2.981079  1.890144  5.007241
H    -4.038508  2.392846  3.231728
H    -2.049067  1.359434  5.212801
H    -2.882386  2.937762  5.313491
H    -3.801667  1.429059  5.570677
Sr    -0.179387  -1.362828  2.115202
