30
Energy: -106806.680149 eV PBE+vdW (tier 2 basis)
C    -0.735181  -0.003558  0.066114
C    -0.489997  -0.060801  1.536873
O    0.686241  -0.223797  1.987078
H    0.040230  0.596124  -0.423684
H    -0.655281  -1.030585  -0.324476
H    -1.725069  0.385131  -0.195519
N    -1.545762  0.062329  2.356540
C    -1.653376  -0.279492  3.786231
C    -0.959551  0.736121  4.703414
O    0.306373  0.839353  4.734922
H    -2.438169  0.166364  1.881839
H    -2.731287  -0.228706  3.987028
C    -1.193232  -1.742827  4.121215
C    -1.643441  -2.747852  3.125608
N    -2.913424  -3.298955  3.075913
C    -1.003574  -3.252567  2.007676
C    -2.964797  -4.104542  1.969046
N    -1.827482  -4.085891  1.301203
H    -1.552313  -1.965319  5.137650
H    -0.096559  -1.783460  4.174131
H    -3.635007  -3.232364  3.786879
H    0.022080  -3.077774  1.693244
H    -3.847223  -4.681317  1.709793
N    -1.725504  1.453395  5.511400
C    -1.228626  2.412582  6.500741
H    -2.733424  1.352408  5.427233
H    -0.302102  2.037245  6.945001
H    -1.985561  2.531817  7.281044
H    -1.040471  3.386552  6.030889
Sr    2.199491  0.266386  3.581970
