30
Energy: -106808.097152 eV PBE+vdW (tier 2 basis)
C    1.633200  1.111173  0.520678
C    0.997608  0.412165  1.680261
O    1.719827  -0.201924  2.526777
H    2.438965  1.766623  0.873643
H    2.101660  0.349990  -0.121156
H    0.929437  1.693162  -0.083243
N    -0.338304  0.459646  1.782856
C    -1.269068  -0.325012  2.616338
C    -1.246225  0.009957  4.116812
O    -0.157634  0.155609  4.763277
H    -0.797971  0.994887  1.050747
H    -2.253806  -0.025359  2.239756
C    -1.168743  -1.866891  2.383848
C    -2.413666  -2.540610  2.863952
N    -2.433082  -3.623829  3.723146
C    -3.749802  -2.231957  2.665991
C    -3.746313  -3.923678  3.979388
N    -4.560297  -3.088174  3.367683
H    -0.275757  -2.273831  2.879333
H    -1.019627  -2.016272  1.303294
H    -1.636381  -4.184953  4.006030
H    -4.178725  -1.465412  2.023282
H    -4.041707  -4.758685  4.607290
N    -2.424107  0.061611  4.711381
C    -2.657167  0.245275  6.142075
H    -3.239115  -0.170286  4.140458
H    -1.727551  0.544975  6.629851
H    -3.026018  -0.690965  6.580352
H    -3.414401  1.024605  6.283982
Sr    2.089769  -0.133836  4.758917
