30
Energy: -106808.754353 eV PBE+vdW (tier 2 basis)
C    1.933532  1.024425  1.773364
C    0.741115  0.428830  2.459644
O    0.829323  0.036746  3.649573
H    2.763656  0.306957  1.815278
H    1.755594  1.306491  0.730652
H    2.253567  1.913428  2.334129
N    -0.397159  0.353001  1.733424
C    -1.768311  -0.117592  2.039857
C    -2.288787  0.346203  3.420148
O    -1.913528  -0.175038  4.503391
H    -0.304116  0.710747  0.786638
H    -2.378350  0.400887  1.288002
C    -2.001026  -1.637391  1.748461
C    -1.553069  -2.576081  2.816502
N    -2.416226  -3.179388  3.706534
C    -0.293067  -2.887122  3.290207
C    -1.684379  -3.767595  4.693075
N    -0.381097  -3.585986  4.485987
H    -1.491460  -1.866624  0.801974
H    -3.074349  -1.772969  1.553412
H    -3.430156  -3.205577  3.630758
H    0.666667  -2.674169  2.828040
H    -2.126899  -4.330537  5.509457
N    -3.205300  1.311321  3.392782
C    -3.844343  1.876729  4.581731
H    -3.460997  1.710683  2.494304
H    -4.837444  2.243529  4.306105
H    -3.251619  2.711398  4.978476
H    -3.939269  1.103001  5.348768
Sr    0.021501  -1.157305  5.466324
