30
Energy: -106809.838463 eV PBE+vdW (tier 2 basis)
C    -0.971575  -1.600546  -0.265396
C    -0.907554  -0.786960  0.993154
O    -1.757200  -0.962422  1.901678
H    -0.244547  -1.302705  -1.028073
H    -1.983926  -1.534253  -0.684013
H    -0.802243  -2.656278  -0.010756
N    0.097406  0.114859  1.076446
C    0.506953  1.058575  2.136900
C    0.792685  0.373213  3.491808
O    -0.076360  -0.265866  4.140551
H    0.705805  0.129998  0.262983
H    1.472642  1.435088  1.775062
C    -0.380292  2.347813  2.251336
C    -1.783325  2.124950  2.690452
N    -2.851068  1.948112  1.836149
C    -2.293447  1.845463  3.943625
C    -3.918335  1.512652  2.559704
N    -3.607795  1.413604  3.850842
H    -0.347368  2.849879  1.274431
H    0.123211  3.022096  2.958622
H    -2.854915  2.134210  0.836694
H    -1.798350  1.969920  4.904125
H    -4.888736  1.300680  2.121743
N    2.026530  0.527572  3.966284
C    2.471822  -0.008772  5.254589
H    2.709529  1.027018  3.405172
H    1.825924  0.355080  6.061892
H    3.496311  0.327233  5.433298
H    2.448215  -1.105263  5.241441
Sr    -2.354001  -0.913950  4.145255
