30
Energy: -106808.795502 eV PBE+vdW (tier 2 basis)
C    0.770107  -0.475876  0.732633
C    0.175226  0.583462  1.611558
O    0.953942  1.368708  2.265296
H    1.455865  -0.022708  0.004086
H    1.361877  -1.159588  1.357473
H    0.016840  -1.057997  0.192842
N    -1.144169  0.652859  1.667287
C    -2.062964  1.380508  2.541637
C    -3.312080  0.428857  2.563733
O    -3.417000  -0.393197  1.651048
H    -1.714493  -0.060594  1.161880
H    -1.621268  1.489651  3.542540
C    -2.485589  2.772413  1.971831
C    -1.392062  3.773702  2.104554
N    -1.201146  4.552416  3.229888
C    -0.260516  3.979109  1.348454
C    0.009624  5.156966  3.152878
N    0.628702  4.811192  2.018612
H    -3.389571  3.109646  2.497901
H    -2.767447  2.651718  0.917587
H    -1.883601  4.707948  3.968138
H    -0.049135  3.586143  0.357486
H    0.379523  5.858084  3.894552
N    -4.197134  0.612291  3.553168
C    -5.433311  -0.164081  3.675257
H    -3.972440  1.260926  4.300119
H    -5.580356  -0.725963  2.749305
H    -6.281406  0.511589  3.832470
H    -5.365431  -0.865481  4.515904
Sr    2.405412  3.092296  2.309885
