30
Energy: -106808.761895 eV PBE+vdW (tier 2 basis)
C    2.206622  0.371686  1.823573
C    0.936768  -0.117519  2.452590
O    0.961404  -0.646914  3.591308
H    2.641961  1.146699  2.469558
H    2.928208  -0.455098  1.788794
H    2.079393  0.779858  0.815773
N    -0.196640  0.052875  1.734810
C    -1.623333  -0.245991  2.001455
C    -2.081638  0.137845  3.427444
O    -1.787863  -0.542262  4.445777
H    -0.047014  0.494583  0.831813
H    -2.146756  0.431930  1.314025
C    -2.070554  -1.676550  1.551880
C    -1.772194  -2.778302  2.510891
N    -2.719616  -3.339465  3.340983
C    -0.574197  -3.319568  2.935503
C    -2.087266  -4.130128  4.251919
N    -0.770419  -4.120877  4.051526
H    -1.590056  -1.875576  0.583673
H    -3.150248  -1.634227  1.349997
H    -3.725956  -3.208401  3.273679
H    0.408853  -3.201816  2.488598
H    -2.611343  -4.705219  5.009332
N    -2.854754  1.218630  3.508704
C    -3.419882  1.741881  4.752766
H    -3.047495  1.739551  2.657842
H    -4.384592  2.209184  4.533176
H    -2.751070  2.492326  5.194053
H    -3.562639  0.921377  5.460983
Sr    -0.023681  -1.894512  5.279576
