30
Energy: -106807.922969 eV PBE+vdW (tier 2 basis)
C    -2.330116  -0.363007  -0.173148
C    -1.716392  -0.713691  1.149831
O    -0.736121  -1.434253  1.305044
H    -3.395235  -0.112578  -0.101210
H    -2.188075  -1.195343  -0.869641
H    -1.801294  0.507808  -0.588724
N    -2.323856  -0.177416  2.293408
C    -1.555263  -0.284434  3.514001
C    -1.435678  -1.757337  3.957223
O    -0.412005  -2.146829  4.613606
H    -2.987900  0.585728  2.192058
H    -0.512937  0.019562  3.319519
C    -2.125230  0.631123  4.636293
C    -1.293391  0.471062  5.866315
N    -1.715445  -0.173193  7.006680
C    0.069162  0.629669  6.041963
C    -0.637732  -0.425621  7.798017
N    0.478260  0.033255  7.229488
H    -3.178053  0.390670  4.840119
H    -2.091884  1.671461  4.282066
H    -2.680482  -0.396788  7.240096
H    0.761941  1.184337  5.411135
H    -0.707576  -0.905826  8.769337
N    -2.446914  -2.559584  3.691691
C    -2.495719  -3.992746  3.966034
H    -3.168302  -2.156243  3.092778
H    -3.540971  -4.298031  4.072292
H    -1.958114  -4.213122  4.892358
H    -2.039896  -4.553491  3.138808
Sr    1.496218  -1.793143  5.772562
