30
Energy: -106808.927576 eV PBE+vdW (tier 2 basis)
C    -3.734562  -0.368320  1.157655
C    -2.715646  -0.632109  2.223830
O    -3.025298  -0.989686  3.372687
H    -4.434901  -1.211971  1.117920
H    -3.305269  -0.200464  0.164102
H    -4.321979  0.515215  1.445048
N    -1.396263  -0.491186  1.878267
C    -0.290823  -0.629329  2.822966
C    -0.267173  -2.036702  3.463045
O    0.119229  -2.219102  4.658476
H    -1.179452  -0.118872  0.958166
H    0.613329  -0.608981  2.194318
C    -0.112726  0.574715  3.807075
C    -0.660818  0.498421  5.195126
N    -1.912053  0.037344  5.523009
C    -0.071465  0.840097  6.411977
C    -2.045872  0.092555  6.883395
N    -0.935558  0.560065  7.460788
H    -0.534786  1.454306  3.298056
H    0.960553  0.782134  3.902883
H    -2.562325  -0.347653  4.789501
H    0.892581  1.314800  6.582328
H    -2.961264  -0.181017  7.402232
N    -0.576998  -3.053857  2.678488
C    -0.547828  -4.458582  3.081600
H    -0.905146  -2.831438  1.741717
H    0.369780  -4.670141  3.640227
H    -0.567243  -5.078446  2.181175
H    -1.422758  -4.703295  3.698513
Sr    0.078730  -1.802502  6.915432
