30
Energy: -106808.994119 eV PBE+vdW (tier 2 basis)
C    -0.344021  2.611710  0.876935
C    -0.704821  1.209730  0.529488
O    0.166252  0.307491  0.398884
H    0.118981  3.052825  -0.021470
H    -1.204354  3.235169  1.140016
H    0.412204  2.638128  1.668830
N    -2.012009  0.878593  0.285491
C    -3.124043  1.169973  1.190899
C    -2.615632  1.115889  2.657657
O    -1.610355  0.411375  2.958604
H    -2.075293  -0.036374  -0.158848
H    -3.554137  2.161989  0.988946
C    -4.252662  0.095262  0.948969
C    -3.664745  -1.281093  0.916274
N    -3.308821  -1.934406  -0.255960
C    -3.004342  -1.982044  1.905320
C    -2.438689  -2.937078  0.049703
N    -2.199996  -2.970715  1.359885
H    -4.760850  0.334952  0.005399
H    -5.004265  0.186867  1.743062
H    -3.706099  -1.762988  -1.178403
H    -3.085073  -1.843815  2.979931
H    -2.023297  -3.612063  -0.692394
N    -3.299752  1.821041  3.548137
C    -3.028649  1.873930  4.986028
H    -4.075160  2.385252  3.206701
H    -2.917072  2.918980  5.296888
H    -3.860359  1.422974  5.541176
H    -2.106154  1.328967  5.197000
Sr    -0.196788  -1.350520  2.089850
