30
Energy: -106808.842763 eV PBE+vdW (tier 2 basis)
C    -2.196864  2.427161  0.972268
C    -1.422044  1.151841  1.043198
O    -0.174018  1.151487  0.753010
H    -2.188973  2.820994  -0.052978
H    -3.232101  2.334573  1.310851
H    -1.687099  3.169097  1.602790
N    -2.001880  0.016724  1.427554
C    -3.412168  -0.370490  1.278980
C    -3.505708  -1.784838  1.893703
O    -2.608405  -2.599169  1.614523
H    -1.396917  -0.809898  1.503510
H    -4.066132  0.342008  1.795653
C    -3.805733  -0.441437  -0.253000
C    -2.616661  -0.772696  -1.094283
N    -1.933391  -1.967036  -1.014200
C    -1.800287  0.049854  -1.842527
C    -0.748298  -1.838617  -1.645840
N    -0.618796  -0.608133  -2.165272
H    -4.623701  -1.163777  -0.378103
H    -4.192475  0.533986  -0.572569
H    -2.201919  -2.729532  -0.381132
H    -2.009140  1.058539  -2.188417
H    -0.032056  -2.649137  -1.741465
N    -4.578396  -2.045195  2.646256
C    -4.852983  -3.351329  3.245734
H    -5.228158  -1.290153  2.844632
H    -4.060714  -4.043296  2.949461
H    -5.822200  -3.727542  2.897715
H    -4.870944  -3.264408  4.338579
Sr    1.132161  0.783419  -1.075633
