30
Energy: -106809.084502 eV PBE+vdW (tier 2 basis)
C    1.220806  1.664146  2.925255
C    -0.254970  1.933807  2.943979
O    -0.727885  2.785393  3.736564
H    1.558350  1.453163  3.948024
H    1.741223  2.576344  2.601289
H    1.517422  0.839180  2.269240
N    -1.005857  1.217842  2.074400
C    -2.449630  1.188611  1.770701
C    -3.020659  2.550920  1.331446
O    -2.889693  3.597101  2.023270
H    -0.464218  0.576248  1.502709
H    -2.504455  0.531475  0.895469
C    -3.343123  0.468744  2.843711
C    -3.422083  1.151981  4.162439
N    -2.619616  0.855329  5.243594
C    -4.091757  2.301953  4.534099
C    -2.765993  1.836077  6.175093
N    -3.641230  2.752717  5.765482
H    -2.961189  -0.555871  2.949806
H    -4.351238  0.376922  2.414759
H    -2.029504  0.033416  5.343084
H    -4.897465  2.802687  4.001820
H    -2.242704  1.837422  7.126178
N    -3.709078  2.588166  0.190679
C    -3.968016  1.517671  -0.779473
H    -4.088042  3.508631  -0.030484
H    -3.034424  1.129115  -1.205716
H    -4.555894  1.943702  -1.597168
H    -4.551465  0.701230  -0.336636
Sr    -2.322607  4.415877  4.168385
