30
Energy: -106809.914429 eV PBE+vdW (tier 2 basis)
C    -0.260476  1.878662  -0.989668
C    -1.018083  1.151621  0.081429
O    -0.534327  0.116586  0.603681
H    0.669749  2.273150  -0.557108
H    0.031239  1.163723  -1.769561
H    -0.813835  2.706027  -1.445940
N    -2.215490  1.674488  0.432668
C    -3.223760  1.276195  1.436371
C    -2.660977  1.184386  2.872360
O    -1.745031  0.388560  3.207494
H    -2.461276  2.519052  -0.075785
H    -3.922923  2.122636  1.435960
C    -4.114441  0.051583  1.024121
C    -3.399990  -1.246367  0.899063
N    -2.870241  -1.736747  -0.275785
C    -2.932996  -2.106396  1.874239
C    -2.068765  -2.796605  0.018573
N    -2.062811  -3.037711  1.328257
H    -4.615402  0.319009  0.083361
H    -4.908551  -0.036967  1.779062
H    -3.061373  -1.385748  -1.210622
H    -3.207946  -2.127775  2.926480
H    -1.532846  -3.365731  -0.734642
N    -3.235095  1.984844  3.767507
C    -2.870837  2.006303  5.186018
H    -3.953050  2.632591  3.457898
H    -2.958940  1.002183  5.616383
H    -1.841015  2.362437  5.311607
H    -3.552041  2.683259  5.707677
Sr    -0.329471  -1.332247  2.405897
