30
Energy: -106808.871655 eV PBE+vdW (tier 2 basis)
C    -2.243469  2.411681  0.949677
C    -1.481910  1.133498  1.084275
O    -0.210581  1.134008  0.924593
H    -1.785523  3.152083  1.620228
H    -2.149026  2.804871  -0.071708
H    -3.303907  2.322353  1.199775
N    -2.099502  -0.005412  1.390714
C    -3.486355  -0.387984  1.089576
C    -3.644472  -1.812210  1.666970
O    -2.722048  -2.622869  1.471482
H    -1.505776  -0.833928  1.517237
H    -4.191011  0.317755  1.545294
C    -3.717638  -0.436277  -0.476214
C    -2.446662  -0.753608  -1.193910
N    -1.771064  -1.947282  -1.058760
C    -1.561212  0.079926  -1.845184
C    -0.528454  -1.808550  -1.565234
N    -0.351026  -0.571592  -2.054130
H    -4.515584  -1.158321  -0.696320
H    -4.072270  0.542942  -0.820232
H    -2.101045  -2.718197  -0.466055
H    -1.737273  1.092255  -2.198438
H    0.196681  -2.616134  -1.597893
N    -4.792824  -2.084917  2.292771
C    -5.133138  -3.402947  2.828921
H    -5.459689  -1.332215  2.435344
H    -4.316232  -4.092353  2.601622
H    -6.061252  -3.765202  2.371289
H    -5.266538  -3.341998  3.915492
Sr    1.276802  0.800620  -0.767181
