30
Energy: -106808.166762 eV PBE+vdW (tier 2 basis)
C    -0.668588  -1.771486  1.603523
C    -0.379067  -0.325964  1.827728
O    0.833239  0.059147  1.976926
H    -0.564748  -2.023299  0.538887
H    -1.673996  -2.057991  1.922595
H    0.072128  -2.354432  2.162853
N    -1.340502  0.604228  1.939692
C    -2.635754  0.790910  1.242161
C    -3.204707  -0.480593  0.569593
O    -2.757836  -0.884977  -0.515591
H    -0.944435  1.504153  2.215074
H    -3.351138  1.162163  1.988200
C    -2.416438  1.925118  0.171795
C    -1.091408  1.787049  -0.503156
N    -0.785505  0.725634  -1.320073
C    0.107525  2.442791  -0.301692
C    0.539700  0.729834  -1.567159
N    1.133584  1.766868  -0.956958
H    -2.455686  2.899634  0.675874
H    -3.249741  1.903133  -0.542926
H    -1.480583  -0.029046  -1.474076
H    0.276784  3.385393  0.213641
H    1.033356  0.002228  -2.204160
N    -4.219525  -1.064290  1.225007
C    -4.945376  -2.230444  0.724021
H    -4.543244  -0.646545  2.092173
H    -5.994713  -1.968924  0.541527
H    -4.902434  -3.043923  1.458131
H    -4.483418  -2.553147  -0.212341
Sr    2.569523  1.131781  0.948730
