30
Energy: -106809.083638 eV PBE+vdW (tier 2 basis)
C    1.404675  1.885756  3.073419
C    -0.080659  2.084459  2.996657
O    -0.637867  2.944421  3.722686
H    1.901144  2.809425  2.744482
H    1.777282  1.052489  2.468638
H    1.690464  1.728596  4.121412
N    -0.745528  1.297083  2.119054
C    -2.165963  1.183112  1.735537
C    -2.772692  2.493041  1.196735
O    -2.709330  3.581038  1.830966
H    -0.141825  0.660054  1.607748
H    -2.138267  0.482722  0.893067
C    -3.089438  0.474822  2.790498
C    -3.284496  1.221299  4.062234
N    -2.546720  1.015761  5.208573
C    -4.023025  2.358909  4.325666
C    -2.795544  2.035704  6.073687
N    -3.676092  2.891487  5.557931
H    -2.667224  -0.522261  2.975851
H    -4.062986  0.310101  2.306950
H    -1.933472  0.225890  5.391903
H    -4.810067  2.796293  3.715386
H    -2.339085  2.108681  7.055854
N    -3.418788  2.436001  0.032336
C    -3.598653  1.301374  -0.881341
H    -3.823935  3.325855  -0.256864
H    -4.180423  1.652236  -1.738167
H    -4.157313  0.484423  -0.408644
H    -2.635644  0.933918  -1.258041
Sr    -2.318530  4.527310  3.963789
