30
Energy: -106808.578437 eV PBE+vdW (tier 2 basis)
C    -1.323473  -2.397614  -0.503496
C    -0.889126  -1.649176  0.712923
O    0.194757  -1.946128  1.305099
H    -1.355416  -3.472795  -0.284940
H    -0.566006  -2.254316  -1.287827
H    -2.297135  -2.077116  -0.888071
N    -1.660341  -0.646680  1.158072
C    -1.307289  0.302132  2.225774
C    -1.562506  -0.336052  3.612570
O    -0.709120  -1.170961  4.056963
H    -2.519115  -0.460818  0.644537
H    -0.217771  0.452451  2.177083
C    -1.981080  1.653070  1.951586
C    -1.518760  2.714800  2.898798
N    -1.934600  4.029978  2.817977
C    -0.639284  2.696369  3.966488
C    -1.300280  4.723458  3.813896
N    -0.513674  3.940934  4.524663
H    -3.083186  1.539457  1.961891
H    -1.730051  1.926544  0.912515
H    -2.571655  4.425636  2.133608
H    -0.082598  1.856102  4.374556
H    -1.452438  5.786882  3.969201
N    -2.647784  -0.014830  4.285602
C    -3.000162  -0.500773  5.619452
H    -3.223250  0.733050  3.904508
H    -2.419460  -1.397038  5.846327
H    -4.069766  -0.735135  5.644714
H    -2.784111  0.277312  6.363678
Sr    1.132677  -2.325744  3.341850
