30
Energy: -106808.979569 eV PBE+vdW (tier 2 basis)
C    0.118409  2.296419  0.806180
C    -0.464139  0.956272  0.521056
O    0.247659  -0.082360  0.454300
H    -0.630716  3.065412  1.019511
H    0.858322  2.239939  1.611789
H    0.659340  2.607895  -0.102899
N    -1.804925  0.831784  0.266668
C    -2.864421  1.350284  1.132809
C    -2.388315  1.293457  2.610257
O    -1.519656  0.447899  2.968101
H    -2.013162  -0.082347  -0.132836
H    -3.122556  2.386981  0.871047
C    -4.152181  0.464094  0.923293
C    -3.799570  -0.990024  0.971194
N    -3.541328  -1.753125  -0.159608
C    -3.277831  -1.737980  2.007628
C    -2.853687  -2.868473  0.213724
N    -2.641530  -2.872897  1.528940
H    -4.603390  0.733892  -0.040926
H    -4.887031  0.719829  1.696922
H    -3.891615  -1.566348  -1.097974
H    -3.349111  -1.532787  3.072197
H    -2.546259  -3.640463  -0.485159
N    -2.951407  2.153381  3.448058
C    -2.686525  2.242779  4.885395
H    -3.616865  2.819923  3.061926
H    -2.400506  3.269978  5.139062
H    -3.587208  1.972837  5.450288
H    -1.872209  1.562101  5.142419
Sr    -0.407584  -1.566353  2.217635
