30
Energy: -106808.006251 eV PBE+vdW (tier 2 basis)
C    1.493550  1.507280  0.515249
C    0.901275  0.738418  1.653446
O    1.659127  0.148150  2.485447
H    0.755096  2.057422  -0.076996
H    2.252765  2.205271  0.889419
H    2.013891  0.795988  -0.143558
N    -0.435237  0.699691  1.753135
C    -1.317356  -0.160811  2.564867
C    -1.315192  0.136823  4.073252
O    -0.236481  0.308795  4.729623
H    -0.925630  1.223718  1.032992
H    -2.318402  0.088786  2.194816
C    -1.125861  -1.687868  2.292375
C    -2.315578  -2.449515  2.780397
N    -2.252691  -3.524177  3.648690
C    -3.671205  -2.234687  2.593379
C    -3.540002  -3.911353  3.919328
N    -4.414712  -3.138385  3.309355
H    -0.198386  -2.049107  2.758757
H    -0.991888  -1.801456  1.205635
H    -1.417388  -4.030311  3.923537
H    -4.156644  -1.503289  1.950155
H    -3.771822  -4.760446  4.554841
N    -2.496998  0.126628  4.662424
C    -2.744679  0.262198  6.096063
H    -3.299632  -0.120273  4.081217
H    -1.823731  0.560284  6.600759
H    -3.102257  -0.693374  6.500390
H    -3.515368  1.024773  6.256367
Sr    2.024434  0.154827  4.718641
