30
Energy: -106808.965562 eV PBE+vdW (tier 2 basis)
C    -0.611324  -1.337349  0.291856
C    -0.527912  -0.210555  1.267721
O    0.562719  0.423696  1.435446
H    -0.415952  -0.940667  -0.715096
H    -1.584088  -1.839597  0.292882
H    0.177779  -2.070136  0.503751
N    -1.627564  0.123456  1.950038
C    -1.791977  1.295243  2.824364
C    -1.133270  1.079959  4.209957
O    0.130700  1.226887  4.303060
H    -2.475698  -0.426404  1.798779
H    -1.208268  2.114073  2.377034
C    -3.266815  1.733236  2.826454
C    -4.258182  0.664142  3.191820
N    -5.618393  0.892003  3.130027
C    -4.156789  -0.664174  3.595917
C    -6.254616  -0.265067  3.491301
N    -5.396600  -1.220623  3.778284
H    -3.487370  2.115772  1.816351
H    -3.354402  2.605084  3.495321
H    -6.072747  1.761267  2.865610
H    -3.265222  -1.263115  3.768893
H    -7.336573  -0.346867  3.528039
N    -1.890669  0.786438  5.245810
C    -1.425017  0.579993  6.616009
H    -2.888456  0.627212  5.055704
H    -1.523231  -0.479422  6.885609
H    -2.043114  1.175995  7.296912
H    -0.380907  0.888344  6.700066
Sr    1.990954  1.271180  2.978082
