30
Energy: -106808.978985 eV PBE+vdW (tier 2 basis)
C    -0.778668  -0.140036  0.067654
C    -0.466896  0.030204  1.517673
O    0.646799  0.522198  1.888668
H    -1.739210  -0.633027  -0.113573
H    0.022207  -0.711028  -0.419290
H    -0.793457  0.853681  -0.403358
N    -1.389024  -0.333296  2.414284
C    -1.342095  -0.090521  3.864468
C    -0.410855  -1.094371  4.589079
O    0.847498  -0.890019  4.538378
H    -2.260345  -0.743752  2.072184
H    -0.849282  0.882568  4.011301
C    -2.774525  0.035534  4.411342
C    -3.688228  -1.117397  4.103207
N    -5.027595  -1.083131  4.436041
C    -3.530291  -2.345085  3.466140
C    -5.597099  -2.251131  4.005421
N    -4.716122  -3.031670  3.416912
H    -3.194706  0.964860  3.992920
H    -2.702532  0.210062  5.497434
H    -5.510713  -0.329414  4.916135
H    -2.633204  -2.784594  3.035336
H    -6.649752  -2.473284  4.151246
N    -0.939558  -2.099261  5.255042
C    -0.201365  -3.111504  6.007855
H    -1.958607  -2.213690  5.182502
H    -0.633980  -3.197649  7.011123
H    0.848688  -2.821571  6.082668
H    -0.284534  -4.082346  5.502774
Sr    2.387450  0.276671  3.319433
