30
Energy: -106808.670344 eV PBE+vdW (tier 2 basis)
C    -1.534711  -2.187649  -0.610924
C    -0.948897  -1.496034  0.577622
O    0.204058  -1.814211  1.006024
H    -2.574905  -1.909419  -0.809991
H    -1.464796  -3.275064  -0.485924
H    -0.926869  -1.928862  -1.490991
N    -1.668252  -0.527089  1.160520
C    -1.232859  0.456790  2.168619
C    -1.254830  -0.159235  3.589092
O    -0.543189  -1.197294  3.811239
H    -2.586834  -0.352108  0.757843
H    -0.168892  0.671405  1.973837
C    -2.075578  1.739517  1.901011
C    -1.972112  2.856300  2.881325
N    -0.846736  3.630608  3.100364
C    -2.910125  3.340097  3.780511
C    -1.157655  4.529058  4.090627
N    -2.388603  4.366326  4.526328
H    -3.138996  1.454254  1.859303
H    -1.808299  2.075550  0.886133
H    0.008401  3.632271  2.554009
H    -3.947653  3.029774  3.889433
H    -0.449585  5.273432  4.442131
N    -1.961931  0.405690  4.539552
C    -2.021822  -0.068853  5.922320
H    -2.381089  1.327044  4.327329
H    -2.206971  -1.147704  5.944135
H    -2.839751  0.453324  6.426410
H    -1.082337  0.149379  6.447234
Sr    1.079819  -2.544300  2.973876
