30
Energy: -106808.343877 eV PBE+vdW (tier 2 basis)
C    -0.645376  1.015907  0.864122
C    -0.215827  -0.338970  1.323950
O    1.014948  -0.682999  1.215237
H    -0.416470  1.148259  -0.201585
H    -0.051604  1.762266  1.411033
H    -1.705210  1.224157  1.032345
N    -1.081547  -1.188397  1.867797
C    -2.526768  -1.281614  1.643402
C    -2.983936  -2.452080  2.544075
O    -2.209866  -3.417341  2.666513
H    -0.716847  -2.084573  2.221419
H    -3.026276  -0.341396  1.898078
C    -2.833386  -1.660011  0.133638
C    -1.709757  -2.453545  -0.448392
N    -1.362846  -3.723821  -0.036810
C    -0.645305  -2.034837  -1.218742
C    -0.131697  -4.017996  -0.503923
N    0.354248  -3.000049  -1.229664
H    -2.945965  -0.741166  -0.454694
H    -3.793995  -2.190257  0.083675
H    -1.875552  -4.267532  0.660850
H    -0.555982  -1.108257  -1.779059
H    0.358496  -4.971676  -0.333463
N    -4.205835  -2.401425  3.086239
C    -5.169821  -1.299025  3.049129
H    -4.450316  -3.225493  3.632867
H    -4.802968  -0.421107  3.597166
H    -6.088549  -1.637855  3.535755
H    -5.427313  -1.017722  2.020200
Sr    2.323325  -1.825447  -0.249159
