30
Energy: -106808.630370 eV PBE+vdW (tier 2 basis)
C    0.266113  -0.378409  -0.249488
C    0.132241  -0.123578  1.215248
O    1.160984  0.054291  1.938894
H    0.750852  0.494653  -0.710098
H    -0.690456  -0.558662  -0.750551
H    0.930669  -1.235953  -0.416467
N    -1.097160  -0.071765  1.747828
C    -1.421851  0.333215  3.124781
C    -1.183879  -0.846750  4.097863
O    0.012506  -1.101844  4.453170
H    -1.880924  -0.227088  1.117421
H    -0.686698  1.098060  3.418723
C    -2.812074  0.981815  3.152106
C    -3.129864  1.577852  4.487121
N    -4.290009  2.284814  4.738792
C    -2.437531  1.614252  5.684280
C    -4.241203  2.704473  6.041182
N    -3.133689  2.310676  6.636515
H    -3.580964  0.251637  2.830410
H    -2.812348  1.761898  2.371810
H    -5.035779  2.486056  4.079922
H    -1.471583  1.176948  5.925362
H    -5.036943  3.287629  6.493811
N    -2.209259  -1.557256  4.518911
C    -2.147001  -2.669251  5.466710
H    -3.137124  -1.225459  4.264630
H    -2.797082  -3.477487  5.114733
H    -2.493201  -2.331952  6.452743
H    -1.118487  -3.027726  5.541874
Sr    2.153744  -0.508094  3.905764
