30
Energy: -106808.841660 eV PBE+vdW (tier 2 basis)
C    0.640235  -0.523391  0.616646
C    0.093481  0.564848  1.491414
O    0.906677  1.366740  2.079883
H    1.263448  -1.188145  1.231258
H    -0.140780  -1.120690  0.136090
H    1.287074  -0.095390  -0.161039
N    -1.221009  0.640833  1.612417
C    -2.092443  1.396805  2.510676
C    -3.341135  0.450624  2.622624
O    -3.494396  -0.395384  1.739073
H    -1.818031  -0.084711  1.157534
H    -1.600450  1.532390  3.484539
C    -2.540251  2.773639  1.924017
C    -1.438924  3.774076  1.970961
N    -1.187137  4.584041  3.061709
C    -0.348651  3.953770  1.150371
C    0.018994  5.181975  2.903211
N    0.576400  4.801736  1.748251
H    -3.414920  3.129165  2.486337
H    -2.876570  2.624413  0.889590
H    -1.829322  4.763726  3.830058
H    -0.190903  3.531746  0.161368
H    0.429275  5.902725  3.603694
N    -4.173448  0.663264  3.651108
C    -5.402664  -0.105744  3.858064
H    -3.909727  1.331396  4.367540
H    -6.245226  0.576139  4.018882
H    -5.299367  -0.768332  4.726082
H    -5.586232  -0.708782  2.965121
Sr    2.362005  3.085517  1.996527
