30
Energy: -106808.966118 eV PBE+vdW (tier 2 basis)
C    -0.784206  0.017580  0.175880
C    -0.465913  0.138042  1.629596
O    0.649672  0.616831  2.011980
H    0.004683  -0.554636  -0.329338
H    -0.779927  1.024536  -0.265990
H    -1.754009  -0.451945  -0.017854
N    -1.382926  -0.257671  2.517984
C    -1.326828  -0.066366  3.975697
C    -0.392206  -1.095196  4.660215
O    0.866097  -0.889449  4.610687
H    -2.256355  -0.655043  2.166312
H    -0.832025  0.900666  4.153058
C    -2.755530  0.041419  4.536537
C    -3.670262  -1.102463  4.198113
N    -5.004822  -1.086976  4.551702
C    -3.516828  -2.304892  3.513384
C    -5.575818  -2.240840  4.085938
N    -4.700348  -2.994702  3.455735
H    -3.179090  0.983784  4.152047
H    -2.675476  0.179829  5.627232
H    -5.483609  -0.353675  5.066485
H    -2.624284  -2.723922  3.053679
H    -6.625193  -2.473564  4.238747
N    -0.918142  -2.121959  5.294512
C    -0.176918  -3.155869  6.014463
H    -1.937668  -2.234046  5.220998
H    0.875896  -2.874376  6.081089
H    -0.274058  -4.114645  5.489423
H    -0.596435  -3.261322  7.021602
Sr    2.398527  0.318867  3.423086
