30
Energy: -106808.362844 eV PBE+vdW (tier 2 basis)
C    -2.699802  -0.113345  0.017865
C    -2.473526  -0.517902  1.443198
O    -3.355365  -1.058259  2.131667
H    -1.800053  0.248960  -0.490831
H    -3.460819  0.679426  -0.000302
H    -3.116456  -0.965407  -0.532720
N    -1.229615  -0.270930  1.970305
C    -0.874090  -0.350453  3.383338
C    -0.890618  -1.765685  4.007029
O    0.047132  -2.091515  4.825308
H    -0.539788  0.153263  1.358858
H    0.178448  -0.046728  3.440360
C    -1.705119  0.670388  4.248944
C    -1.393887  0.493653  5.694520
N    -2.229678  -0.150051  6.580984
C    -0.201031  0.626771  6.381030
C    -1.544791  -0.418829  7.724305
N    -0.288745  0.023954  7.631379
H    -2.774294  0.520371  4.053656
H    -1.446398  1.681994  3.911006
H    -3.215265  -0.349988  6.422092
H    0.690463  1.166502  6.066084
H    -1.989995  -0.894382  8.593000
N    -1.883915  -2.568489  3.714251
C    -2.020299  -3.938535  4.195436
H    -2.622816  -2.131227  3.093643
H    -1.046935  -4.440770  4.202921
H    -2.697425  -4.474614  3.524342
H    -2.447894  -3.959615  5.207881
Sr    1.204572  -1.814557  6.745449
