30
Energy: -106809.837989 eV PBE+vdW (tier 2 basis)
C    0.124423  0.250246  0.405214
C    -0.118501  -0.318639  1.771084
O    0.843444  -0.499978  2.557713
H    0.596693  1.236190  0.514509
H    -0.778978  0.353775  -0.204503
H    0.843617  -0.389253  -0.123743
N    -1.402349  -0.606263  2.084491
C    -2.060415  -1.133234  3.303383
C    -1.554980  -0.484699  4.612908
O    -0.437605  -0.758205  5.125004
H    -2.060562  -0.403299  1.337233
H    -3.101562  -0.807578  3.177135
C    -2.145312  -2.695226  3.360034
C    -0.925575  -3.389616  3.862433
N    -0.808109  -3.882704  5.144906
C    0.340872  -3.514762  3.325194
C    0.491914  -4.224706  5.362989
N    1.230167  -3.988168  4.279795
H    -2.391022  -3.042766  2.346786
H    -3.011096  -2.953827  3.986087
H    -1.566426  -3.996470  5.812945
H    0.656704  -3.319368  2.304330
H    0.846763  -4.659483  6.292581
N    -2.404118  0.354824  5.201741
C    -2.138353  1.051219  6.461178
H    -3.284666  0.556957  4.737065
H    -3.089371  1.230968  6.971456
H    -1.645200  2.013950  6.273196
H    -1.495034  0.431586  7.092044
Sr    1.757639  -1.400472  4.488810
