30
Energy: -106809.009450 eV PBE+vdW (tier 2 basis)
C    -0.381996  0.239411  0.136023
C    -0.173365  0.178607  1.618568
O    0.980808  0.288304  2.102900
H    0.217421  -0.547299  -0.341427
H    0.002900  1.199626  -0.233861
H    -1.426696  0.130421  -0.172738
N    -1.276994  0.008212  2.381478
C    -1.461838  -0.050856  3.847877
C    -0.589973  0.981710  4.596576
O    0.602527  0.739675  4.932670
H    -2.143717  -0.073567  1.856620
H    -2.503423  0.264891  3.983780
C    -1.415774  -1.493509  4.442791
C    -0.061626  -2.084619  4.645313
N    0.520846  -2.231866  5.885560
C    0.937390  -2.421217  3.750477
C    1.827255  -2.579996  5.715613
N    2.124682  -2.679913  4.421187
H    -2.012258  -2.132414  3.775733
H    -1.960014  -1.469726  5.397666
H    0.055923  -2.109040  6.781931
H    0.864811  -2.522836  2.671422
H    2.504501  -2.776853  6.541413
N    -1.152653  2.146632  4.911645
C    -2.505714  2.633806  4.618950
H    -0.541047  2.774994  5.432395
H    -3.264298  2.082004  5.189009
H    -2.724458  2.582348  3.546013
H    -2.555710  3.683674  4.920946
Sr    2.510489  -0.121605  3.810470
