30
Energy: -106808.853239 eV PBE+vdW (tier 2 basis)
C    -2.102799  2.412078  0.877867
C    -1.369675  1.113140  0.962181
O    -0.126754  1.065974  0.654419
H    -1.561498  3.146961  1.490190
H    -2.093460  2.788474  -0.153861
H    -3.136539  2.359817  1.229383
N    -1.980678  0.005326  1.376788
C    -3.404853  -0.338140  1.255251
C    -3.535081  -1.738024  1.896066
O    -2.667944  -2.585392  1.619766
H    -1.401986  -0.839220  1.460050
H    -4.027744  0.404099  1.768459
C    -3.823237  -0.422946  -0.269456
C    -2.658232  -0.807792  -1.121559
N    -2.012335  -2.021815  -1.028602
C    -1.827627  -0.026114  -1.897471
C    -0.833606  -1.943483  -1.680019
N    -0.672901  -0.727807  -2.224960
H    -4.666015  -1.120193  -0.369799
H    -4.182778  0.558832  -0.601071
H    -2.295103  -2.763102  -0.376727
H    -2.009359  0.982127  -2.259551
H    -0.145127  -2.778290  -1.770543
N    -4.605629  -1.951251  2.666234
C    -4.914345  -3.238059  3.290491
H    -5.228222  -1.172505  2.860084
H    -4.915070  -3.133217  4.381905
H    -4.148799  -3.960036  2.995575
H    -5.899710  -3.588002  2.960928
Sr    1.139105  0.623561  -1.186019
