30
Energy: -106808.901649 eV PBE+vdW (tier 2 basis)
C    0.528540  -0.641816  1.150438
C    -0.129788  -0.636802  2.495382
O    -0.003650  -1.655559  3.264893
H    0.103648  -1.460207  0.552158
H    1.602311  -0.843152  1.259646
H    0.393009  0.297327  0.605223
N    -0.827436  0.436171  2.834801
C    -1.726872  0.672230  3.960483
C    -2.745669  1.702495  3.365138
O    -2.398279  2.309763  2.348077
H    -0.988837  1.197800  2.140623
H    -2.207842  -0.270242  4.253471
C    -1.014184  1.313041  5.193040
C    0.092823  0.451043  5.688597
N    1.420102  0.667005  5.389565
C    0.073316  -0.782905  6.306548
C    2.146181  -0.409144  5.783385
N    1.351633  -1.328360  6.338343
H    -1.756439  1.461887  5.987831
H    -0.644317  2.309619  4.915163
H    1.802571  1.517511  4.981909
H    -0.775428  -1.279173  6.772653
H    3.225573  -0.472864  5.686835
N    -3.914991  1.906295  3.991504
C    -4.456047  1.259780  5.180863
H    -4.481861  2.634337  3.558938
H    -4.255098  1.843185  6.090758
H    -4.048696  0.249582  5.299532
H    -5.541232  1.162041  5.069537
Sr    0.739961  -3.155886  4.759664
