30
Energy: -106809.913747 eV PBE+vdW (tier 2 basis)
C    -0.539732  2.216981  -0.840073
C    -1.183746  1.362958  0.211481
O    -0.549791  0.404796  0.719548
H    -0.149103  1.569983  -1.636021
H    -1.206420  2.966851  -1.278326
H    0.324847  2.730023  -0.396047
N    -2.449643  1.689005  0.560379
C    -3.393488  1.121606  1.545138
C    -2.838254  1.088371  2.986418
O    -1.806386  0.447253  3.316219
H    -2.818253  2.495479  0.064466
H    -4.214631  1.850315  1.550645
C    -4.080872  -0.218420  1.102819
C    -3.172089  -1.387091  0.965043
N    -2.563664  -1.769570  -0.211770
C    -2.582626  -2.178434  1.931910
C    -1.607727  -2.694903  0.074620
N    -1.572936  -2.952652  1.380714
H    -4.609737  -0.015320  0.161292
H    -4.857498  -0.442116  1.847939
H    -2.801930  -1.439278  -1.143334
H    -2.858024  -2.259218  2.981141
H    -0.983569  -3.160564  -0.681689
N    -3.548542  1.757295  3.891771
C    -3.211336  1.798382  5.316638
H    -4.360108  2.285734  3.586769
H    -3.148734  0.782006  5.722175
H    -2.250975  2.306009  5.468279
H    -3.996299  2.348292  5.841840
Sr    -0.133730  -1.019774  2.504015
