30
Energy: -106808.292172 eV PBE+vdW (tier 2 basis)
C    -0.493092  1.046418  1.055714
C    -0.104819  -0.336992  1.464589
O    1.107435  -0.725406  1.307944
H    -1.532378  1.298482  1.282225
H    -0.313023  1.192453  -0.017705
H    0.161943  1.752004  1.586252
N    -0.987344  -1.167228  2.010905
C    -2.440640  -1.198782  1.824924
C    -2.918126  -2.381508  2.698703
O    -2.173833  -3.374480  2.776339
H    -0.648720  -2.086841  2.328777
H    -2.897263  -0.249838  2.124201
C    -2.802895  -1.515346  0.313447
C    -1.726100  -2.329212  -0.326072
N    -1.409751  -3.620950  0.040820
C    -0.674679  -1.926195  -1.122252
C    -0.206460  -3.944056  -0.476987
N    0.289369  -2.924280  -1.193246
H    -2.898445  -0.574368  -0.241877
H    -3.783138  -2.009368  0.274559
H    -1.916927  -4.165252  0.742240
H    -0.572298  -0.988625  -1.661532
H    0.255840  -4.918083  -0.348923
N    -4.128283  -2.309840  3.264260
C    -5.059530  -1.179173  3.275424
H    -4.389934  -3.143317  3.788074
H    -5.974318  -1.501012  3.780654
H    -5.336319  -0.868848  2.259836
H    -4.652384  -0.323901  3.830616
Sr    2.330115  -1.856454  -0.236908
