30
Energy: -106808.177856 eV PBE+vdW (tier 2 basis)
C    -0.822463  -0.480545  -0.040437
C    -0.504065  -0.185541  1.387684
O    0.669513  -0.370353  1.834795
H    -0.877200  -1.575455  -0.148825
H    -0.014404  -0.125892  -0.689846
H    -1.776642  -0.056840  -0.371011
N    -1.495708  0.273049  2.169037
C    -1.580500  0.323145  3.638492
C    -0.744561  1.445615  4.257272
O    0.526498  1.429884  4.177323
H    -2.392304  0.357075  1.698628
H    -2.636797  0.537664  3.831175
C    -1.257313  -1.046759  4.340876
C    -1.861973  -2.215758  3.655194
N    -3.180900  -2.618212  3.788847
C    -1.339344  -3.059643  2.690860
C    -3.374178  -3.671404  2.934585
N    -2.279884  -3.951323  2.252939
H    -1.587169  -0.954902  5.387059
H    -0.169599  -1.194578  4.378511
H    -3.851826  -2.290923  4.476717
H    -0.320654  -3.086458  2.312992
H    -4.322345  -4.195173  2.861878
N    -1.344339  2.405171  4.947688
C    -2.778207  2.628451  5.171328
H    -0.704886  3.068714  5.385848
H    -3.328407  2.652132  4.223812
H    -2.893423  3.604174  5.651316
H    -3.200527  1.867175  5.839017
Sr    2.305604  0.406511  3.178246
