30
Energy: -106808.942657 eV PBE+vdW (tier 2 basis)
C    -0.224386  1.543625  0.277347
C    -0.018200  0.808480  1.565449
O    1.171266  0.503168  1.936068
H    -1.273506  1.793204  0.091082
H    0.140248  0.917424  -0.549178
H    0.371484  2.465770  0.273070
N    -1.091513  0.497018  2.275831
C    -1.246450  -0.362955  3.444980
C    -2.706168  -0.909150  3.271631
O    -3.461515  -0.279189  2.527647
H    -2.043124  0.677217  1.890760
H    -0.500281  -1.169215  3.415641
C    -1.144187  0.410860  4.797353
C    0.168471  1.098718  4.933056
N    0.356462  2.440246  4.682331
C    1.443345  0.594289  5.091919
C    1.686406  2.707129  4.659957
N    2.387956  1.594736  4.892937
H    -1.280342  -0.305504  5.618366
H    -1.974614  1.127248  4.864616
H    -0.383938  3.130773  4.578627
H    1.726809  -0.413350  5.389118
H    2.096686  3.701090  4.511136
N    -3.034529  -1.995801  3.982871
C    -4.372097  -2.592554  3.965460
H    -2.315509  -2.467544  4.521433
H    -4.341018  -3.583195  3.496020
H    -5.032928  -1.940361  3.388788
H    -4.752406  -2.687148  4.988964
Sr    3.239580  0.527972  2.808720
