30
Energy: -106809.235696 eV PBE+vdW (tier 2 basis)
C    -1.862423  0.833179  -0.090720
C    -1.434678  0.353563  1.264992
O    -0.509106  -0.488608  1.370246
H    -1.022409  1.367455  -0.556283
H    -2.734928  1.494594  -0.077397
H    -2.076290  -0.035814  -0.726071
N    -2.096511  0.879096  2.322522
C    -1.980210  0.694266  3.781962
C    -0.580611  1.017527  4.339994
O    0.468919  0.477861  3.895521
H    -2.812937  1.549902  2.060619
H    -2.658309  1.456496  4.181992
C    -2.560351  -0.657843  4.332357
C    -1.827724  -1.880272  3.907060
N    -2.171815  -2.657529  2.821536
C    -0.600159  -2.371044  4.308541
C    -1.149495  -3.516674  2.561167
N    -0.158464  -3.353961  3.436046
H    -3.616456  -0.703833  4.033159
H    -2.555673  -0.587865  5.429541
H    -3.048824  -2.614724  2.308995
H    -0.034137  -2.098278  5.196497
H    -1.171854  -4.242235  1.754041
N    -0.509453  1.875126  5.357870
C    -1.579234  2.634369  6.016124
H    0.438167  2.024880  5.703384
H    -2.077713  3.314784  5.314088
H    -1.121981  3.242126  6.801795
H    -2.314514  1.972258  6.489433
Sr    1.297174  -1.303804  2.578989
