30
Energy: -106809.739818 eV PBE+vdW (tier 2 basis)
C    0.528432  -1.098944  0.695073
C    0.264995  -0.096230  1.779726
O    1.194733  0.639559  2.193265
H    1.394244  -1.711338  0.977840
H    0.806813  -0.560763  -0.221867
H    -0.320618  -1.753877  0.473556
N    -1.000994  -0.048152  2.256866
C    -1.664786  0.774431  3.286567
C    -1.581822  2.290697  3.024662
O    -0.489601  2.885290  2.816048
H    -1.628843  -0.708357  1.807786
H    -2.720006  0.497964  3.181062
C    -1.316384  0.394070  4.770749
C    0.092159  0.652180  5.172856
N    1.097859  -0.290339  5.140524
C    0.742927  1.843424  5.430188
C    2.291341  0.342518  5.300968
N    2.116086  1.653649  5.456798
H    -1.581085  -0.663479  4.906363
H    -1.996156  0.965682  5.418726
H    0.974183  -1.293732  5.033502
H    0.295594  2.813172  5.636820
H    3.244114  -0.177416  5.315788
N    -2.720268  2.982997  3.066761
C    -4.095004  2.509228  3.267217
H    -2.597483  3.984232  2.918089
H    -4.224452  2.044666  4.252356
H    -4.757717  3.377597  3.217098
H    -4.397418  1.811436  2.476102
Sr    1.859155  2.699832  3.029512
