30
Energy: -106808.902737 eV PBE+vdW (tier 2 basis)
C    0.540041  -0.359933  1.164098
C    -0.104648  -0.481266  2.510231
O    0.107797  -1.528082  3.220818
H    0.175886  -1.175109  0.522954
H    1.627278  -0.481327  1.257317
H    0.326338  0.594236  0.672684
N    -0.880617  0.513205  2.912552
C    -1.785001  0.615856  4.054321
C    -2.886312  1.594757  3.522611
O    -2.596839  2.282183  2.538994
H    -1.107201  1.297037  2.262863
H    -2.188210  -0.376067  4.297010
C    -1.112712  1.242058  5.316672
C    0.064159  0.445039  5.756826
N    1.367179  0.782699  5.463680
C    0.148649  -0.819102  6.304051
C    2.180106  -0.252379  5.792372
N    1.466450  -1.261700  6.298454
H    -1.856317  1.287133  6.122756
H    -0.825789  2.278755  5.092820
H    1.677135  1.682749  5.103666
H    -0.653685  -1.406976  6.745117
H    3.260157  -0.224235  5.686905
N    -4.061391  1.673073  4.166132
C    -4.539987  0.921671  5.320096
H    -4.686634  2.377967  3.778044
H    -5.615772  0.748292  5.209670
H    -4.374552  1.466664  6.260441
H    -4.056450  -0.059784  5.378904
Sr    0.985944  -3.043412  4.624939
