30
Energy: -106807.940181 eV PBE+vdW (tier 2 basis)
C    -2.277738  -0.335010  -0.144410
C    -1.662336  -0.673491  1.181151
O    -0.657246  -1.357972  1.339345
H    -3.355480  -0.142610  -0.081942
H    -2.083473  -1.147602  -0.851303
H    -1.792005  0.569586  -0.539967
N    -2.298970  -0.168298  2.323486
C    -1.535875  -0.253188  3.549295
C    -1.369971  -1.722357  3.989976
O    -0.339670  -2.077790  4.655360
H    -2.989145  0.571229  2.221297
H    -0.503123  0.085874  3.362212
C    -2.143424  0.639440  4.670117
C    -1.307851  0.513055  5.901593
N    -1.709833  -0.135604  7.046657
C    0.048810  0.716176  6.076566
C    -0.625056  -0.347662  7.840082
N    0.476081  0.141760  7.268444
H    -3.186149  0.357454  4.872538
H    -2.150957  1.680165  4.315575
H    -2.667544  -0.386262  7.282617
H    0.724052  1.287486  5.441606
H    -0.679847  -0.822871  8.814780
N    -2.349597  -2.557807  3.710376
C    -2.353952  -3.992593  3.979648
H    -3.078659  -2.176365  3.106314
H    -1.796423  -4.200344  4.896881
H    -1.894313  -4.536601  3.143490
H    -3.388326  -4.328492  4.099779
Sr    1.552019  -1.659312  5.820438
