30
Energy: -106808.450705 eV PBE+vdW (tier 2 basis)
C    -1.008864  -2.357398  1.828608
C    -0.952175  -0.917851  2.214012
O    -0.183773  -0.109177  1.601614
H    0.005678  -2.768766  1.761638
H    -1.451063  -2.424554  0.822705
H    -1.607675  -2.965829  2.513902
N    -1.747830  -0.487250  3.200254
C    -2.014029  0.921571  3.537525
C    -0.863379  1.508117  4.383977
O    0.186112  1.911163  3.788846
H    -2.407607  -1.163898  3.580277
H    -1.992668  1.494108  2.596216
C    -3.419121  1.055027  4.141878
C    -4.469733  0.620222  3.167250
N    -5.792826  0.432100  3.519827
C    -4.433090  0.357259  1.808625
C    -6.473539  0.079408  2.385565
N    -5.674916  0.022114  1.338972
H    -3.561243  2.108088  4.437811
H    -3.491079  0.454792  5.069708
H    -6.203018  0.561992  4.439214
H    -3.583630  0.394985  1.131535
H    -7.539752  -0.123898  2.387239
N    -0.997357  1.579862  5.695342
C    -0.005085  2.113974  6.629661
H    -1.870883  1.243086  6.093989
H    -0.496227  2.818942  7.309564
H    0.778181  2.628835  6.069613
H    0.434009  1.297349  7.216509
Sr    1.232584  1.645626  1.760123
