30
Energy: -106808.906972 eV PBE+vdW (tier 2 basis)
C    -0.830224  -1.133668  0.134418
C    -0.502504  -0.547155  1.466625
O    0.636596  -0.018043  1.682863
H    -1.809148  -1.623120  0.108112
H    -0.053521  -1.852836  -0.155461
H    -0.814803  -0.328439  -0.614606
N    -1.433177  -0.574188  2.425046
C    -1.322877  0.055720  3.743616
C    -0.429701  -0.813417  4.652636
O    0.824925  -0.587059  4.656364
H    -2.312787  -1.073136  2.252145
H    -0.767590  0.995976  3.614986
C    -2.742328  0.424577  4.268592
C    -3.740876  -0.685773  4.243964
N    -4.115932  -1.425498  5.364811
C    -4.412266  -1.289635  3.195075
C    -5.003914  -2.388025  4.934796
N    -5.174880  -2.343567  3.633359
H    -3.098960  1.245564  3.630442
H    -2.634033  0.850871  5.275552
H    -4.019035  -1.120848  6.330564
H    -4.443368  -0.978359  2.151950
H    -5.489163  -3.076809  5.620003
N    -0.973660  -1.780574  5.366035
C    -0.240706  -2.702772  6.234128
H    -1.986288  -1.911398  5.282514
H    -0.841879  -2.903162  7.126877
H    0.710472  -2.252706  6.528629
H    -0.055222  -3.650759  5.712125
Sr    2.358850  0.205237  3.139836
