30
Energy: -106808.415589 eV PBE+vdW (tier 2 basis)
C    -0.170228  -0.438351  -0.118910
C    -0.258950  -0.455429  1.369690
O    0.595613  -1.090864  2.066293
H    0.735002  0.121069  -0.400917
H    -1.034385  0.032404  -0.598541
H    -0.048542  -1.459602  -0.500022
N    -1.241449  0.235437  1.960035
C    -1.334323  0.542418  3.397695
C    -1.888418  -0.668276  4.179393
O    -1.089909  -1.607400  4.493215
H    -1.829291  0.800903  1.349914
H    -0.306623  0.674968  3.772563
C    -2.086822  1.865733  3.598312
C    -1.364411  3.001736  2.942065
N    -1.922421  4.255567  2.778079
C    -0.088331  3.120038  2.418689
C    -0.978849  5.050195  2.184361
N    0.136242  4.387645  1.952030
H    -2.192555  2.033898  4.683296
H    -3.113251  1.783298  3.190985
H    -2.847384  4.553948  3.071027
H    0.692430  2.366584  2.353991
H    -1.163715  6.092904  1.946100
N    -3.167911  -0.698395  4.502969
C    -3.838753  -1.769208  5.242090
H    -3.739074  0.095346  4.221705
H    -3.088822  -2.440167  5.665976
H    -4.500820  -2.329810  4.570146
H    -4.436600  -1.328596  6.047590
Sr    0.971551  -2.405994  3.866182
