30
Energy: -106808.908592 eV PBE+vdW (tier 2 basis)
C    -0.904061  -0.612804  0.231231
C    -0.598844  -0.161717  1.620962
O    0.505566  0.408427  1.891006
H    -0.099350  -1.266078  -0.130076
H    -0.919687  0.267498  -0.427476
H    -1.861243  -1.137408  0.146684
N    -1.516700  -0.354939  2.576657
C    -1.406485  0.117556  3.962309
C    -0.429693  -0.790347  4.742897
O    0.802367  -0.455767  4.777479
H    -2.359487  -0.880307  2.341448
H    -0.912001  1.099142  3.930484
C    -2.816402  0.335230  4.582858
C    -3.753322  -0.825414  4.518717
N    -4.541250  -1.119439  3.408810
C    -4.024732  -1.847705  5.412412
C    -5.246757  -2.263796  3.704392
N    -4.936029  -2.732830  4.891474
H    -3.250167  1.214040  4.082589
H    -2.673660  0.627632  5.631994
H    -4.785270  -0.470352  2.665159
H    -3.662473  -1.953313  6.433445
H    -5.968463  -2.694524  3.016653
N    -0.884496  -1.884939  5.311920
C    -0.083624  -2.843463  6.072590
H    -1.894673  -2.069772  5.215921
H    0.231531  -3.674191  5.427463
H    -0.698265  -3.243942  6.885038
H    0.796348  -2.346003  6.488710
Sr    2.245326  0.596525  3.352245
