30
Energy: -106808.842613 eV PBE+vdW (tier 2 basis)
C    1.221050  0.640740  1.784019
C    -0.111911  1.247523  2.100910
O    -0.238112  2.239997  2.844692
H    1.889872  1.429881  1.416625
H    1.178030  -0.171984  1.051210
H    1.666483  0.260673  2.713610
N    -1.210889  0.676582  1.533485
C    -2.579202  1.167059  1.694265
C    -2.688946  2.686555  1.446659
O    -3.261825  3.453816  2.283852
H    -1.078984  -0.144184  0.950262
H    -3.136634  0.706874  0.862410
C    -3.305262  0.654458  2.972945
C    -3.170967  1.387246  4.271795
N    -2.019039  1.966866  4.750845
C    -4.131612  1.635902  5.253240
C    -2.300827  2.536719  5.965068
N    -3.584251  2.371725  6.291667
H    -2.975594  -0.386414  3.115437
H    -4.379543  0.591352  2.753225
H    -1.146478  2.056925  4.162403
H    -5.162181  1.289758  5.286878
H    -1.548706  3.028108  6.577729
N    -2.252322  3.188688  0.299798
C    -1.653485  2.514383  -0.853514
H    -2.365105  4.198653  0.221229
H    -2.115157  1.535910  -1.022311
H    -0.570411  2.396198  -0.725817
H    -1.838377  3.132323  -1.737413
Sr    -3.888614  4.188670  4.362794
