30
Energy: -106808.902536 eV PBE+vdW (tier 2 basis)
C    0.560983  -0.507166  1.140148
C    -0.101832  -0.549300  2.482261
O    0.081331  -1.563655  3.246076
H    0.372400  0.425609  0.599803
H    0.187907  -1.345662  0.535225
H    1.644371  -0.645136  1.253011
N    -0.862672  0.478514  2.825405
C    -1.778686  0.653480  3.948987
C    -2.854489  1.625617  3.356096
O    -2.539869  2.258941  2.344293
H    -1.066151  1.233714  2.135448
H    -2.203711  -0.317865  4.234017
C    -1.110090  1.327588  5.188451
C    0.046290  0.531636  5.681623
N    1.358638  0.830266  5.387810
C    0.100686  -0.705227  6.291468
C    2.148074  -0.202082  5.776772
N    1.409817  -1.171790  6.323409
H    -1.862455  1.424664  5.981721
H    -0.801287  2.347008  4.919041
H    1.689540  1.705538  4.987602
H    -0.717459  -1.255680  6.751374
H    3.229557  -0.199152  5.682917
N    -4.035693  1.756832  3.979476
C    -4.542893  1.071516  5.162018
H    -4.642480  2.453530  3.549545
H    -4.077247  0.086290  5.276046
H    -5.619947  0.910814  5.044921
H    -4.380618  1.659543  6.076638
Sr    0.913988  -3.024382  4.733396
