30
Energy: -106808.949073 eV PBE+vdW (tier 2 basis)
C    0.090548  0.713030  0.124973
C    0.157713  0.381924  1.583602
O    1.301096  0.257013  2.151607
H    0.554676  -0.104808  -0.444305
H    0.671772  1.621590  -0.079842
H    -0.933450  0.852622  -0.234988
N    -0.985320  0.225661  2.233551
C    -1.258152  -0.276296  3.576530
C    -2.676556  -0.924681  3.413809
O    -3.353117  -0.569895  2.445638
H    -1.888539  0.239933  1.713877
H    -0.496995  -1.016947  3.858893
C    -1.331002  0.852197  4.653516
C    -0.060653  1.624227  4.719988
N    0.122835  2.844258  4.107005
C    1.198441  1.262000  5.154142
C    1.439144  3.169769  4.147928
N    2.135165  2.215030  4.770812
H    -1.541642  0.389816  5.626901
H    -2.181671  1.509914  4.427324
H    -0.616717  3.431266  3.727150
H    1.469405  0.401341  5.762250
H    1.839996  4.100172  3.757922
N    -3.063754  -1.781435  4.368006
C    -4.380303  -2.422766  4.384517
H    -2.402550  -2.045078  5.091135
H    -4.981390  -1.996590  3.577247
H    -4.873865  -2.238050  5.345526
H    -4.279623  -3.503697  4.229308
Sr    3.252508  0.645478  3.191979
