30
Energy: -106809.816530 eV PBE+vdW (tier 2 basis)
C    2.064542  0.759215  1.055175
C    0.973046  0.305801  1.977591
O    1.258704  -0.199479  3.091374
H    1.706468  1.180462  0.110228
H    2.673340  1.511839  1.574588
H    2.725731  -0.091287  0.841410
N    -0.295530  0.477784  1.541598
C    -1.622453  0.208542  2.143904
C    -1.722948  0.618527  3.631848
O    -1.213576  -0.058692  4.563375
H    -0.358141  0.897768  0.618201
H    -2.284626  0.887260  1.589735
C    -2.183584  -1.219226  1.836973
C    -1.673097  -2.314713  2.709962
N    -2.400369  -2.857614  3.747974
C    -0.412608  -2.864217  2.844710
C    -1.576064  -3.645734  4.492486
N    -0.344547  -3.652628  3.984853
H    -1.957811  -1.435620  0.783287
H    -3.279304  -1.162640  1.905016
H    -3.392112  -2.713888  3.921505
H    0.436988  -2.762339  2.175531
H    -1.910351  -4.207929  5.359274
N    -2.429995  1.720079  3.875125
C    -2.672328  2.272483  5.208358
H    -2.804883  2.237021  3.084854
H    -3.647088  2.769760  5.212428
H    -1.896324  3.004199  5.468947
H    -2.670322  1.463331  5.943600
Sr    0.686238  -1.422064  4.977090
