30
Energy: -106806.712992 eV PBE+vdW (tier 2 basis)
C    -0.599589  0.209240  0.173133
C    -0.432736  0.053154  1.647736
O    0.720838  -0.120795  2.149605
H    -0.476143  -0.786076  -0.282738
H    -1.582277  0.597236  -0.115469
H    0.187675  0.855937  -0.230359
N    -1.533156  0.099793  2.414802
C    -1.708749  -0.340539  3.810271
C    -1.085131  0.622103  4.829447
O    0.174865  0.742646  4.938371
H    -2.401044  0.221174  1.900436
H    -2.796488  -0.321979  3.955882
C    -1.236596  -1.814919  4.070841
C    -1.614304  -2.758727  2.988773
N    -2.865810  -3.334059  2.840654
C    -0.908854  -3.173887  1.873415
C    -2.843566  -4.064930  1.682198
N    -1.676189  -3.977003  1.074449
H    -1.642596  -2.111690  5.049891
H    -0.143479  -1.840109  4.178738
H    -3.622494  -3.329995  3.517464
H    0.126313  -2.956671  1.623008
H    -3.698025  -4.641486  1.341746
N    -1.906460  1.272987  5.639183
C    -1.477928  2.171789  6.713813
H    -2.906471  1.163007  5.494442
H    -1.227908  3.161465  6.310573
H    -0.602390  1.753028  7.219360
H    -2.298046  2.273473  7.429797
Sr    2.137738  0.278832  3.854535
