30
Energy: -106808.605119 eV PBE+vdW (tier 2 basis)
C    -1.121408  -2.405522  -0.447318
C    -0.754059  -1.636015  0.777890
O    0.293479  -1.925293  1.435694
H    -2.071080  -2.090684  -0.891853
H    -1.168016  -3.476523  -0.211624
H    -0.320592  -2.277258  -1.190086
N    -1.545050  -0.623121  1.160455
C    -1.248750  0.340631  2.231730
C    -1.583891  -0.275286  3.611646
O    -0.756092  -1.099142  4.120228
H    -2.372734  -0.444066  0.595931
H    -0.157617  0.486311  2.241930
C    -1.899052  1.690599  1.902420
C    -1.481204  2.761785  2.859623
N    -1.876907  4.079752  2.736507
C    -0.667066  2.749402  3.978094
C    -1.295259  4.780720  3.758959
N    -0.560976  4.000396  4.525875
H    -3.000859  1.583498  1.854712
H    -1.590777  1.948643  0.874907
H    -2.467131  4.473056  2.010046
H    -0.145461  1.909431  4.430697
H    -1.444523  5.847737  3.890524
N    -2.708565  0.052519  4.212786
C    -3.138432  -0.411171  5.531581
H    -3.263391  0.790417  3.784734
H    -4.212602  -0.622539  5.503578
H    -2.944293  0.370135  6.278617
H    -2.589966  -1.317105  5.797444
Sr    1.122274  -2.264308  3.526267
