30
Energy: -106808.841793 eV PBE+vdW (tier 2 basis)
C    1.219677  0.633691  1.808143
C    -0.107892  1.252314  2.124894
O    -0.230710  2.213466  2.909269
H    1.637789  0.203418  2.728508
H    1.911140  1.424971  1.490671
H    1.176795  -0.144316  1.038573
N    -1.205537  0.728723  1.511063
C    -2.567426  1.238613  1.666486
C    -2.643243  2.769201  1.483008
O    -3.216016  3.511416  2.342514
H    -1.077186  -0.068164  0.894866
H    -3.116368  0.825681  0.804746
C    -3.329085  0.685883  2.907138
C    -3.207228  1.358279  4.239448
N    -2.053950  1.891117  4.767174
C    -4.183084  1.584017  5.211376
C    -2.349532  2.412548  5.999794
N    -3.642734  2.261092  6.292549
H    -3.022750  -0.366715  3.010193
H    -4.399689  0.654292  2.663938
H    -1.167756  1.988842  4.200922
H    -5.221098  1.259171  5.208600
H    -1.600527  2.859867  6.648954
N    -2.176082  3.310807  0.366524
C    -1.569747  2.673921  -0.804047
H    -2.267507  4.325299  0.329412
H    -0.491782  2.527991  -0.662597
H    -1.726074  3.332534  -1.663749
H    -2.047668  1.713257  -1.022648
Sr    -3.866727  4.167789  4.440280
