30
Energy: -106809.914348 eV PBE+vdW (tier 2 basis)
C    -0.312061  1.944569  -0.987270
C    -1.042103  1.191554  0.085090
O    -0.509209  0.191666  0.627633
H    0.025854  1.236748  -1.754940
H    -0.903211  2.735807  -1.459954
H    0.591071  2.393080  -0.549956
N    -2.270380  1.652617  0.415039
C    -3.267091  1.213535  1.413286
C    -2.718170  1.178996  2.857096
O    -1.759549  0.446072  3.215375
H    -2.555836  2.475364  -0.108129
H    -4.013875  2.017880  1.389247
C    -4.080747  -0.067354  1.013175
C    -3.293840  -1.325926  0.924892
N    -2.725010  -1.812664  -0.233002
C    -2.792300  -2.137687  1.924019
C    -1.871106  -2.820843  0.093514
N    -1.866600  -3.031935  1.408293
H    -4.581527  0.152932  0.060211
H    -4.880116  -0.185456  1.758487
H    -2.924537  -1.493989  -1.177556
H    -3.077360  -2.150783  2.973659
H    -1.296779  -3.376756  -0.641013
N    -3.351531  1.956314  3.732321
C    -3.008638  2.021305  5.154921
H    -4.103064  2.554628  3.403669
H    -3.039852  1.020028  5.599517
H    -2.004934  2.443072  5.288263
H    -3.737983  2.661737  5.657281
Sr    -0.241516  -1.207508  2.460829
