30
Energy: -106808.584653 eV PBE+vdW (tier 2 basis)
C    0.164434  -0.618120  -0.274327
C    0.069015  -0.290651  1.178949
O    1.112373  -0.029218  1.854747
H    0.587995  0.251110  -0.798264
H    -0.798940  -0.871266  -0.728684
H    0.865039  -1.450250  -0.421044
N    -1.142925  -0.263376  1.752024
C    -1.438161  0.202701  3.115855
C    -1.120063  -0.911727  4.141750
O    0.097471  -1.104246  4.463047
H    -1.939542  -0.487686  1.159687
H    -0.725016  1.010311  3.341929
C    -2.851228  0.798620  3.160039
C    -3.139939  1.457017  4.472114
N    -4.323294  2.117462  4.740911
C    -2.395336  1.599093  5.629334
C    -4.236186  2.615118  6.013643
N    -3.082546  2.313843  6.574409
H    -3.602026  0.022756  2.911180
H    -2.912124  1.531736  2.337700
H    -5.108406  2.241524  4.109251
H    -1.396841  1.226815  5.845863
H    -5.039923  3.182813  6.471746
N    -2.101304  -1.633608  4.641397
C    -1.960326  -2.686495  5.646722
H    -3.049973  -1.348658  4.408139
H    -0.924847  -3.032000  5.671683
H    -2.623021  -3.518990  5.387716
H    -2.242437  -2.294823  6.633219
Sr    2.192077  -0.451807  3.811267
