30
Energy: -106808.222662 eV PBE+vdW (tier 2 basis)
C    -0.878572  -0.356768  -0.153874
C    -0.510851  -0.101083  1.269953
O    0.661938  -0.353313  1.684957
H    -0.070615  -0.030532  -0.818163
H    -1.818997  0.117620  -0.453469
H    -0.988731  -1.445812  -0.277687
N    -1.458115  0.395799  2.082304
C    -1.503721  0.428713  3.553969
C    -0.594073  1.496484  4.165800
O    0.672272  1.410529  4.059335
H    -2.360264  0.533317  1.635764
H    -2.541989  0.695845  3.776560
C    -1.236429  -0.966441  4.229467
C    -1.918105  -2.092198  3.543621
N    -3.251811  -2.429454  3.707337
C    -1.464651  -2.946914  2.554084
C    -3.520888  -3.458490  2.844244
N    -2.460522  -3.783167  2.129561
H    -1.535701  -0.872889  5.284649
H    -0.157408  -1.171432  4.238297
H    -3.887101  -2.078340  4.416955
H    -0.458919  -3.019642  2.148560
H    -4.496032  -3.932547  2.789912
N    -1.124686  2.481200  4.877060
C    -2.538645  2.784007  5.131597
H    -0.439889  3.102558  5.308548
H    -2.987288  2.049225  5.811737
H    -3.107736  2.835026  4.196474
H    -2.589150  3.766300  5.609427
Sr    2.368679  0.308400  3.002020
