30
Energy: -106809.837562 eV PBE+vdW (tier 2 basis)
C    0.169399  0.409677  0.528625
C    -0.099037  -0.200560  1.871569
O    0.844208  -0.386196  2.679707
H    0.902355  -0.211127  -0.003981
H    0.634554  1.393862  0.676347
H    -0.721773  0.526551  -0.096503
N    -1.384716  -0.521010  2.142211
C    -2.059981  -1.093071  3.330793
C    -1.594528  -0.468217  4.666624
O    -0.492758  -0.751266  5.206789
H    -2.028222  -0.309464  1.384568
H    -3.104158  -0.783225  3.190281
C    -2.117627  -2.656769  3.343259
C    -0.895996  -3.346464  3.847812
N    -0.797523  -3.883251  5.114145
C    0.383170  -3.434448  3.333326
C    0.502822  -4.214248  5.347441
N    1.259599  -3.928747  4.289240
H    -2.339758  -2.979900  2.316540
H    -2.989701  -2.947343  3.946107
H    -1.567605  -4.030530  5.761942
H    0.717317  -3.199154  2.326797
H    0.844805  -4.677005  6.268329
N    -2.459868  0.363244  5.242830
C    -2.230006  1.041921  6.518892
H    -3.326959  0.571825  4.756220
H    -1.722701  2.002469  6.359328
H    -1.613632  0.409021  7.163412
H    -3.195932  1.224056  6.999337
Sr    1.727253  -1.337634  4.602013
