30
Energy: -106807.342796 eV PBE+vdW (tier 2 basis)
C    -0.495500  1.515025  -0.544828
C    -0.493668  0.500571  0.548957
O    0.379498  -0.440824  0.545522
H    0.431938  2.101607  -0.457735
H    -1.339637  2.208621  -0.493997
H    -0.464923  1.025098  -1.525239
N    -1.355051  0.560336  1.556999
C    -2.727728  1.053675  1.618651
C    -3.198137  0.543387  3.017250
O    -2.648411  -0.467243  3.479080
H    -1.251473  -0.143133  2.312853
H    -2.766686  2.149197  1.565396
C    -3.662962  0.447685  0.492442
C    -3.136860  -0.822933  -0.095427
N    -2.943977  -1.005588  -1.452479
C    -2.532660  -1.919194  0.483345
C    -2.228824  -2.136259  -1.655464
N    -1.934031  -2.713350  -0.485824
H    -3.783029  1.188967  -0.308346
H    -4.663535  0.300197  0.922529
H    -3.323928  -0.416291  -2.189987
H    -2.504352  -2.162586  1.543609
H    -1.971452  -2.513921  -2.639759
N    -4.202203  1.213746  3.589586
C    -4.807629  0.836684  4.867552
H    -4.526937  2.070109  3.150428
H    -4.381350  -0.117672  5.186366
H    -5.892798  0.735487  4.751489
H    -4.594856  1.599812  5.625907
Sr    0.416164  -2.706211  0.373123
