30
Energy: -106809.816805 eV PBE+vdW (tier 2 basis)
C    0.240145  0.243919  0.481065
C    -0.050793  -0.344836  1.828886
O    0.889210  -0.600324  2.621587
H    0.776678  1.192420  0.620065
H    -0.649845  0.424006  -0.130590
H    0.918567  -0.427976  -0.061629
N    -1.352180  -0.568585  2.120964
C    -2.048798  -1.089118  3.320820
C    -1.514501  -0.503907  4.648824
O    -0.429138  -0.872616  5.170274
H    -1.990384  -0.309446  1.373691
H    -3.068657  -0.700615  3.198197
C    -2.224805  -2.643799  3.333830
C    -1.048919  -3.425581  3.812324
N    -0.967197  -3.974638  5.074598
C    0.209899  -3.607558  3.272760
C    0.308533  -4.404463  5.281319
N    1.064396  -4.171693  4.209649
H    -2.492527  -2.947053  2.311922
H    -3.103577  -2.868425  3.954894
H    -1.733738  -4.066368  5.736661
H    0.541818  -3.393243  2.260846
H    0.631970  -4.896661  6.193604
N    -2.303413  0.391339  5.239117
C    -2.002032  1.049223  6.511116
H    -3.159770  0.666370  4.766648
H    -1.443139  1.978973  6.341512
H    -1.407958  0.377783  7.137186
H    -2.943030  1.285824  7.016914
Sr    1.729180  -1.623952  4.525944
