30
Energy: -106808.247026 eV PBE+vdW (tier 2 basis)
C    0.057318  -0.160713  0.182863
C    -0.007611  -0.043701  1.676298
O    1.075598  -0.129282  2.361845
H    0.449321  -1.154553  -0.075346
H    0.755556  0.582456  -0.225219
H    -0.916361  -0.031816  -0.299813
N    -1.199510  0.144913  2.216828
C    -1.676140  0.095774  3.598365
C    -3.165735  -0.356767  3.412540
O    -3.662004  -0.221564  2.291432
H    -2.046697  0.130293  1.606370
H    -1.092487  -0.641006  4.166512
C    -1.647117  1.486011  4.310464
C    -0.263630  1.862390  4.709724
N    0.321465  1.469564  5.898134
C    0.769318  2.406154  3.980889
C    1.649627  1.736841  5.849921
N    1.967679  2.294284  4.676441
H    -2.309001  1.456109  5.186319
H    -2.066321  2.238542  3.630057
H    -0.169983  1.100354  6.708731
H    0.709149  2.883108  3.006109
H    2.328612  1.561031  6.678501
N    -3.840646  -0.835397  4.470900
C    -3.375619  -1.082759  5.828982
H    -4.814880  -1.050548  4.264339
H    -3.572896  -0.229106  6.494349
H    -2.305249  -1.319254  5.841608
H    -3.903155  -1.954246  6.231061
Sr    3.037400  0.733887  3.057795
