30
Energy: -106808.373992 eV PBE+vdW (tier 2 basis)
C    -0.700247  -0.436075  -0.469081
C    -0.654562  -0.568793  1.015548
O    0.166999  -1.364385  1.573558
H    -0.737691  -1.428339  -0.934584
H    0.236712  0.039459  -0.797811
H    -1.540715  0.168979  -0.823964
N    -1.476191  0.189138  1.751472
C    -1.389567  0.385896  3.208703
C    -2.024131  -0.804421  3.960581
O    -1.332440  -1.859393  4.124079
H    -2.034812  0.875501  1.246912
H    -0.322370  0.354812  3.481310
C    -1.933588  1.773290  3.578153
C    -1.133400  2.857522  2.924699
N    -1.534563  4.179814  2.899496
C    0.091569  2.855476  2.279834
C    -0.555567  4.893639  2.262153
N    0.435471  4.117083  1.873396
H    -1.908278  1.865299  4.677056
H    -2.996917  1.855251  3.279932
H    -2.380307  4.568420  3.304688
H    0.756941  2.017792  2.087271
H    -0.623611  5.966320  2.110827
N    -3.258705  -0.697816  4.415330
C    -3.993680  -1.729184  5.149273
H    -3.742405  0.181908  4.249409
H    -4.783272  -2.150080  4.514004
H    -4.451068  -1.279225  6.037339
H    -3.303356  -2.519195  5.452146
Sr    0.531745  -2.860695  3.228270
