30
Energy: -106808.291983 eV PBE+vdW (tier 2 basis)
C    -0.462179  0.997067  0.806123
C    -0.086017  -0.361911  1.299459
O    1.116114  -0.780580  1.142935
H    0.216410  1.725598  1.272067
H    -1.491655  1.281849  1.038606
H    -0.305807  1.066652  -0.278642
N    -0.968504  -1.138140  1.920283
C    -2.426014  -1.157528  1.768194
C    -2.902088  -2.269752  2.730721
O    -2.172922  -3.268812  2.858508
H    -0.636653  -2.039647  2.292345
H    -2.860867  -0.182775  2.011715
C    -2.827065  -1.569697  0.289944
C    -1.777197  -2.442682  -0.315533
N    -1.470490  -3.710427  0.133831
C    -0.739565  -2.112819  -1.161942
C    -0.284723  -4.087914  -0.387601
N    0.208168  -3.128657  -1.184956
H    -2.921056  -0.667108  -0.326033
H    -3.815182  -2.049111  0.305888
H    -1.968004  -4.195467  0.884161
H    -0.636971  -1.217039  -1.768069
H    0.166597  -5.057898  -0.202331
N    -4.096695  -2.137860  3.317903
C    -5.008907  -0.992588  3.273169
H    -4.359744  -2.929496  3.902430
H    -4.574059  -0.108587  3.757822
H    -5.915686  -1.262478  3.821433
H    -5.306247  -0.748081  2.245471
Sr    2.286009  -2.031114  -0.349901
