30
Energy: -106808.956849 eV PBE+vdW (tier 2 basis)
C    -0.660426  0.516256  0.482920
C    -0.497536  0.618175  1.963505
O    0.496839  1.233374  2.466122
H    -0.759400  1.531766  0.072859
H    -1.531332  -0.075215  0.182609
H    0.245048  0.081438  0.040109
N    -1.425016  0.059085  2.747171
C    -1.530057  0.194937  4.208439
C    -0.522123  -0.718628  4.950298
O    0.691149  -0.332000  5.031929
H    -2.196074  -0.441707  2.301159
H    -1.198896  1.214105  4.459547
C    -3.003969  0.076140  4.633286
C    -3.708923  -1.172098  4.180893
N    -5.055963  -1.363852  4.415515
C    -3.324102  -2.309514  3.476352
C    -5.410496  -2.566843  3.866456
N    -4.384485  -3.159278  3.293574
H    -3.523481  0.963103  4.234852
H    -3.043403  0.181460  5.729868
H    -5.678356  -0.729638  4.907816
H    -2.344575  -2.575927  3.085015
H    -6.423294  -2.954379  3.918874
N    -0.948347  -1.837567  5.497421
C    -0.134632  -2.786138  6.255513
H    -1.929389  -2.090375  5.320352
H    0.856669  -2.363119  6.430051
H    -0.045812  -3.726527  5.696864
H    -0.623956  -2.990842  7.214765
Sr    2.131336  1.133807  4.033866
