30
Energy: -106807.502865 eV PBE+vdW (tier 2 basis)
C    -1.385020  1.386806  -1.050428
C    -0.992738  0.747463  0.239080
O    0.128150  0.127648  0.329621
H    -2.399331  1.795916  -1.042879
H    -1.265723  0.682407  -1.882128
H    -0.685763  2.216034  -1.238294
N    -1.759065  0.829005  1.319680
C    -3.209359  0.911841  1.464546
C    -3.399451  0.689379  2.998210
O    -2.531918  0.039768  3.600102
H    -1.389989  0.414863  2.196756
H    -3.591031  1.894278  1.158535
C    -3.984823  -0.215889  0.665889
C    -3.129868  -1.394035  0.322668
N    -2.983488  -1.872968  -0.966267
C    -2.174821  -2.075129  1.047784
C    -1.966494  -2.764957  -1.000308
N    -1.426204  -2.897011  0.215695
H    -4.387290  0.215502  -0.259899
H    -4.855779  -0.519771  1.263334
H    -3.578507  -1.637398  -1.757470
H    -1.998801  -2.005254  2.119379
H    -1.672508  -3.304662  -1.894733
N    -4.519126  1.179746  3.537594
C    -4.885693  1.011463  4.944398
H    -5.124829  1.755081  2.959848
H    -4.147587  0.361415  5.420604
H    -5.880500  0.557576  5.020857
H    -4.892412  1.984219  5.450613
Sr    0.857965  -1.993337  0.692211
