30
Energy: -106808.744327 eV PBE+vdW (tier 2 basis)
C    -1.530780  -1.867721  0.092450
C    -1.525174  -0.871559  1.212843
O    -2.336652  -0.988246  2.164451
H    -2.530947  -1.888296  -0.360587
H    -1.351229  -2.867475  0.510852
H    -0.788324  -1.668767  -0.687159
N    -0.612672  0.123045  1.131031
C    -0.261416  1.253125  2.022575
C    -0.199909  0.864730  3.517821
O    -1.228062  0.693960  4.224696
H    -0.031471  0.079532  0.298488
H    0.767640  1.491767  1.721757
C    -1.064279  2.564998  1.735906
C    -2.421301  2.639133  2.348775
N    -2.701848  3.372055  3.482520
C    -3.572705  1.913281  2.111143
C    -3.947422  3.038044  3.920457
N    -4.500578  2.127666  3.120770
H    -1.134177  2.668682  0.643891
H    -0.448593  3.408198  2.079960
H    -2.092986  4.063415  3.913371
H    -3.797917  1.275013  1.261400
H    -4.416158  3.491890  4.788537
N    1.021879  0.763204  4.035892
C    1.294846  0.429021  5.434598
H    1.821301  0.893487  3.422906
H    2.296031  0.786904  5.690676
H    1.252464  -0.657143  5.588405
H    0.556825  0.914446  6.080305
Sr    -3.444389  -0.132389  4.014272
