30
Energy: -106808.762411 eV PBE+vdW (tier 2 basis)
C    2.159176  0.342078  1.881698
C    0.885707  -0.127284  2.518307
O    0.902314  -0.616447  3.675004
H    2.883925  -0.482563  1.884187
H    2.038624  0.711458  0.858187
H    2.586704  1.142508  2.501415
N    -0.242764  0.015998  1.787071
C    -1.670893  -0.273451  2.055748
C    -2.136605  0.156469  3.466393
O    -1.851851  -0.491752  4.507873
H    -0.087951  0.425802  0.869968
H    -2.190914  0.381905  1.344196
C    -2.116137  -1.717950  1.650457
C    -1.822343  -2.787671  2.646382
N    -2.775092  -3.321791  3.487927
C    -0.626947  -3.313305  3.097701
C    -2.149031  -4.081010  4.429450
N    -0.830846  -4.077465  4.238238
H    -1.631887  -1.948000  0.690998
H    -3.195138  -1.681930  1.443466
H    -3.780895  -3.191898  3.411117
H    0.359385  -3.210085  2.654328
H    -2.678941  -4.631338  5.201163
N    -2.906635  1.241669  3.509300
C    -3.476598  1.804207  4.733947
H    -3.091770  1.737441  2.641971
H    -2.795866  2.546907  5.170444
H    -3.650722  1.002362  5.456759
H    -4.425904  2.290510  4.489732
Sr    -0.090102  -1.812370  5.396572
