30
Energy: -106808.927040 eV PBE+vdW (tier 2 basis)
C    -3.680661  -0.404359  1.038570
C    -2.743890  -0.669384  2.177196
O    -3.141373  -0.937504  3.323363
H    -3.184406  -0.312501  0.066584
H    -4.231051  0.524051  1.246362
H    -4.425969  -1.208511  0.996131
N    -1.400548  -0.635075  1.904659
C    -0.363013  -0.786704  2.921516
C    -0.471440  -2.151792  3.639703
O    -0.167283  -2.286655  4.864822
H    -1.106814  -0.332160  0.980468
H    0.575190  -0.862081  2.349502
C    -0.161841  0.460970  3.845188
C    -0.790767  0.502356  5.200030
N    -2.086875  0.143274  5.477315
C    -0.249033  0.877195  6.429152
C    -2.293011  0.287856  6.821946
N    -1.187811  0.716389  7.438077
H    -0.496827  1.332774  3.263103
H    0.915669  0.607294  3.992968
H    -2.719208  -0.241958  4.728688
H    0.733889  1.298077  6.630303
H    -3.252592  0.105321  7.299330
N    -0.803996  -3.191982  2.895664
C    -0.893666  -4.569044  3.377601
H    -1.062086  -3.005143  1.929642
H    -0.029701  -4.803151  4.008018
H    -0.896205  -5.239570  2.514043
H    -1.820532  -4.721275  3.946531
Sr    -0.306148  -1.734707  7.088525
