30
Energy: -106808.842416 eV PBE+vdW (tier 2 basis)
C    1.197201  0.564871  1.902584
C    -0.121779  1.212879  2.195587
O    -0.235064  2.186615  2.965753
H    1.148566  -0.220998  1.141386
H    1.595268  0.137040  2.832945
H    1.908006  1.338774  1.585056
N    -1.222195  0.701976  1.576049
C    -2.575770  1.239746  1.708462
C    -2.620030  2.768863  1.503706
O    -3.187968  3.533508  2.346591
H    -1.102024  -0.105395  0.971968
H    -3.122430  0.825700  0.845811
C    -3.362390  0.718548  2.947140
C    -3.242738  1.406157  4.271866
N    -2.085441  1.923728  4.805957
C    -4.225058  1.663556  5.229306
C    -2.384909  2.467164  6.028086
N    -3.684059  2.344511  6.307712
H    -3.077992  -0.338351  3.067602
H    -4.430523  0.704571  2.691728
H    -1.191128  1.996971  4.248765
H    -5.269075  1.358731  5.218692
H    -1.634822  2.908626  6.680004
N    -2.129966  3.286203  0.385534
C    -1.522804  2.622051  -0.769358
H    -2.201340  4.301668  0.333854
H    -0.449556  2.457311  -0.613426
H    -1.656525  3.271891  -1.639480
H    -2.016748  1.667891  -0.980735
Sr    -3.849701  4.230191  4.427855
