30
Energy: -106808.906525 eV PBE+vdW (tier 2 basis)
C    -0.055772  -0.152606  -0.186021
C    -0.216469  -0.373375  1.281575
O    0.460449  -1.272463  1.878540
H    -0.660237  0.677788  -0.564758
H    -0.324573  -1.070361  -0.726787
H    1.003900  0.044795  -0.399074
N    -1.083737  0.398072  1.943301
C    -1.231804  0.517469  3.399917
C    -1.901087  -0.730521  4.015405
O    -1.184050  -1.742652  4.301639
H    -1.441100  1.222737  1.436866
H    -0.224873  0.547431  3.847459
C    -1.952647  1.871775  3.704681
C    -1.442130  2.992013  2.868270
N    -0.284288  3.708173  3.109429
C    -1.886075  3.448532  1.635454
C    -0.104302  4.558992  2.048553
N    -1.046611  4.412349  1.140016
H    -1.872422  2.070015  4.782305
H    -3.026752  1.790853  3.476035
H    0.262259  3.708619  3.964746
H    -2.800532  3.171990  1.113423
H    0.719955  5.264341  2.003388
N    -3.199621  -0.718657  4.254917
C    -3.960851  -1.818741  4.849684
H    -3.716576  0.121775  4.009977
H    -4.408484  -2.442199  4.064673
H    -4.759499  -1.398253  5.468665
H    -3.298371  -2.427139  5.470500
Sr    0.668296  -2.820752  3.500222
