30
Energy: -106809.007577 eV PBE+vdW (tier 2 basis)
C    -0.989906  -1.023713  3.655530
C    -0.344084  0.043168  2.840924
O    0.895865  0.054211  2.620760
H    -0.611545  -2.014010  3.378895
H    -2.083788  -1.000712  3.624366
H    -0.688129  -0.849589  4.701766
N    -1.099717  1.076134  2.350286
C    -2.314108  0.894099  1.556366
C    -2.186769  -0.414169  0.730813
O    -1.055161  -0.798832  0.320876
H    -0.503693  1.829158  2.011396
H    -3.206928  0.858153  2.197561
C    -2.458561  2.129169  0.593238
C    -1.365314  2.131109  -0.426800
N    -1.494228  1.578290  -1.683940
C    0.000357  2.307295  -0.270923
C    -0.254258  1.387679  -2.209582
N    0.687831  1.794435  -1.361736
H    -2.432137  3.038742  1.209512
H    -3.449513  2.101756  0.122726
H    -2.370584  1.381363  -2.161133
H    0.527024  2.849280  0.513099
H    -0.083632  0.981240  -3.201885
N    -3.313159  -1.065220  0.469432
C    -3.422838  -2.298508  -0.311554
H    -4.169406  -0.707668  0.888066
H    -4.200865  -2.181780  -1.074490
H    -3.693782  -3.134036  0.345916
H    -2.463192  -2.507487  -0.789152
Sr    1.296220  -0.210555  0.270668
