30
Energy: -106808.906893 eV PBE+vdW (tier 2 basis)
C    -0.792427  -0.181085  0.268921
C    -0.500157  0.049475  1.714406
O    0.631783  0.496022  2.084511
H    -1.777785  -0.623669  0.090877
H    -0.019943  -0.829265  -0.164686
H    -0.732670  0.781887  -0.258595
N    -1.457326  -0.207779  2.615250
C    -1.354785  0.060871  4.055029
C    -0.467477  -1.014467  4.722357
O    0.783164  -0.777521  4.828193
H    -2.327210  -0.632507  2.292198
H    -0.791390  0.998342  4.168322
C    -2.762276  0.296904  4.674324
C    -3.778360  -0.771113  4.437187
N    -4.556836  -0.852671  3.285601
C    -4.147013  -1.880587  5.179489
C    -5.351367  -1.969556  3.411587
N    -5.106667  -2.615938  4.528888
H    -3.118361  1.265081  4.291395
H    -2.627335  0.433888  5.755861
H    -4.731179  -0.094037  2.631583
H    -3.820132  -2.149425  6.182365
H    -6.084503  -2.248045  2.660386
N    -1.016214  -2.139868  5.124460
C    -0.314572  -3.251663  5.764199
H    -2.034279  -2.231765  4.984522
H    -0.154420  -4.063139  5.042312
H    -0.931131  -3.630700  6.586297
H    0.646285  -2.908037  6.154578
Sr    2.334580  0.358367  3.594183
