30
Energy: -106808.995019 eV PBE+vdW (tier 2 basis)
C    0.251635  2.151219  0.985418
C    -0.372324  0.836947  0.669092
O    0.293075  -0.234016  0.656889
H    0.932279  2.067634  1.839464
H    0.866254  2.429672  0.113218
H    -0.473508  2.955729  1.143555
N    -1.697216  0.772300  0.324972
C    -2.787328  1.347073  1.114243
C    -2.414603  1.282769  2.620750
O    -1.612641  0.401379  3.042121
H    -1.920525  -0.134778  -0.082398
H    -2.979088  2.391901  0.828861
C    -4.097827  0.518796  0.824287
C    -3.817306  -0.949497  0.905246
N    -3.520391  -1.734724  -0.200650
C    -3.401438  -1.710742  1.979201
C    -2.912094  -2.877002  0.225272
N    -2.788488  -2.878485  1.551734
H    -4.470560  0.799726  -0.169817
H    -4.870132  0.815391  1.545053
H    -3.798312  -1.541112  -1.161578
H    -3.533916  -1.492211  3.035227
H    -2.595183  -3.669100  -0.446346
N    -2.991752  2.176266  3.412614
C    -2.820981  2.267379  4.864099
H    -3.597809  2.868916  2.977726
H    -2.506916  3.283234  5.129949
H    -3.769006  2.043038  5.368213
H    -2.057274  1.553724  5.180270
Sr    -0.547625  -1.669427  2.381313
