20
Energy: -166542.288844 eV PBE+vdW (tier 2 basis)
C    0.539061  1.877153  0.989692
C    -0.514870  1.479305  1.947704
O    -0.302438  1.579161  3.205421
H    1.508275  1.437440  1.256678
H    0.273124  1.679169  -0.053281
H    0.659886  2.971725  1.098290
N    -1.747308  1.041867  1.538745
C    -2.036132  0.014298  0.556851
C    -2.226374  -1.351701  1.248974
O    -2.032107  -1.541732  2.511601
H    -2.523970  1.315111  2.144951
H    -2.938630  0.271885  -0.015447
H    -1.211279  -0.064766  -0.165658
N    -2.611847  -2.374436  0.519514
C    -2.916520  -2.378403  -0.921195
H    -2.724124  -3.255498  1.025307
H    -3.089310  -3.415242  -1.221378
H    -2.073733  -1.987016  -1.503247
H    -3.824955  -1.798460  -1.129064
Cd    -1.296285  -0.182730  3.971660
