20
Energy: -166542.208964 eV PBE+vdW (tier 2 basis)
C    -2.435623  0.849976  0.550780
C    -0.978175  0.818629  0.926751
O    -0.189105  1.610771  0.321630
H    -3.093589  0.713940  1.416711
H    -2.620049  0.037103  -0.170306
H    -2.658941  1.798038  0.052774
N    -0.458400  -0.001834  1.869165
C    -1.167477  -1.121955  2.457219
C    -1.658718  -0.837982  3.873271
O    -1.554038  0.371038  4.358163
H    -1.113179  0.942771  3.690556
H    -2.036808  -1.412146  1.843236
H    -0.509625  -2.003493  2.484369
N    -2.196740  -1.767302  4.609442
C    -2.734193  -1.609016  5.972140
H    -2.263047  -2.700952  4.201853
H    -3.796335  -1.881417  5.963785
H    -2.614241  -0.575401  6.302210
H    -2.191573  -2.285294  6.643353
Cd    1.594856  0.775530  1.296895
