20
Energy: -166542.900944 eV PBE+vdW (tier 2 basis)
C    0.205994  0.315722  0.551462
C    0.494931  -0.855860  1.426098
O    1.724064  -1.181019  1.580279
H    0.560068  0.081086  -0.464658
H    -0.859805  0.564834  0.505727
H    0.783157  1.184060  0.895238
N    -0.534744  -1.516003  1.982229
C    -0.531014  -2.855579  2.582889
C    -0.256824  -2.896331  4.089086
O    0.950019  -2.779413  4.542228
H    -1.453194  -1.123815  1.785349
H    -1.493310  -3.320546  2.345135
H    0.227535  -3.482564  2.087250
N    -1.215236  -3.089722  4.967233
C    -2.660148  -3.274266  4.789206
H    -0.884895  -3.134915  5.936420
H    -3.184263  -2.568909  5.444972
H    -2.931667  -4.298228  5.075022
H    -2.964731  -3.089951  3.756584
Cd    2.503613  -2.246873  3.223913
