20
Energy: -166541.622713 eV PBE+vdW (tier 2 basis)
C    -1.305806  -0.352351  -0.407199
C    -0.709251  0.457896  0.702262
O    0.074818  1.413249  0.320001
H    -2.403664  -0.290235  -0.363898
H    -1.010532  -1.406776  -0.297491
H    -0.964143  0.016182  -1.377878
N    -0.976786  0.199307  1.965128
C    -1.841047  -0.846783  2.499410
C    -1.769868  -0.666911  4.028166
O    -1.073629  0.229334  4.504126
H    -0.575088  0.746972  2.748284
H    -2.876964  -0.730915  2.145371
H    -1.483894  -1.847680  2.212084
N    -2.499754  -1.531657  4.784334
C    -2.543625  -1.500930  6.227354
H    -3.051628  -2.247301  4.309501
H    -1.909926  -0.693849  6.601055
H    -2.211513  -2.473875  6.630023
H    -3.585963  -1.363921  6.564909
Cd    1.250262  2.933244  1.215458
