20
Energy: -166541.815736 eV PBE+vdW (tier 2 basis)
C    0.387989  -0.363935  0.269154
C    -0.019018  0.421765  1.470831
O    0.815728  1.129860  2.169653
H    0.826382  0.310405  -0.481425
H    -0.451153  -0.892306  -0.195572
H    1.140563  -1.114705  0.557651
N    -1.276910  0.431475  1.857091
C    -1.824146  1.159073  2.995657
C    -3.324676  0.826694  2.998825
O    -3.770695  0.082338  2.122636
H    -2.004496  -0.081593  1.332086
H    -1.359149  0.824828  3.936699
H    -1.655869  2.241484  2.891366
N    -4.094341  1.366486  3.975305
C    -5.521210  1.144040  4.075164
H    -3.668183  2.032319  4.619993
H    -5.804430  1.097471  5.135049
H    -5.788298  0.226687  3.540338
H    -6.077322  1.985363  3.620666
Cd    2.939697  1.174897  1.949192
