20
Energy: -166542.208458 eV PBE+vdW (tier 2 basis)
C    0.377257  -0.597047  0.565993
C    -0.621922  0.510701  0.768569
O    -0.460393  1.586808  0.111137
H    1.295383  -0.180814  0.141083
H    -0.042829  -1.306575  -0.165329
H    0.600537  -1.133664  1.495214
N    -1.680866  0.429259  1.607299
C    -2.141016  -0.800132  2.223800
C    -1.767655  -0.901883  3.699382
O    -0.970217  -0.008380  4.222395
H    -0.744369  0.656214  3.533753
H    -3.235085  -0.873279  2.132863
H    -1.734602  -1.684540  1.704563
N    -2.210434  -1.867976  4.451499
C    -1.897381  -2.089479  5.874076
H    -2.831607  -2.549146  4.012890
H    -2.834068  -2.081453  6.443999
H    -1.230484  -1.304399  6.235455
H    -1.417381  -3.069824  5.978991
Cd    -2.344872  2.456611  0.834363
