20
Energy: -166543.001083 eV PBE+vdW (tier 2 basis)
C    -1.251290  2.135180  1.168218
C    -0.938622  0.905358  0.387231
O    -0.225160  1.048212  -0.667821
H    -0.321952  2.668296  1.407361
H    -1.816404  1.929653  2.083924
H    -1.846028  2.805501  0.527629
N    -1.430941  -0.271380  0.807963
C    -1.567638  -1.521765  0.048594
C    -0.389033  -2.496126  0.158101
O    0.730262  -2.270254  -0.442168
H    -1.953286  -0.230568  1.680883
H    -2.494015  -2.001899  0.387570
H    -1.727579  -1.290964  -1.017756
N    -0.546923  -3.601122  0.852083
C    0.453638  -4.661291  1.027153
H    -1.446941  -3.747642  1.307575
H    0.005522  -5.618547  0.735937
H    0.747059  -4.708042  2.083429
H    1.326373  -4.449829  0.406443
Cd    0.975958  -0.465772  -1.505349
