20
Energy: -166541.718476 eV PBE+vdW (tier 2 basis)
C    0.427551  0.063177  0.205361
C    -0.036558  0.451570  1.569898
O    0.764974  0.552217  2.587944
H    1.173360  0.790201  -0.151166
H    -0.387358  0.030167  -0.525533
H    0.889561  -0.935287  0.243362
N    -1.308012  0.709502  1.782881
C    -1.913017  1.099324  3.052458
C    -3.406453  1.272696  2.735572
O    -3.786473  1.069778  1.575715
H    -2.005323  0.649552  1.021091
H    -1.760329  0.321276  3.815596
H    -1.477700  2.039909  3.422489
N    -4.275084  1.637933  3.706019
C    -4.021306  1.911304  5.103157
H    -5.241046  1.721296  3.376378
H    -2.962502  1.805783  5.351390
H    -4.614315  1.223838  5.729006
H    -4.354125  2.933954  5.345764
Cd    2.871154  0.205811  2.572615
