25
Energy: -238664.143243 eV PBE+vdW (tier 2 basis)
N    -1.406009  1.149347  3.081967
C    -0.803452  0.125585  2.238759
C    0.713882  0.226667  2.372853
O    1.203964  0.607931  3.498198
H    -4.210014  -2.315128  -1.835480
H    -0.988702  1.153121  4.012357
H    -1.013365  -0.917319  2.581484
C    -1.297505  0.279848  0.781399
C    -1.435067  -1.018473  -0.030777
C    -2.636797  -1.876050  0.398066
C    -2.860252  -3.143444  -0.415804
N    -3.316546  -2.827237  -1.839195
H    -0.633194  0.971369  0.248562
H    -2.274078  0.783811  0.826595
H    -0.508696  -1.610373  0.033345
H    -1.532527  -0.722807  -1.090395
H    -3.560093  -1.271864  0.398538
H    -2.513086  -2.211891  1.438815
H    -3.646791  -3.775704  0.012602
H    -1.947092  -3.742993  -0.520442
H    -2.627288  -2.240717  -2.329656
H    -3.451232  -3.683970  -2.393654
O    1.491381  -0.063359  1.395012
H    -2.408151  0.997515  3.189154
Ba    3.476711  0.774132  2.646701
