25
Energy: -238662.860949 eV PBE+vdW (tier 2 basis)
N    0.090381  0.343067  0.095810
C    0.003948  0.027730  1.557402
C    1.409953  0.108538  2.151910
O    2.342763  0.667107  1.537270
H    -0.812518  0.735462  -0.189420
H    0.133171  -0.558403  -0.397864
H    -0.543674  0.859562  2.036492
C    -0.731745  -1.289508  1.870956
C    -0.065468  -2.546524  1.290335
C    -0.671412  -3.854889  1.819631
C    -2.129563  -4.106148  1.407771
N    -2.592190  -5.352480  1.991555
H    -1.765775  -1.184606  1.512294
H    -0.843065  -1.390413  2.965976
H    1.013179  -2.541877  1.525641
H    -0.144394  -2.545553  0.187468
H    -0.605399  -3.883292  2.918453
H    -0.052067  -4.689215  1.458128
H    -2.202234  -4.059010  0.299364
H    -2.779791  -3.306485  1.796160
H    -3.603773  -5.454590  1.946280
H    -2.171448  -6.172438  1.556277
O    1.655338  -0.349382  3.350310
H    0.881950  -0.800669  3.748208
Ba    2.411310  1.785879  -0.613227
