25
Energy: -238664.325143 eV PBE+vdW (tier 2 basis)
N    -0.624278  -3.124641  1.730586
C    -0.513001  -2.040922  0.764101
C    0.868245  -2.026662  0.125288
O    1.556416  -3.112775  0.095326
H    -0.060155  -3.924509  1.445100
H    -1.589097  -3.442014  1.814234
H    -1.163017  -2.185956  -0.129568
C    -0.948226  -0.690917  1.374252
C    -0.222570  -0.327453  2.675536
C    -0.971927  0.760928  3.461422
C    -0.295827  1.059978  4.791272
N    -1.088587  2.090937  5.591242
H    -2.027591  -0.777657  1.574692
H    -0.835059  0.100685  0.621292
H    0.802016  0.012559  2.455660
H    -0.138948  -1.238562  3.287186
H    -2.004312  0.418895  3.645347
H    -1.041863  1.683385  2.861029
H    0.709633  1.481412  4.668989
H    -0.226570  0.171157  5.430764
H    -0.641413  2.303602  6.493958
H    -1.180276  2.975289  5.071770
O    1.302714  -0.972913  -0.467221
H    -2.041459  1.753134  5.787707
Ba    3.132153  -2.223980  -1.552965
