25
Energy: -238663.030016 eV PBE+vdW (tier 2 basis)
N    0.208866  0.301154  0.184279
C    -0.329147  -0.032185  1.534817
C    0.697297  0.350667  2.580964
O    1.913068  0.401972  2.297892
H    -0.076310  1.255637  -0.060875
H    -0.296262  -0.293901  -0.484451
H    -1.273391  0.503772  1.723940
C    -0.594966  -1.560543  1.644714
C    -1.674013  -2.074896  0.688984
C    -3.068986  -1.475512  0.886622
C    -4.147073  -2.344856  0.211858
N    -4.104990  -3.704037  0.751051
H    -0.891138  -1.785831  2.680221
H    0.359512  -2.093349  1.480240
H    -1.767380  -3.162003  0.852086
H    -1.360492  -1.973957  -0.367620
H    -3.143008  -0.447787  0.493373
H    -3.292719  -1.418351  1.966171
H    -3.943926  -2.397578  -0.868191
H    -5.124212  -1.844354  0.320966
H    -4.646609  -3.782438  1.611762
H    -4.497722  -4.377666  0.096047
O    0.349417  0.565576  3.823565
H    -0.617277  0.527937  3.971164
Ba    3.017123  0.114007  0.149310
