25
Energy: -238664.29035 eV PBE+vdW (tier 2 basis)
N    -0.660673  0.234843  -0.375936
C    -0.508529  -0.109133  1.075437
C    0.911780  0.334486  1.536035
O    1.259281  1.519977  1.073648
H    -0.177897  -0.483506  -0.927607
H    -1.645732  0.132932  -0.638030
H    -1.222248  0.536461  1.614814
C    -0.791793  -1.575305  1.426089
C    -1.092451  -1.776778  2.929278
C    -0.552178  -3.086962  3.530506
C    0.944885  -3.013720  3.806977
N    1.438294  -4.308170  4.447867
H    0.079521  -2.171711  1.115559
H    -1.647120  -1.936167  0.836495
H    -2.178936  -1.755808  3.084524
H    -0.686015  -0.938097  3.512287
H    -0.777465  -3.931632  2.858374
H    -1.084266  -3.283178  4.475068
H    1.194590  -2.211596  4.511486
H    1.548624  -2.858924  2.906133
H    1.277662  -5.117850  3.832752
H    2.446018  -4.267870  4.653836
O    1.598682  -0.374684  2.250904
H    0.947103  -4.496723  5.333296
Ba    0.626860  2.732112  -0.749792
