25
Energy: -238664.242808 eV PBE+vdW (tier 2 basis)
N    -0.662522  -3.061153  1.548975
C    -0.509436  -1.908926  0.652612
C    0.850701  -1.972740  -0.038656
O    1.908350  -1.453404  0.480105
H    0.153303  -3.214226  2.141116
H    -0.849767  -3.919902  1.033717
H    -1.244159  -2.038488  -0.153054
C    -0.842259  -0.581550  1.363309
C    -0.246476  -0.380856  2.762612
C    -0.896788  0.819182  3.473269
C    -0.408836  0.959748  4.907619
N    -1.126072  2.102712  5.621770
H    -1.939224  -0.564335  1.449909
H    -0.568240  0.258805  0.706805
H    0.843280  -0.243368  2.705954
H    -0.434460  -1.285564  3.360758
H    -1.991238  0.681682  3.471131
H    -0.688769  1.746673  2.914393
H    0.662280  1.188405  4.970470
H    -0.609653  0.061028  5.504174
H    -0.806105  2.208518  6.594727
H    -0.968547  3.000033  5.141868
O    0.936116  -2.634052  -1.143015
H    -2.143495  1.943830  5.644136
Ba    3.318018  -2.297055  -1.392702
