25
Energy: -238663.464625 eV PBE+vdW (tier 2 basis)
N    0.515023  -0.117531  0.333144
C    -0.165565  -0.113305  1.659532
C    0.824542  0.295214  2.742113
O    2.055704  0.246837  2.548747
H    0.213374  -0.973372  -0.233434
H    0.164674  0.676824  -0.211041
H    -0.987945  0.622099  1.659966
C    -0.757709  -1.502808  2.000439
C    -1.954122  -1.864144  1.089593
C    -1.890052  -3.268220  0.471702
C    -0.618504  -3.583115  -0.319384
N    -0.239360  -2.472021  -1.237721
H    -1.062148  -1.525939  3.055734
H    0.051757  -2.245360  1.914234
H    -2.044122  -1.119133  0.284717
H    -2.883699  -1.774812  1.666014
H    -2.765151  -3.386316  -0.185153
H    -2.001437  -4.034985  1.252125
H    -0.766039  -4.529271  -0.860796
H    0.231903  -3.751638  0.360708
H    0.442922  -2.826208  -1.912978
H    -1.051962  -2.225909  -1.812204
O    0.410939  0.675586  3.925587
H    -0.563443  0.705080  4.007898
Ba    3.252543  -0.057806  0.449749
