25
Energy: -238664.761451 eV PBE+vdW (tier 2 basis)
N    0.646131  -1.699201  3.312925
C    0.222262  -1.750254  1.894407
C    1.339461  -2.218401  0.957074
O    1.030383  -2.596234  -0.226632
H    0.656078  -2.644520  3.704206
H    1.625288  -1.392789  3.341405
H    -0.587194  -2.489293  1.800890
C    -0.326540  -0.387509  1.416325
C    -1.663897  -0.005348  2.096440
C    -1.668449  1.285946  2.930825
C    -0.655440  1.369897  4.068901
N    -0.688476  0.131757  4.934002
H    -0.469183  -0.443568  0.330294
H    0.445173  0.381328  1.582565
H    -2.015429  -0.849218  2.712274
H    -2.437138  0.108306  1.326456
H    -2.680383  1.435012  3.338257
H    -1.483149  2.155832  2.283532
H    -0.851096  2.240470  4.705107
H    0.377413  1.445878  3.704748
H    -0.155467  0.267881  5.800448
H    -1.649162  -0.114085  5.201410
O    2.557624  -2.211776  1.353693
H    -0.232878  -0.686007  4.362390
Ba    3.347064  -3.151107  -0.843942
