25
Energy: -238664.205773 eV PBE+vdW (tier 2 basis)
N    -0.633016  0.572989  -0.237821
C    -0.703303  -0.042613  1.127786
C    -0.084666  0.944630  2.160005
O    -0.371920  2.208792  1.904812
H    0.305673  0.397328  -0.614742
H    -1.254649  0.056411  -0.867177
H    -1.775932  -0.098812  1.380731
C    -0.100654  -1.456726  1.180444
C    -0.355064  -2.233588  2.501021
C    0.939115  -2.518013  3.278694
C    0.755212  -3.061684  4.684959
N    0.170456  -4.476377  4.695049
H    0.983100  -1.380898  0.999835
H    -0.513077  -2.029992  0.338098
H    -0.880360  -3.170263  2.252273
H    -1.034695  -1.657197  3.146409
H    1.472442  -1.564882  3.404706
H    1.608310  -3.179380  2.703373
H    0.067371  -2.448570  5.281093
H    1.709295  -3.135441  5.219919
H    0.781165  -5.130655  4.186207
H    0.062125  -4.833722  5.654277
O    0.570566  0.550388  3.106123
H    -0.754503  -4.504012  4.245760
Ba    -0.956991  3.377290  0.049165
