25
Energy: -238662.863806 eV PBE+vdW (tier 2 basis)
N    -0.026058  0.608194  0.351491
C    0.393703  -0.053674  1.629981
C    1.920399  -0.048216  1.694395
O    2.597257  0.664749  0.921384
H    -0.228318  -0.140042  -0.323748
H    -0.941617  1.040259  0.511519
H    0.082543  0.610281  2.457193
C    -0.275869  -1.431168  1.841299
C    -0.083359  -2.094401  3.220162
C    -1.125883  -3.196858  3.489099
C    -2.509590  -2.661981  3.881977
N    -3.462692  -3.759679  3.927985
H    0.051290  -2.121424  1.046654
H    -1.353412  -1.268145  1.690391
H    -0.139495  -1.340903  4.025560
H    0.904799  -2.591875  3.285729
H    -0.748052  -3.839456  4.297324
H    -1.228665  -3.845075  2.605683
H    -2.874569  -1.948539  3.123706
H    -2.413553  -2.088098  4.827588
H    -3.275850  -4.396500  4.702659
H    -4.420598  -3.429193  4.030944
O    2.546098  -0.747461  2.594946
H    1.925790  -1.318782  3.114251
Ba    1.978812  2.241060  -0.805442
