25
Energy: -238664.206736 eV PBE+vdW (tier 2 basis)
N    0.186115  1.688811  1.422697
C    1.240187  0.690408  1.657090
C    1.453329  -0.149154  0.398048
O    2.248084  0.308769  -0.507303
H    -2.203106  0.250780  6.273257
H    0.529349  2.467302  0.861404
H    2.176492  1.248721  1.788246
C    0.995644  -0.116937  2.949005
C    -0.454907  -0.522911  3.237052
C    -0.575587  -1.233086  4.593820
C    -1.998905  -1.488721  5.069463
N    -2.688116  -0.188341  5.478102
H    1.346069  0.515289  3.778658
H    1.640722  -1.008737  2.947103
H    -0.843145  -1.179635  2.443828
H    -1.062962  0.399220  3.216336
H    -0.024852  -0.677224  5.372332
H    -0.086191  -2.217189  4.546077
H    -2.031197  -2.132953  5.955899
H    -2.631143  -1.932688  4.290119
H    -3.666295  -0.344751  5.757096
H    -2.684047  0.490312  4.703645
O    0.827893  -1.256482  0.203761
H    -0.623512  1.293528  0.943980
Ba    1.991078  -1.603331  -1.976715
