25
Energy: -238664.430205 eV PBE+vdW (tier 2 basis)
N    -0.830045  0.140900  0.735182
C    0.447840  -0.172674  1.348762
C    1.623784  -0.361667  0.380909
O    2.827350  -0.223184  0.811717
H    -3.241827  0.372170  6.632282
H    -0.797090  1.030282  0.237774
H    0.737698  0.669829  1.996989
C    0.351005  -1.453835  2.220686
C    -0.887381  -1.522291  3.124961
C    -1.015310  -0.377564  4.142790
C    -2.232072  -0.606210  5.027893
N    -2.419152  0.527176  6.032596
H    1.271892  -1.543328  2.814451
H    0.317999  -2.332734  1.557768
H    -0.854265  -2.484600  3.658540
H    -1.789824  -1.535426  2.498387
H    -1.125325  0.577754  3.604620
H    -0.105001  -0.314648  4.762100
H    -2.150514  -1.524399  5.622965
H    -3.161896  -0.649193  4.446961
H    -2.547920  1.429801  5.554374
H    -1.598583  0.619472  6.647531
O    1.402472  -0.669532  -0.845426
H    -1.095143  -0.567304  0.048527
Ba    3.800306  -0.690794  -1.397343
