25
Energy: -238664.711359 eV PBE+vdW (tier 2 basis)
N    0.474572  -0.843838  0.290728
C    0.239512  -0.127346  1.613532
C    1.371819  -0.578788  2.551178
O    1.419422  -0.070873  3.705283
H    -0.321428  -1.438372  0.025924
H    0.664595  -0.198679  -0.485354
H    0.365834  0.947977  1.431215
C    -1.168841  -0.373774  2.183820
C    -1.616845  -1.832815  2.400328
C    -0.787639  -2.717302  3.349475
C    -0.740112  -2.247788  4.805637
N    0.400631  -2.897688  5.533277
H    -1.893145  0.120766  1.519896
H    -1.207091  0.195271  3.122639
H    -1.696961  -2.360513  1.434234
H    -2.655646  -1.788077  2.759071
H    0.236907  -2.827258  2.957354
H    -1.211447  -3.732308  3.314806
H    -1.695757  -2.470537  5.302221
H    -0.584963  -1.163529  4.873151
H    0.277397  -2.716708  6.535878
H    0.290465  -3.915505  5.458106
O    2.176310  -1.480955  2.135628
H    1.314310  -1.447642  0.457850
Ba    2.881102  -1.903716  4.663122
