25
Energy: -238664.183226 eV PBE+vdW (tier 2 basis)
N    -0.552786  -0.188535  3.544933
C    0.144776  -0.694269  2.362723
C    1.459407  0.093822  2.318444
O    1.429596  1.354946  2.076285
H    -3.469429  -3.760252  0.456409
H    -1.107241  -0.890030  4.024936
H    0.429604  -1.736357  2.564815
C    -0.574797  -0.606067  1.000665
C    -1.751400  -1.574834  0.776007
C    -3.056579  -1.232194  1.517451
C    -4.308856  -1.858160  0.916073
N    -4.277717  -3.384865  0.971651
H    0.167857  -0.809217  0.213131
H    -0.908116  0.430945  0.836433
H    -1.417374  -2.597415  1.026647
H    -1.958546  -1.575397  -0.307235
H    -3.231772  -0.146295  1.475829
H    -2.995226  -1.477292  2.588662
H    -4.426691  -1.604433  -0.145264
H    -5.218241  -1.558792  1.450407
H    -4.211937  -3.722639  1.941944
H    -5.127533  -3.793012  0.557803
O    2.564785  -0.493228  2.593724
H    -1.110472  0.642803  3.362249
Ba    3.753694  1.638767  2.832276
