25
Energy: -238664.61733 eV PBE+vdW (tier 2 basis)
N    0.270426  0.042323  -0.128850
C    -0.200314  0.115956  1.319695
C    0.491739  -1.058402  2.035943
O    0.538044  -2.165764  1.403613
H    -0.365789  0.541955  -0.765938
H    1.215791  0.429804  -0.254566
H    0.136448  1.072739  1.736053
C    -1.737515  -0.006102  1.317509
C    -2.469092  0.131044  2.668520
C    -2.250340  -0.953828  3.738740
C    -2.532636  -2.390313  3.290794
N    -1.876672  -3.373272  4.217007
H    -2.007617  -0.953341  0.823555
H    -2.121438  0.799775  0.671027
H    -3.539789  0.183629  2.423630
H    -2.223441  1.104896  3.115527
H    -2.906526  -0.711085  4.587670
H    -1.226859  -0.875685  4.131289
H    -2.135354  -2.588017  2.283779
H    -3.616611  -2.568047  3.237291
H    -2.307122  -4.292707  4.069528
H    -2.141375  -3.132422  5.178849
O    0.905366  -0.901621  3.217940
H    0.299069  -0.961756  -0.388109
Ba    0.871609  -3.408759  3.707501
