25
Energy: -238664.635403 eV PBE+vdW (tier 2 basis)
N    1.145647  0.081359  0.349363
C    0.170574  -0.060391  1.512972
C    0.910097  -0.893048  2.574298
O    0.458230  -0.915175  3.751273
H    0.685346  -0.006532  -0.565584
H    1.645610  0.979209  0.368330
H    -0.031077  0.943053  1.905954
C    -1.148719  -0.714452  1.051482
C    -1.073312  -2.193889  0.624514
C    -1.097272  -3.194100  1.806710
C    -0.082831  -4.333702  1.688805
N    0.229918  -4.908712  3.038322
H    -1.548709  -0.097345  0.231760
H    -1.865060  -0.592171  1.876039
H    -0.179553  -2.375742  0.004033
H    -1.921052  -2.391772  -0.042361
H    -2.108846  -3.611594  1.910247
H    -0.926628  -2.649225  2.747781
H    0.862301  -3.959704  1.266578
H    -0.448662  -5.112579  1.004202
H    -0.651582  -5.180565  3.487810
H    0.720031  -5.800230  2.906579
O    1.910801  -1.586000  2.180734
H    1.843507  -0.684846  0.479700
Ba    1.765144  -3.010631  4.409419
