25
Energy: -238664.612758 eV PBE+vdW (tier 2 basis)
N    -1.106442  1.111962  0.665065
C    -0.535283  0.014782  1.510936
C    0.942643  -0.239793  1.149809
O    1.304016  0.112920  -0.047388
H    -2.121522  0.980771  0.606000
H    -1.000270  1.997349  1.170676
H    -0.559551  0.312972  2.569234
C    -1.374994  -1.269805  1.325689
C    -0.858587  -2.523041  2.044665
C    -0.880570  -2.462111  3.590951
C    0.303084  -3.169179  4.244458
N    1.551026  -2.304488  4.186776
H    -1.438860  -1.492784  0.247461
H    -2.401760  -1.047947  1.659962
H    0.155367  -2.748002  1.683408
H    -1.473232  -3.372294  1.718083
H    -1.796017  -2.935594  3.969122
H    -0.924699  -1.425032  3.960708
H    0.542015  -4.108994  3.732072
H    0.118261  -3.397755  5.300009
H    1.566223  -1.641042  4.970130
H    2.407930  -2.865940  4.254691
O    1.696417  -0.781578  1.965558
H    1.591055  -1.720724  3.290707
Ba    0.343751  1.351350  -1.747779
