25
Energy: -238663.052003 eV PBE+vdW (tier 2 basis)
N    0.605118  0.561852  2.008973
C    -0.244109  -0.371539  2.817005
C    0.376456  -0.507217  4.203373
O    1.264524  0.278017  4.598244
H    1.217982  -0.021610  1.424006
H    -0.006702  1.011191  1.319871
H    -1.213142  0.133684  2.983297
C    -0.518034  -1.722182  2.118575
C    -1.189314  -1.563888  0.752701
C    -1.448452  -2.896958  0.043638
C    -1.769308  -2.680618  -1.442778
N    -0.641297  -2.024926  -2.120582
H    -1.172741  -2.336437  2.763105
H    0.429836  -2.279048  2.022153
H    -0.551931  -0.978306  0.067533
H    -2.136765  -1.010598  0.869569
H    -2.270898  -3.445348  0.526070
H    -0.554568  -3.538402  0.122618
H    -2.649723  -2.027607  -1.535171
H    -2.050909  -3.648922  -1.888543
H    -0.950793  -1.582492  -2.985188
H    0.060927  -2.713996  -2.393223
O    -0.029949  -1.432061  5.030281
H    -0.692865  -2.031848  4.628006
Ba    2.258982  2.226738  3.550456
