25
Energy: -238664.297523 eV PBE+vdW (tier 2 basis)
N    0.926881  1.441184  1.701581
C    1.150365  0.026811  1.997267
C    1.918307  -0.514320  0.788928
O    3.147854  -0.852730  0.916613
H    -3.767120  0.263699  6.344537
H    0.866995  2.020547  2.534183
H    1.848267  -0.028153  2.844200
C    -0.093980  -0.838182  2.296010
C    -0.801711  -0.459424  3.604652
C    -2.015584  -1.359462  3.883519
C    -2.659515  -1.195209  5.253298
N    -3.337018  0.164853  5.414371
H    0.213931  -1.895211  2.352702
H    -0.791597  -0.762787  1.446833
H    -1.103058  0.602095  3.548823
H    -0.087675  -0.541341  4.441114
H    -1.705836  -2.414798  3.835192
H    -2.778165  -1.246443  3.094848
H    -1.928650  -1.262547  6.069208
H    -3.445993  -1.939080  5.427029
H    -4.079684  0.293945  4.712937
H    -2.663799  0.934351  5.298450
O    1.346334  -0.547998  -0.360498
H    0.115243  1.600017  1.106960
Ba    3.513204  -0.809815  -1.503755
