25
Energy: -238664.291237 eV PBE+vdW (tier 2 basis)
N    -0.260281  1.093460  0.544560
C    0.621139  0.440079  1.491714
C    1.859114  -0.228608  0.876438
O    1.888608  -0.478513  -0.382337
H    -1.853733  -0.719279  7.057245
H    0.123483  1.975081  0.209398
H    1.013277  1.200460  2.186348
C    -0.162314  -0.606693  2.332564
C    -1.363684  0.033696  3.041297
C    -2.335306  -0.969903  3.684972
C    -1.946893  -1.488428  5.063586
N    -2.153123  -0.407714  6.123328
H    0.529204  -1.088906  3.039665
H    -0.529521  -1.393413  1.652724
H    -1.909759  0.625428  2.295099
H    -1.002324  0.776850  3.778071
H    -2.442579  -1.852038  3.036449
H    -3.348748  -0.539074  3.740601
H    -0.891580  -1.780582  5.131882
H    -2.566301  -2.335586  5.380715
H    -3.146465  -0.142583  6.185355
H    -1.623904  0.443847  5.887910
O    2.866131  -0.520908  1.620751
H    -0.434045  0.507293  -0.272605
Ba    4.236604  -1.191967  -0.317730
