25
Energy: -238664.725726 eV PBE+vdW (tier 2 basis)
N    -0.122970  -1.194754  -0.248380
C    -0.097610  -0.434991  1.019136
C    1.320275  0.010814  1.402772
O    1.459862  0.899701  2.313729
H    -1.496831  -1.995594  -0.564361
H    0.090392  -0.571981  -1.032402
H    -0.676734  0.490246  0.878448
C    -0.724522  -1.223274  2.195229
C    -2.259738  -1.156527  2.350268
C    -3.160429  -2.202644  1.667788
C    -3.524523  -2.014715  0.196804
N    -2.457020  -2.525080  -0.739006
H    -0.298621  -0.802901  3.115535
H    -0.376323  -2.268693  2.151706
H    -2.611286  -0.144101  2.093279
H    -2.457424  -1.257188  3.426087
H    -4.120105  -2.191531  2.204023
H    -2.765181  -3.220151  1.829816
H    -3.682713  -0.956938  -0.051791
H    -4.447292  -2.555709  -0.044206
H    -2.310021  -3.531556  -0.598910
H    -2.734597  -2.397153  -1.719113
O    2.336950  -0.514103  0.827700
H    0.646644  -1.873021  -0.237053
Ba    3.919817  0.893843  2.181899
