25
Energy: -238664.511935 eV PBE+vdW (tier 2 basis)
N    -1.188520  1.105867  0.702865
C    -0.838600  0.046527  1.707489
C    0.611382  0.234475  2.205358
O    1.408255  0.876656  1.401988
H    -1.896258  0.724634  0.066583
H    -1.682808  1.856714  1.195670
H    -1.492295  0.142679  2.586981
C    -1.066544  -1.357084  1.101715
C    -0.923739  -2.527248  2.095359
C    0.496601  -3.123583  2.207245
C    0.850399  -3.679675  3.581099
N    0.879808  -2.574454  4.636956
H    -0.399826  -1.509374  0.236575
H    -2.094167  -1.364168  0.706998
H    -1.616048  -3.323896  1.794469
H    -1.292016  -2.185946  3.075863
H    1.263397  -2.388970  1.924091
H    0.605922  -3.952539  1.494146
H    1.846487  -4.134779  3.571407
H    0.136374  -4.437685  3.923838
H    0.054766  -2.606811  5.244692
H    1.701091  -2.660295  5.245560
O    0.959753  -0.231893  3.294122
H    0.900795  -1.617128  4.173934
Ba    1.111792  2.242973  -0.441005
