25
Energy: -238662.945489 eV PBE+vdW (tier 2 basis)
N    0.207921  -0.540374  0.343539
C    0.648549  -0.517149  1.771070
C    1.741758  -1.560908  1.947205
O    1.800609  -2.552948  1.193126
H    -0.736363  -0.129893  0.316832
H    0.783616  0.125207  -0.185190
H    1.042134  0.477433  2.040769
C    -0.513158  -0.869528  2.738702
C    -1.580893  0.222844  2.922521
C    -2.468881  0.523915  1.710447
C    -3.681439  1.417980  2.033973
N    -4.452475  1.665856  0.818755
H    -0.076466  -1.102973  3.721407
H    -0.981138  -1.809197  2.391896
H    -1.097848  1.146486  3.278648
H    -2.220168  -0.113300  3.753265
H    -2.848952  -0.417701  1.272247
H    -1.924526  1.064525  0.914262
H    -3.315695  2.376597  2.428431
H    -4.265146  0.948796  2.846494
H    -5.228447  1.012282  0.724343
H    -4.857457  2.599810  0.818370
O    2.606003  -1.482245  2.925694
H    2.518149  -0.669677  3.464053
Ba    0.475319  -3.070241  -0.795281
