25
Energy: -238664.287929 eV PBE+vdW (tier 2 basis)
N    -0.875656  0.635029  -0.149231
C    -0.518648  0.078248  1.197413
C    0.986947  0.358041  1.474416
O    1.382846  1.541270  1.040240
H    -0.587259  -0.048203  -0.859238
H    -1.896373  0.664020  -0.232838
H    -1.071027  0.688469  1.932629
C    -0.923238  -1.393957  1.372244
C    -0.857459  -1.914635  2.831236
C    0.207439  -3.003676  3.037529
C    0.330663  -3.385094  4.504691
N    1.438985  -4.413671  4.703305
H    -0.288836  -2.013306  0.719208
H    -1.951392  -1.507649  1.000242
H    -1.842776  -2.304375  3.122678
H    -0.644036  -1.078709  3.513866
H    1.168493  -2.609780  2.673335
H    -0.051772  -3.893613  2.440651
H    -0.582249  -3.839615  4.910001
H    0.603120  -2.526766  5.131697
H    2.343348  -4.044386  4.376794
H    1.545837  -4.677446  5.692681
O    1.691129  -0.447118  2.056174
H    1.248737  -5.273583  4.169883
Ba    0.614176  3.004505  -0.521608
