25
Energy: -238664.40049 eV PBE+vdW (tier 2 basis)
N    -0.956006  0.818682  0.079886
C    -0.648034  -0.104520  1.227419
C    0.756045  0.242651  1.785131
O    1.114597  1.488126  1.649147
H    -0.581258  0.382698  -0.771661
H    -1.969456  0.811489  -0.071752
H    -1.350327  0.170625  2.033687
C    -0.871195  -1.585455  0.854877
C    -1.248557  -2.597060  1.961499
C    -0.105308  -3.325198  2.702184
C    0.267575  -2.753098  4.080278
N    1.757886  -2.514655  4.187613
H    0.002814  -1.953730  0.294785
H    -1.710397  -1.592187  0.142843
H    -1.850515  -3.370489  1.467911
H    -1.934850  -2.128659  2.685229
H    0.782410  -3.341687  2.052617
H    -0.391552  -4.375441  2.838159
H    -0.015236  -3.423189  4.899436
H    -0.194510  -1.776582  4.262482
H    2.295613  -3.363676  3.974806
H    1.985582  -1.767331  3.488875
O    1.439469  -0.616398  2.339581
H    2.033626  -2.197093  5.124859
Ba    0.341583  3.276177  0.404108
