25
Energy: -238664.680972 eV PBE+vdW (tier 2 basis)
N    -0.829960  0.636302  0.029292
C    -0.564588  0.086237  1.399037
C    0.935015  0.318553  1.741216
O    1.422262  1.435242  1.285776
H    -0.544922  -0.071619  -0.657747
H    -1.844205  0.708675  -0.097460
H    -1.126110  0.730418  2.097742
C    -1.012157  -1.369030  1.597274
C    -1.207202  -1.735789  3.084130
C    -0.944720  -3.207593  3.440901
C    0.468734  -3.721749  3.176061
N    1.519950  -2.822800  3.790732
H    -0.270018  -2.024213  1.115414
H    -1.957783  -1.533714  1.060886
H    -2.237755  -1.497458  3.380760
H    -0.576849  -1.088918  3.713186
H    -1.625503  -3.866867  2.882101
H    -1.192464  -3.362314  4.502204
H    0.709314  -3.767116  2.106990
H    0.603355  -4.726420  3.592872
H    1.349130  -2.675671  4.793226
H    2.458377  -3.229598  3.697780
O    1.587291  -0.492190  2.402932
H    1.521884  -1.879934  3.298063
Ba    0.749880  2.946607  -0.330667
