25
Energy: -238663.713022 eV PBE+vdW (tier 2 basis)
N    -0.273931  0.682958  0.336066
C    -0.191224  0.038717  1.712203
C    1.277078  0.031055  2.129608
O    1.565716  -0.249306  3.333778
H    -1.045397  0.253184  -0.199475
H    -0.438970  1.696161  0.379175
H    -0.772650  0.659250  2.407309
C    -0.785589  -1.378952  1.675286
C    -2.229640  -1.400647  1.158504
C    -2.938669  -2.747463  1.383458
C    -2.996250  -3.184708  2.854167
N    -3.374266  -2.064645  3.726740
H    -0.766901  -1.731918  2.714812
H    -0.138453  -2.048490  1.085202
H    -2.271826  -1.189486  0.072313
H    -2.799948  -0.614335  1.675878
H    -2.461364  -3.540834  0.789034
H    -3.960541  -2.647774  0.987875
H    -2.006718  -3.541047  3.181497
H    -3.665276  -4.060281  2.921699
H    -4.353421  -1.812348  3.576578
H    -3.313106  -2.345979  4.705496
O    2.174832  0.265841  1.245600
H    0.630994  0.529485  -0.144191
Ba    4.027566  -0.108893  3.001489
