25
Energy: -238664.429709 eV PBE+vdW (tier 2 basis)
N    -1.465471  1.111742  0.876672
C    -0.781704  0.016407  1.640066
C    0.682334  0.434011  1.915088
O    1.213252  1.200687  1.006469
H    -2.331414  0.735255  0.478322
H    -1.785884  1.815728  1.550829
H    -1.285343  -0.133447  2.606242
C    -0.829867  -1.300220  0.821298
C    -0.897231  -2.633392  1.590321
C    0.326749  -3.033143  2.442848
C    0.185508  -2.693905  3.936642
N    1.470449  -2.126418  4.489857
H    0.018123  -1.326251  0.117000
H    -1.738131  -1.264164  0.198202
H    -1.052517  -3.411865  0.831801
H    -1.807825  -2.652758  2.209217
H    1.229914  -2.556195  2.033607
H    0.491718  -4.113352  2.345778
H    -0.083962  -3.570255  4.536218
H    -0.567609  -1.918045  4.114338
H    1.620301  -1.213847  3.981196
H    1.410804  -1.945943  5.499436
O    1.284281  0.025475  2.909484
H    2.270010  -2.751333  4.331239
Ba    0.391516  2.430229  -0.773170
