25
Energy: -238664.212032 eV PBE+vdW (tier 2 basis)
N    2.484624  0.263709  1.279871
C    1.422813  -0.723653  1.495918
C    1.241408  -1.540068  0.212933
O    1.969458  -2.587549  0.038318
H    3.394458  -0.168556  1.125213
H    2.278684  0.896234  0.506040
H    1.783884  -1.421641  2.265560
C    0.152391  -0.012462  1.977446
C    -0.892767  -0.937508  2.610927
C    -2.192477  -0.228346  3.032356
C    -2.073127  0.830542  4.121959
N    -1.705870  0.216032  5.471137
H    -0.298620  0.533577  1.134276
H    0.500747  0.746433  2.694368
H    -0.444638  -1.481429  3.463093
H    -1.178833  -1.726846  1.899911
H    -2.950275  -0.970783  3.331027
H    -2.623884  0.289808  2.162459
H    -3.023613  1.352394  4.282995
H    -1.298918  1.578459  3.912854
H    -2.419330  -0.461482  5.775396
H    -0.807402  -0.283558  5.423396
O    0.463629  -1.130073  -0.727000
H    -1.625588  0.933980  6.204526
Ba    1.346248  -2.812216  -2.313979
