25
Energy: -238664.191819 eV PBE+vdW (tier 2 basis)
N    2.488201  -2.037640  2.237095
C    1.085922  -1.983535  1.841663
C    1.014657  -1.913708  0.320641
O    0.088689  -1.267807  -0.287693
H    3.010079  -2.674275  1.635129
H    2.584006  -2.374561  3.194544
H    0.520521  -2.919379  2.071545
C    0.383993  -0.830185  2.587419
C    -1.150982  -0.878169  2.597570
C    -1.798072  -0.144384  3.788107
C    -1.528102  1.354279  3.795323
N    -2.221348  2.017760  4.982257
H    0.761982  0.123490  2.190757
H    0.751564  -0.894302  3.624603
H    -1.483665  -1.924949  2.661475
H    -1.556426  -0.491938  1.651994
H    -1.428503  -0.587051  4.728416
H    -2.886201  -0.316514  3.758550
H    -1.917165  1.853611  2.899012
H    -0.463489  1.596627  3.897948
H    -2.056481  3.033754  5.007337
H    -3.239756  1.866941  4.949286
O    1.898860  -2.561776  -0.353924
H    -1.885574  1.625564  5.873579
Ba    0.997288  -1.930850  -2.515630
