25
Energy: -238664.694871 eV PBE+vdW (tier 2 basis)
N    -0.486585  -0.806489  0.268322
C    0.001005  -0.252938  1.560269
C    1.526048  -0.138409  1.567528
O    2.106879  0.278650  2.628489
H    -1.323631  -2.277229  0.287660
H    -1.110385  -0.130384  -0.176497
H    -0.345003  0.788450  1.673131
C    -0.522929  -1.039715  2.778542
C    -0.192060  -2.548825  2.741257
C    -1.405422  -3.492972  2.816602
C    -2.503710  -3.259703  1.782907
N    -1.942848  -3.184156  0.382126
H    -1.607834  -0.871654  2.828822
H    -0.115986  -0.574282  3.684161
H    0.470395  -2.803132  3.578131
H    0.394092  -2.782987  1.836336
H    -1.886108  -3.408949  3.802414
H    -1.055127  -4.534342  2.747223
H    -3.032784  -2.311677  1.941687
H    -3.247460  -4.064259  1.811791
H    -1.374865  -4.011722  0.165046
H    -2.695986  -3.142627  -0.314243
O    2.199432  -0.416701  0.512726
H    0.319301  -0.896521  -0.361082
Ba    4.322613  0.440464  1.571987
