25
Energy: -238663.612812 eV PBE+vdW (tier 2 basis)
N    1.006450  0.098675  0.294498
C    0.084283  0.156562  1.504179
C    0.981097  0.296973  2.741565
O    0.436620  0.300130  3.887342
H    1.036020  -0.871409  -0.069864
H    0.701617  0.716022  -0.466974
H    -0.495460  1.088627  1.428504
C    -0.850060  -1.057879  1.555072
C    -0.123164  -2.414462  1.476613
C    -0.028399  -3.042380  0.072140
C    -1.360520  -3.678572  -0.380493
N    -1.784624  -4.681537  0.591352
H    -1.594621  -0.961586  0.750990
H    -1.414327  -0.962771  2.491977
H    -0.679903  -3.146601  2.080074
H    0.876726  -2.342668  1.940818
H    0.748421  -3.821273  0.084663
H    0.283540  -2.334001  -0.724043
H    -1.231301  -4.060281  -1.408155
H    -2.144318  -2.907603  -0.438287
H    -2.784766  -4.861934  0.527317
H    -1.314071  -5.573241  0.437079
O    2.244796  0.435846  2.582828
H    1.958753  0.366427  0.609433
Ba    2.556012  0.651024  5.141003
