25
Energy: -238664.302828 eV PBE+vdW (tier 2 basis)
N    2.396513  -2.455375  1.754678
C    0.940599  -2.111477  1.658239
C    0.926257  -1.610612  0.208523
O    0.745001  -2.480575  -0.707153
H    2.527582  -3.336782  2.251865
H    2.890518  -1.735947  2.286086
H    0.369426  -3.047145  1.699939
C    0.433442  -1.125158  2.710620
C    -1.071181  -0.852710  2.549737
C    -1.735263  -0.076760  3.702587
C    -1.305850  1.382872  3.783728
N    -2.096741  2.114026  4.864208
H    1.015958  -0.193280  2.626944
H    0.632827  -1.551628  3.706767
H    -1.601381  -1.813034  2.472015
H    -1.260747  -0.327825  1.599878
H    -1.522307  -0.582140  4.658996
H    -2.826478  -0.120442  3.555382
H    -1.499105  1.924469  2.849104
H    -0.249287  1.508523  4.048834
H    -1.826604  3.105213  4.934888
H    -3.108029  2.080442  4.669733
O    1.474044  -0.485261  -0.041091
H    -1.951595  1.684713  5.789263
Ba    3.052402  -1.947107  -1.356765
