25
Energy: -238662.867965 eV PBE+vdW (tier 2 basis)
N    0.786491  0.512405  1.035377
C    -0.091089  0.045307  2.155403
C    0.778159  -0.164342  3.394450
O    1.927452  0.318610  3.469380
H    1.027158  -0.321161  0.482180
H    0.205508  1.068321  0.399658
H    -0.749101  0.891639  2.423723
C    -0.976136  -1.165417  1.798928
C    -0.207028  -2.450069  1.458049
C    -1.125602  -3.629650  1.105440
C    -1.980252  -4.139332  2.274702
N    -2.773282  -5.274911  1.841902
H    -1.623326  -0.870662  0.958513
H    -1.686006  -1.341035  2.625654
H    0.448866  -2.738290  2.298898
H    0.458788  -2.274794  0.594052
H    -0.495410  -4.455615  0.743779
H    -1.787810  -3.363595  0.267778
H    -2.688694  -3.359769  2.598694
H    -1.314199  -4.342967  3.143814
H    -2.211183  -6.109473  1.679453
H    -3.511241  -5.513479  2.500951
O    0.314371  -0.805001  4.433935
H    -0.574066  -1.187297  4.275893
Ba    3.211021  1.659368  1.905509
