25
Energy: -238662.853725 eV PBE+vdW (tier 2 basis)
N    -0.170454  0.401235  0.353830
C    -0.166165  0.052380  1.806185
C    1.273429  -0.017320  2.286835
O    2.205362  -0.245755  1.488234
H    -1.053983  0.046668  -0.031572
H    -0.250056  1.420025  0.261386
H    -0.711668  0.814438  2.387864
C    -0.834905  -1.324622  2.047750
C    -2.330832  -1.344161  1.696151
C    -3.020068  -2.657100  2.092903
C    -2.550658  -3.894863  1.318618
N    -3.303828  -5.059068  1.749805
H    -0.713577  -1.590213  3.108903
H    -0.282021  -2.093315  1.481090
H    -2.482963  -1.184877  0.612279
H    -2.828435  -0.505108  2.206418
H    -4.100707  -2.526927  1.930787
H    -2.896747  -2.840248  3.170882
H    -1.489510  -4.100402  1.537457
H    -2.612053  -3.675461  0.226809
H    -2.917842  -5.929004  1.388426
H    -4.282783  -5.013418  1.468096
O    1.569274  0.096328  3.555305
H    0.797894  0.293283  4.124659
Ba    2.190281  -0.439702  -0.938557
