25
Energy: -238664.313412 eV PBE+vdW (tier 2 basis)
N    -1.050922  -2.087297  1.304380
C    -0.452537  -1.120055  0.384572
C    0.909019  -1.601999  -0.102789
O    1.712600  -0.779225  -0.674895
H    -0.708597  -3.025725  1.093472
H    -2.063575  -2.107670  1.185456
H    -1.011943  -1.046830  -0.574635
C    -0.414869  0.311952  0.957519
C    0.170123  0.447496  2.375821
C    -0.879589  0.274217  3.487897
C    -0.279455  0.504330  4.865988
N    -1.345381  0.377377  5.951084
H    -1.440458  0.709717  0.941946
H    0.158313  0.936384  0.261085
H    0.629716  1.442699  2.469247
H    0.980008  -0.284534  2.524805
H    -1.300550  -0.740620  3.415752
H    -1.698805  0.993530  3.319852
H    0.146552  1.509434  4.979709
H    0.493767  -0.232848  5.116264
H    -2.096929  1.067592  5.812262
H    -1.781219  -0.555271  5.933156
O    1.209770  -2.848920  -0.025762
H    -0.956864  0.524696  6.892986
Ba    3.155827  -2.572433  -1.522172
