25
Energy: -238663.039373 eV PBE+vdW (tier 2 basis)
N    -0.184660  -0.471377  -0.504532
C    0.364673  -0.560282  0.881609
C    1.791986  -1.063978  0.809716
O    2.178818  -1.761577  -0.153224
H    -1.207053  -0.518122  -0.417441
H    -0.009351  0.472384  -0.867060
H    0.341902  0.426824  1.372468
C    -0.470348  -1.547960  1.742593
C    -1.903498  -1.067985  1.983850
C    -2.665118  -1.939253  2.990148
C    -3.970393  -1.261458  3.442035
N    -3.688644  0.023945  4.081778
H    0.036570  -1.670910  2.711478
H    -0.450835  -2.545056  1.265683
H    -2.480531  -1.039229  1.040962
H    -1.895718  -0.040317  2.383987
H    -2.030635  -2.109559  3.875525
H    -2.889765  -2.931024  2.569431
H    -4.520577  -1.970634  4.084417
H    -4.610075  -1.076973  2.565957
H    -4.502407  0.636069  4.059239
H    -3.442204  -0.097323  5.064260
O    2.637378  -0.847215  1.785053
H    2.277766  -0.278217  2.495374
Ba    1.039376  -2.344052  -2.215220
