25
Energy: -238664.199064 eV PBE+vdW (tier 2 basis)
N    1.532507  -2.283977  2.549667
C    0.475731  -1.960065  1.595388
C    1.157203  -1.916076  0.226601
O    2.089288  -1.060842  0.006800
H    1.190191  -2.753841  3.383330
H    2.099753  -1.478492  2.807837
H    -0.208626  -2.819022  1.557698
C    -0.348783  -0.675188  1.850932
C    -1.255000  -0.790599  3.084310
C    -2.195094  0.411274  3.293461
C    -1.571094  1.657625  3.908413
N    -1.332919  1.471442  5.406080
H    -0.981448  -0.480553  0.969183
H    0.345320  0.177565  1.930495
H    -0.641625  -0.979141  3.984877
H    -1.884000  -1.686767  2.979336
H    -3.068153  0.113583  3.897326
H    -2.616664  0.720103  2.325412
H    -2.226310  2.532160  3.821541
H    -0.594876  1.909580  3.475947
H    -0.880618  2.294205  5.828013
H    -2.222790  1.316921  5.901364
O    0.843205  -2.782727  -0.664202
H    -0.734754  0.654071  5.589830
Ba    2.859555  -2.328239  -1.970637
