25
Energy: -238664.278827 eV PBE+vdW (tier 2 basis)
N    0.832544  -1.986906  2.926448
C    0.479235  -1.163412  1.767508
C    1.419366  0.040519  1.690539
O    1.267723  1.035422  2.493809
H    -3.705750  -2.816957  -0.235447
H    1.718872  -2.473879  2.805291
H    0.669085  -1.765708  0.867741
C    -1.005448  -0.759254  1.827139
C    -1.926080  -1.986768  1.891159
C    -3.397216  -1.665455  2.204769
C    -4.246998  -1.196842  1.030569
N    -4.568070  -2.362079  0.096239
H    -1.236234  -0.120107  0.959862
H    -1.164349  -0.135882  2.721149
H    -1.542085  -2.654215  2.673552
H    -1.831763  -2.571232  0.955781
H    -3.449043  -0.871918  2.964908
H    -3.887728  -2.535051  2.672706
H    -3.747046  -0.441984  0.411035
H    -5.217042  -0.799173  1.351122
H    -5.123068  -3.079100  0.584808
H    -5.104490  -2.059917  -0.728346
O    2.420571  0.007693  0.883872
H    0.863653  -1.446504  3.791414
Ba    3.395364  2.064707  1.790376
