25
Energy: -238664.293771 eV PBE+vdW (tier 2 basis)
N    -0.414306  -1.387433  1.025811
C    -0.161017  -0.001528  0.622240
C    1.189747  0.184568  -0.065437
O    1.953446  -0.823973  -0.282258
H    -1.254769  -1.179922  6.368562
H    -1.179854  -1.784670  0.483793
H    -0.887902  0.317251  -0.144927
C    -0.327789  0.981273  1.807206
C    0.532218  0.643935  3.045951
C    -0.272757  0.339381  4.323143
C    -0.977663  -1.008481  4.263732
N    -1.828658  -1.221759  5.514466
H    -1.396334  0.974534  2.067267
H    -0.113526  1.998927  1.457444
H    1.191280  1.490292  3.276141
H    1.193733  -0.211384  2.838446
H    -1.010937  1.143859  4.481282
H    0.406646  0.356766  5.190297
H    -0.271202  -1.846149  4.229241
H    -1.647274  -1.106788  3.401665
H    -2.303429  -2.134790  5.502468
H    -2.552801  -0.494862  5.599915
O    1.538551  1.357994  -0.455089
H    0.405279  -1.962848  0.824059
Ba    3.494322  0.539810  -1.678420
