25
Energy: -238664.297606 eV PBE+vdW (tier 2 basis)
N    0.086925  1.756158  1.468483
C    1.140309  0.752830  1.583101
C    1.160316  -0.163348  0.366389
O    1.770760  -1.292071  0.418161
H    -2.410997  0.316137  5.987706
H    0.368116  2.627976  1.915584
H    2.160151  1.196389  1.537493
C    1.075006  0.004016  2.931792
C    -0.307674  -0.564321  3.269829
C    -0.379084  -1.072705  4.716223
C    -1.756983  -1.533113  5.170341
N    -2.724685  -0.356162  5.273804
H    1.366235  0.725252  3.711060
H    1.836334  -0.787679  2.942105
H    -0.562587  -1.386519  2.581364
H    -1.038014  0.241449  3.076250
H    -0.001696  -0.305981  5.414492
H    0.291685  -1.934798  4.848789
H    -1.735849  -1.991894  6.165785
H    -2.217668  -2.239438  4.468198
H    -3.674066  -0.661051  5.527691
H    -2.780483  0.149923  4.378377
O    0.651466  0.245175  -0.740740
H    -0.099464  1.965574  0.487552
Ba    1.749945  -1.536798  -2.034830
