25
Energy: -238664.555189 eV PBE+vdW (tier 2 basis)
N    -0.587126  0.361481  0.013700
C    -0.168041  -0.326636  1.280533
C    1.378794  -0.395589  1.340192
O    2.004506  0.524797  0.669986
H    -0.665133  -0.356569  -0.716253
H    -1.549396  0.692792  0.132666
H    -0.441533  0.362598  2.098297
C    -0.871091  -1.685706  1.516895
C    -1.539092  -1.867906  2.891348
C    -0.641156  -2.061038  4.125376
C    0.163296  -3.372381  4.143394
N    1.632730  -3.131133  3.881648
H    -0.162915  -2.500839  1.305814
H    -1.666831  -1.788060  0.764413
H    -2.214343  -2.733983  2.822757
H    -2.197696  -1.006451  3.082847
H    -1.290736  -2.052883  5.010070
H    0.038429  -1.204344  4.262917
H    -0.179568  -4.071343  3.370589
H    0.090315  -3.885631  5.108055
H    2.087560  -2.714651  4.702953
H    2.132644  -4.002607  3.669664
O    1.951918  -1.249742  2.020790
H    1.753395  -2.442715  3.076005
Ba    1.394072  2.171538  -0.833656
