25
Energy: -238663.024757 eV PBE+vdW (tier 2 basis)
N    0.031135  -0.310756  0.156367
C    0.051756  -0.349350  1.655639
C    1.501856  -0.421722  2.117524
O    2.448846  -0.184351  1.334555
H    -0.178813  -1.264793  -0.164331
H    -0.797786  0.221548  -0.126752
H    -0.304397  0.633654  2.012774
C    -0.872024  -1.444602  2.236633
C    -1.164786  -1.403616  3.747904
C    -1.696608  -0.073648  4.306939
C    -2.931386  0.471307  3.570212
N    -3.903847  -0.593819  3.320318
H    -0.471760  -2.433804  1.960923
H    -1.844882  -1.340601  1.731745
H    -0.316908  -1.772839  4.363368
H    -1.924204  -2.181180  3.909481
H    -0.919624  0.710546  4.324452
H    -1.949807  -0.241511  5.364182
H    -2.639644  0.883977  2.587486
H    -3.321139  1.330217  4.145206
H    -4.305866  -0.929982  4.197652
H    -4.689862  -0.243558  2.772667
O    1.780146  -0.691107  3.358662
H    0.966761  -0.932877  3.869588
Ba    2.493882  0.442371  -0.997841
