25
Energy: -238663.422995 eV PBE+vdW (tier 2 basis)
N    0.963946  -0.250236  0.732388
C    0.236567  -0.449800  2.015466
C    1.238443  -0.891706  3.088329
O    2.463229  -0.721820  2.925588
H    0.853020  -1.115806  0.189276
H    0.378878  0.471759  0.177641
H    -0.084201  0.554233  2.356202
C    -1.023872  -1.335641  1.920978
C    -2.202403  -0.764113  1.109404
C    -2.044931  -0.723456  -0.430443
C    -1.956836  0.670233  -1.057193
N    -0.845023  1.508136  -0.506940
H    -1.413697  -1.511393  2.939261
H    -0.739519  -2.328692  1.534756
H    -2.457109  0.233711  1.501860
H    -3.068465  -1.390934  1.356739
H    -2.913954  -1.214953  -0.887958
H    -1.184969  -1.334413  -0.749785
H    -2.918982  1.189731  -0.937517
H    -1.793332  0.562025  -2.136661
H    -0.545202  2.166579  -1.228701
H    -1.212939  2.102158  0.239626
O    0.843827  -1.407149  4.222584
H    -0.126371  -1.539264  4.255827
Ba    3.639773  0.190837  0.993296
