25
Energy: -238663.638868 eV PBE+vdW (tier 2 basis)
N    -0.363183  0.764606  0.964611
C    -0.650208  0.015965  2.258580
C    0.693029  -0.224718  2.959112
O    0.713304  -0.950266  3.999861
H    -0.238420  0.082076  0.192508
H    -1.122489  1.409136  0.713643
H    -1.202346  0.718504  2.902411
C    -1.512261  -1.232460  2.022589
C    -0.860355  -2.402704  1.270769
C    -0.348221  -2.102477  -0.144735
C    0.025186  -3.355953  -0.954219
N    0.659576  -2.966036  -2.209610
H    -2.429893  -0.907546  1.506092
H    -1.839461  -1.568170  3.015990
H    -1.619408  -3.196597  1.212938
H    -0.044138  -2.826328  1.877396
H    0.578874  -1.494710  -0.130553
H    -1.113415  -1.545957  -0.719800
H    -0.877463  -3.985296  -1.066881
H    0.747458  -3.948563  -0.373074
H    1.213924  -3.730372  -2.592741
H    -0.033176  -2.731812  -2.921296
O    1.741185  0.353549  2.505254
H    0.525772  1.283668  1.068300
Ba    3.137016  -0.565556  4.462073
