25
Energy: -238664.231422 eV PBE+vdW (tier 2 basis)
N    -0.036848  0.748903  0.409293
C    -0.369870  0.332439  1.798111
C    0.885806  0.489374  2.651940
O    2.016713  0.474743  2.147299
H    -0.807926  0.461993  -0.202140
H    -0.041571  1.773410  0.362542
H    -1.161270  0.971834  2.224897
C    -0.898688  -1.127801  1.819451
C    0.009645  -2.204375  1.202748
C    1.076920  -2.815104  2.127166
C    2.170277  -3.578481  1.380147
N    3.235592  -2.655691  0.845634
H    -1.861272  -1.106245  1.287540
H    -1.148990  -1.401910  2.854919
H    0.458843  -1.819299  0.263165
H    -0.633396  -3.018750  0.839932
H    0.574821  -3.512097  2.812693
H    1.548459  -2.063252  2.778746
H    1.745814  -4.125485  0.527170
H    2.629263  -4.326134  2.040906
H    3.855865  -2.435595  1.634900
H    3.833174  -3.210425  0.222272
O    0.783342  0.595530  3.958325
H    -0.140625  0.650492  4.274093
Ba    2.612135  -0.162456  -0.216249
