25
Energy: -238663.516308 eV PBE+vdW (tier 2 basis)
N    -1.189718  -0.054611  0.295237
C    -0.019569  0.190556  1.179598
C    1.269274  0.109300  0.368809
O    1.250572  0.102784  -0.878401
H    -1.513365  -1.013410  0.473953
H    -1.960302  0.567043  0.723440
H    -0.083456  1.251074  1.490954
C    0.008774  -0.676663  2.458590
C    -1.292103  -0.669195  3.277738
C    -1.782717  0.702799  3.795954
C    -3.075756  1.217039  3.161194
N    -2.899668  1.681127  1.751130
H    0.821520  -0.317377  3.114361
H    0.262335  -1.714457  2.187558
H    -1.115144  -1.340101  4.128389
H    -2.096307  -1.157903  2.704737
H    -0.993972  1.470263  3.709730
H    -1.970232  0.623019  4.874910
H    -3.489331  2.024401  3.783252
H    -3.823177  0.411643  3.150516
H    -2.468379  2.609980  1.773514
H    -3.827938  1.842125  1.351121
O    2.437293  0.082844  0.957970
H    2.366240  0.050570  1.934106
Ba    -0.672935  0.158880  -2.375393
