25
Energy: -238664.484621 eV PBE+vdW (tier 2 basis)
N    0.295563  0.941700  0.763507
C    0.234200  0.231836  2.108396
C    1.169736  -0.979496  1.984456
O    1.655850  -1.481382  3.033979
H    -0.588118  1.413173  0.527842
H    1.049860  1.640206  0.723456
H    0.591110  0.925255  2.878748
C    -1.215078  -0.215185  2.387485
C    -1.443040  -0.835523  3.793479
C    -1.960431  -2.286020  3.858606
C    -0.941194  -3.420243  3.694314
N    -0.563629  -3.776613  2.276433
H    -1.533141  -0.902673  1.586680
H    -1.854062  0.675350  2.286208
H    -2.181077  -0.207636  4.306933
H    -0.526098  -0.754629  4.394794
H    -2.801737  -2.435177  3.162062
H    -2.396091  -2.416422  4.859833
H    -1.336520  -4.330567  4.160424
H    -0.026749  -3.154497  4.249388
H    -1.063050  -4.631778  2.018595
H    -0.944931  -3.074100  1.637313
O    1.323357  -1.471447  0.814794
H    0.506468  0.200748  0.061818
Ba    2.170603  -3.719954  1.924445
