25
Energy: -238663.155027 eV PBE+vdW (tier 2 basis)
N    0.118440  -0.078647  0.249001
C    0.047088  -0.083987  1.743501
C    1.453646  0.030560  2.291934
O    2.438395  -0.364296  1.626350
H    -0.746529  -0.514741  -0.089322
H    0.059667  0.891747  -0.080324
H    -0.566561  0.756393  2.107406
C    -0.594928  -1.404705  2.233615
C    -0.907742  -1.475290  3.735878
C    -1.873686  -2.620685  4.092007
C    -3.315206  -2.427054  3.610220
N    -3.430623  -2.487878  2.136187
H    0.047413  -2.255277  1.941018
H    -1.561881  -1.526258  1.700848
H    -1.373085  -0.524546  4.053792
H    0.014605  -1.596613  4.325134
H    -1.890579  -2.721552  5.186107
H    -1.476103  -3.576862  3.712681
H    -3.676790  -1.439087  3.932210
H    -3.955343  -3.170113  4.113979
H    -3.404088  -3.462226  1.827947
H    -4.343363  -2.134435  1.845288
O    1.674933  0.468491  3.504771
H    0.859991  0.753962  3.965534
Ba    2.529714  -1.199356  -0.645688
