25
Energy: -238663.660301 eV PBE+vdW (tier 2 basis)
N    0.916451  -0.998168  0.313827
C    0.403451  -0.701760  1.713380
C    1.543248  -0.961121  2.699765
O    1.415431  -0.543240  3.892956
H    0.108966  -1.175499  -0.317469
H    1.463254  -0.220561  -0.077766
H    0.134927  0.363403  1.746076
C    -0.828592  -1.570691  2.032771
C    -2.114655  -1.194216  1.277750
C    -2.067960  -1.315107  -0.250736
C    -3.446339  -1.204874  -0.931533
N    -3.285646  -1.239361  -2.380551
H    -1.002752  -1.467510  3.112787
H    -0.570005  -2.629348  1.857965
H    -2.417867  -0.174745  1.562463
H    -2.904043  -1.857986  1.661100
H    -1.623510  -2.284032  -0.550622
H    -1.474198  -0.503305  -0.716413
H    -3.899238  -0.243888  -0.648987
H    -4.104905  -1.994680  -0.525429
H    -3.324700  -2.190794  -2.744290
H    -4.022509  -0.716125  -2.849375
O    2.568494  -1.618742  2.308720
H    1.537403  -1.822063  0.349198
Ba    3.587552  -1.482071  4.672799
