25
Energy: -238664.266267 eV PBE+vdW (tier 2 basis)
N    2.073807  -2.718145  2.457223
C    0.841485  -2.185617  1.868370
C    0.987427  -2.188516  0.345806
O    0.645814  -3.246438  -0.305510
H    2.220387  -3.701898  2.236001
H    2.900306  -2.184995  2.186192
H    0.035874  -2.894270  2.109171
C    0.533249  -0.816507  2.485221
C    -0.861555  -0.271871  2.156334
C    -1.224164  1.032838  2.894064
C    -1.437314  0.822920  4.388919
N    -1.856722  2.122666  5.067703
H    1.301156  -0.093033  2.169347
H    0.660817  -0.962445  3.568021
H    -1.627887  -1.033662  2.373773
H    -0.937521  -0.063880  1.079308
H    -2.147626  1.441525  2.453384
H    -0.430825  1.781232  2.731839
H    -0.530621  0.493790  4.909927
H    -2.239017  0.102599  4.595129
H    -2.730305  2.489215  4.663416
H    -2.011360  1.993492  6.077634
O    1.546493  -1.205402  -0.269925
H    -1.138478  2.851912  4.953761
Ba    1.680580  -2.493510  -2.378105
