25
Energy: -238663.429825 eV PBE+vdW (tier 2 basis)
N    0.195541  0.106050  0.571926
C    -0.139427  -0.475175  1.898842
C    1.132121  -0.538859  2.730420
O    2.235081  -0.700367  2.171233
H    -0.715083  0.142709  -0.002351
H    0.390264  1.104667  0.722498
H    -0.900675  0.134655  2.413496
C    -0.659352  -1.936576  1.773005
C    -1.761714  -2.154119  0.728350
C    -3.049771  -1.318502  0.899626
C    -3.404157  -0.526972  -0.358967
N    -2.374706  0.512557  -0.646795
H    -1.010245  -2.254673  2.766155
H    0.192363  -2.602419  1.539844
H    -2.004647  -3.224975  0.753075
H    -1.347804  -1.977535  -0.278001
H    -2.969397  -0.623353  1.751886
H    -3.891631  -1.976986  1.148769
H    -4.405253  -0.083885  -0.258367
H    -3.444593  -1.208118  -1.220151
H    -2.424097  0.771484  -1.634587
H    -2.626577  1.368705  -0.145125
O    1.102456  -0.501763  4.039049
H    0.207799  -0.346855  4.402726
Ba    2.564759  -0.946854  -0.265471
