25
Energy: -238664.367496 eV PBE+vdW (tier 2 basis)
N    -0.267433  -1.350645  3.365242
C    0.216962  -0.977117  2.034604
C    1.211840  0.153298  2.301921
O    0.785916  1.283085  2.740388
H    -5.364018  -1.388684  -1.500890
H    -0.527281  -2.331243  3.431667
H    0.812450  -1.817336  1.651738
C    -0.843729  -0.573861  0.988000
C    -1.763179  -1.739222  0.603064
C    -2.821226  -1.343546  -0.441346
C    -3.709674  -2.527876  -0.797949
N    -4.755155  -2.145981  -1.841871
H    -0.329444  -0.196966  0.088681
H    -1.433794  0.266875  1.386141
H    -2.269809  -2.122942  1.502553
H    -1.155783  -2.569450  0.207658
H    -2.320703  -0.967387  -1.348925
H    -3.438343  -0.519079  -0.047655
H    -4.271001  -2.904507  0.066246
H    -3.141167  -3.359737  -1.232308
H    -4.311322  -1.814206  -2.709923
H    -5.358522  -2.943930  -2.086611
O    2.469413  -0.069421  2.189459
H    -1.044501  -0.769868  3.676871
Ba    3.019501  1.835747  3.615246
