25
Energy: -238662.86834 eV PBE+vdW (tier 2 basis)
N    1.033327  -0.616073  0.385680
C    0.410100  -0.250362  1.695494
C    1.474028  -0.389702  2.774469
O    2.391640  -1.228479  2.652946
H    0.270805  -0.832890  -0.265336
H    1.477099  0.218377  -0.015097
H    0.036131  0.786423  1.675838
C    -0.773487  -1.200890  1.997827
C    -1.525557  -0.937586  3.309574
C    -2.782363  -1.812059  3.448092
C    -3.957263  -1.389121  2.557592
N    -5.004631  -2.398601  2.611534
H    -0.405207  -2.243170  1.989189
H    -1.469886  -1.104640  1.149541
H    -1.814823  0.127029  3.361407
H    -0.865585  -1.135143  4.167982
H    -3.103319  -1.784230  4.499602
H    -2.538492  -2.864937  3.234497
H    -3.636122  -1.314568  1.504424
H    -4.280564  -0.369786  2.853784
H    -5.423368  -2.463791  3.539754
H    -5.757381  -2.200141  1.954212
O    1.433413  0.322318  3.869718
H    0.681829  0.948921  3.897332
Ba    2.986179  -2.625163  0.747913
