25
Energy: -238663.027859 eV PBE+vdW (tier 2 basis)
N    0.344537  1.326365  0.790319
C    0.282291  0.426386  1.987878
C    1.706010  0.086822  2.412168
O    2.685457  0.736622  1.981159
H    0.200609  0.735357  -0.038607
H    -0.489734  1.921663  0.806263
H    -0.120542  1.023210  2.825818
C    -0.646549  -0.795382  1.775622
C    -0.974096  -1.655129  3.007879
C    -1.508827  -0.912345  4.237706
C    -2.229782  -1.882386  5.196129
N    -3.327270  -2.548455  4.497405
H    -0.229432  -1.425561  0.972748
H    -1.596124  -0.388121  1.396083
H    -0.145567  -2.346086  3.280133
H    -1.767017  -2.361599  2.707477
H    -2.232244  -0.146170  3.909507
H    -0.718343  -0.380686  4.795912
H    -2.537837  -1.325441  6.096768
H    -1.516871  -2.648798  5.535079
H    -3.523718  -3.464983  4.894612
H    -4.191466  -2.010849  4.555501
O    1.922557  -0.862065  3.272567
H    1.086813  -1.354109  3.485283
Ba    2.834525  2.620808  0.478069
