25
Energy: -238664.139257 eV PBE+vdW (tier 2 basis)
N    0.798906  0.481920  -0.484130
C    -0.007457  0.140811  0.688525
C    1.037768  0.006498  1.802129
O    1.196644  0.971758  2.628099
H    -2.672416  -2.418588  -0.952408
H    0.300510  1.071833  -1.146561
H    -0.614890  1.019528  0.943590
C    -0.921068  -1.095989  0.550327
C    -1.781351  -1.358296  1.795265
C    -2.631369  -2.639879  1.796663
C    -3.807035  -2.691679  0.825843
N    -3.380454  -3.073748  -0.590849
H    -0.292931  -1.973472  0.321840
H    -1.548522  -0.888800  -0.337701
H    -2.437056  -0.492687  1.980658
H    -1.119464  -1.420168  2.672265
H    -3.075539  -2.754729  2.796146
H    -1.997603  -3.533684  1.664542
H    -4.321226  -1.726039  0.737687
H    -4.542897  -3.449091  1.119980
H    -2.966749  -4.016162  -0.607541
H    -4.179369  -3.073306  -1.240457
O    1.838042  -0.996361  1.802492
H    1.157091  -0.341302  -0.966013
Ba    3.542436  0.377632  2.973607
