25
Energy: -238664.624958 eV PBE+vdW (tier 2 basis)
N    1.272536  0.081535  0.419208
C    0.221232  -0.101595  1.508837
C    0.922689  -0.881545  2.632735
O    0.369152  -0.942531  3.762881
H    1.708751  1.011786  0.452402
H    2.007716  -0.632385  0.624227
H    -0.071599  0.893752  1.862132
C    -1.010478  -0.862858  0.974174
C    -0.831065  -2.385137  0.771615
C    -1.320117  -3.217745  1.977396
C    -0.779205  -4.641977  2.066424
N    0.685564  -4.690123  2.407198
H    -1.323217  -0.372644  0.039473
H    -1.829043  -0.670332  1.681302
H    0.221732  -2.614392  0.535008
H    -1.396406  -2.694146  -0.117017
H    -2.416905  -3.282640  1.928620
H    -1.119875  -2.682147  2.919304
H    -0.969449  -5.187394  1.129482
H    -1.311472  -5.182840  2.859617
H    0.936003  -5.677669  2.526324
H    1.217324  -4.406823  1.576831
O    1.990595  -1.516168  2.324520
H    0.891665  -0.056835  -0.525351
Ba    1.651873  -3.039148  4.452657
