25
Energy: -238662.90271 eV PBE+vdW (tier 2 basis)
N    0.584968  -0.043928  0.169155
C    0.300728  0.067727  1.633394
C    1.600483  0.416404  2.338342
O    2.698122  0.050195  1.864605
H    -0.170930  -0.597402  -0.248506
H    0.482721  0.883717  -0.258238
H    -0.447877  0.853342  1.826648
C    -0.250682  -1.281345  2.167235
C    -0.641864  -1.310585  3.647287
C    -1.331101  -2.628940  4.022568
C    -1.713292  -2.703968  5.508133
N    -2.295249  -4.002004  5.808777
H    0.490415  -2.074289  1.960089
H    -1.139692  -1.511381  1.557126
H    -1.322150  -0.468811  3.865424
H    0.248155  -1.182307  4.284919
H    -0.673858  -3.482193  3.794401
H    -2.236966  -2.757975  3.408114
H    -2.369693  -1.845230  5.757279
H    -0.806286  -2.591326  6.120911
H    -2.259971  -4.224036  6.801287
H    -3.263576  -4.082863  5.501947
O    1.606979  1.057821  3.478852
H    0.712049  1.303956  3.789042
Ba    3.222674  -0.964986  -0.279702
