25
Energy: -238664.25662 eV PBE+vdW (tier 2 basis)
N    0.131331  -0.556637  -0.298713
C    -0.262774  -0.012993  1.030824
C    0.972652  -0.021195  1.929501
O    1.901564  -0.818253  1.737530
H    0.587710  0.191921  -0.831621
H    -0.724572  -0.755167  -0.825184
H    -0.625400  1.024455  0.935349
C    -1.397655  -0.836220  1.701209
C    -1.092800  -2.299478  2.069999
C    -1.271426  -3.331117  0.942245
C    -0.728016  -4.723236  1.266540
N    0.762528  -4.711016  1.473769
H    -2.277063  -0.779177  1.040696
H    -1.690705  -0.293562  2.611149
H    -1.769870  -2.585236  2.887733
H    -0.087040  -2.364364  2.521032
H    -0.827979  -2.980206  -0.011032
H    -2.341756  -3.427116  0.707325
H    -0.941453  -5.402155  0.431923
H    -1.235107  -5.136650  2.150171
H    0.952620  -4.565075  2.470786
H    1.111903  -5.659076  1.302692
O    1.040017  0.780219  2.968146
H    0.292065  1.407455  3.027413
Ba    2.042385  -2.680774  0.047324
