25
Energy: -238664.279403 eV PBE+vdW (tier 2 basis)
N    2.049417  0.422234  1.522620
C    1.148364  -0.710228  1.462377
C    1.206312  -1.529089  0.164753
O    1.695383  -1.002802  -0.898880
H    3.021592  0.133640  1.616426
H    1.983719  1.001724  0.684874
H    1.425924  -1.416575  2.261256
C    -0.321576  -0.255157  1.695273
C    -0.481721  0.583028  2.974137
C    -0.426552  -0.208066  4.293796
C    -1.747597  -0.817573  4.744659
N    -2.700117  0.267052  5.243829
H    -0.975097  -1.141033  1.697327
H    -0.631228  0.361188  0.837232
H    -1.421227  1.159388  2.896356
H    0.320441  1.332166  2.982670
H    -0.027003  0.422207  5.104766
H    0.289278  -1.039144  4.213687
H    -1.624737  -1.512734  5.583448
H    -2.278051  -1.334843  3.935174
H    -2.310952  0.744937  6.068990
H    -2.853340  0.983314  4.519519
O    0.774378  -2.740148  0.152816
H    -3.617710  -0.116455  5.508269
Ba    1.535101  -3.099030  -2.167373
