25
Energy: -238664.53225 eV PBE+vdW (tier 2 basis)
N    -0.785897  0.719980  0.206415
C    -0.430831  -0.110079  1.406078
C    1.073740  0.103677  1.723464
O    1.520494  1.295468  1.462178
H    -0.541652  0.180926  -0.632670
H    -1.806533  0.797781  0.160265
H    -0.964882  0.351164  2.255000
C    -0.856736  -1.591128  1.297678
C    -1.478862  -2.204764  2.570647
C    -0.649918  -2.271002  3.866365
C    0.358503  -3.407040  4.010695
N    1.497651  -3.330415  3.005667
H    -0.006668  -2.178853  0.920488
H    -1.627596  -1.665549  0.516311
H    -1.839421  -3.214206  2.318791
H    -2.389345  -1.629581  2.798181
H    -1.352387  -2.418590  4.699906
H    -0.151714  -1.313434  4.079714
H    -0.112148  -4.390968  3.895218
H    0.820103  -3.370283  5.003767
H    2.374046  -3.684689  3.404759
H    1.300520  -3.894328  2.172691
O    1.767702  -0.790812  2.213519
H    1.639740  -2.319815  2.685295
Ba    0.760093  3.084536  0.210577
