25
Energy: -238664.329366 eV PBE+vdW (tier 2 basis)
N    -0.485905  0.717103  3.504670
C    -0.609851  -0.387330  2.494795
C    0.847357  -0.406179  2.012553
O    1.676847  -1.098984  2.689738
H    -3.565242  -3.945820  -2.175195
H    -0.949297  0.462608  4.377325
H    -0.809451  -1.322858  3.032222
C    -1.659529  -0.128133  1.417149
C    -1.767359  -1.261397  0.383644
C    -2.801578  -0.941560  -0.706623
C    -2.898067  -1.948892  -1.844544
N    -3.501015  -3.278521  -1.393569
H    -1.405742  0.808757  0.895865
H    -2.634409  0.024934  1.905927
H    -2.022814  -2.197201  0.912305
H    -0.784746  -1.424908  -0.087907
H    -2.539942  0.014535  -1.185144
H    -3.799695  -0.780115  -0.265858
H    -1.917539  -2.194344  -2.271885
H    -3.549029  -1.589352  -2.650111
H    -2.935802  -3.719106  -0.655092
H    -4.451618  -3.146791  -1.019860
O    1.234566  0.541670  1.251099
H    -0.949072  1.559232  3.157263
Ba    2.670934  1.096650  3.235232
