25
Energy: -238664.621973 eV PBE+vdW (tier 2 basis)
N    -0.132850  -1.131969  -0.658213
C    -0.366750  -0.403515  0.661340
C    1.004923  -0.310469  1.345236
O    1.933420  -1.081950  0.927469
H    -0.091034  -0.486535  -1.457054
H    0.800937  -1.590030  -0.557422
H    -0.729959  0.604712  0.428704
C    -1.386377  -1.135939  1.550135
C    -1.016128  -2.582567  1.973464
C    -0.970901  -2.819825  3.495821
C    0.167614  -2.128626  4.249514
N    1.543768  -2.625138  3.878166
H    -2.358064  -1.119008  1.035733
H    -1.521671  -0.490142  2.429011
H    -0.056562  -2.891647  1.521865
H    -1.754668  -3.278794  1.555864
H    -0.922873  -3.902955  3.685351
H    -1.920000  -2.483543  3.939659
H    0.036811  -2.278356  5.327842
H    0.127625  -1.041809  4.080862
H    1.842884  -3.301381  4.585916
H    1.465811  -3.184973  3.022069
O    1.119895  0.463681  2.335388
H    -0.853204  -1.837195  -0.857699
Ba    3.272354  -0.581027  3.182979
