25
Energy: -238664.056774 eV PBE+vdW (tier 2 basis)
N    1.594300  -0.653136  -1.159098
C    0.615045  -0.161699  -0.196046
C    1.374046  0.463817  0.969464
O    2.418450  1.163049  0.689484
H    -2.331845  -3.107285  2.630556
H    2.320651  0.043661  -1.323712
H    -0.001899  0.687329  -0.578859
C    -0.355639  -1.298939  0.175562
C    -1.643192  -0.873607  0.908846
C    -2.911150  -1.595849  0.417733
C    -2.951218  -3.107886  0.596017
N    -3.100804  -3.493302  2.066392
H    0.200776  -2.068493  0.729128
H    -0.626958  -1.761732  -0.786818
H    -1.821045  0.200891  0.754681
H    -1.514489  -0.971606  1.999377
H    -3.028146  -1.421443  -0.662653
H    -3.809566  -1.151393  0.877195
H    -2.038989  -3.606376  0.245223
H    -3.810602  -3.556920  0.084520
H    -3.981729  -3.126530  2.453458
H    -3.105179  -4.514604  2.193882
O    0.990850  0.337501  2.185636
H    1.153810  -0.850996  -2.057337
Ba    2.941520  1.700549  2.989365
