25
Energy: -238664.223134 eV PBE+vdW (tier 2 basis)
N    -0.249353  1.008811  0.369985
C    0.150793  0.092963  1.429125
C    1.672700  0.152196  1.557456
O    2.403027  0.133152  0.502721
H    -4.374089  -2.862936  -1.615441
H    -0.046539  0.658379  -0.564492
H    -0.240331  0.490567  2.376808
C    -0.278869  -1.395120  1.319883
C    -1.799348  -1.634763  1.422335
C    -2.546646  -1.673515  0.075823
C    -4.019018  -1.997376  0.295006
N    -4.773291  -2.118940  -1.025823
H    0.207175  -1.946666  2.138460
H    0.118412  -1.818296  0.383507
H    -2.251028  -0.869039  2.073703
H    -1.964245  -2.595658  1.931606
H    -2.089214  -2.443302  -0.567658
H    -2.445494  -0.711323  -0.450212
H    -4.538647  -1.219803  0.868799
H    -4.158351  -2.956939  0.808892
H    -5.767733  -2.341567  -0.876101
H    -4.729044  -1.243305  -1.565595
O    2.208573  0.234652  2.720702
H    -1.223063  1.291274  0.438744
Ba    4.420622  0.722553  1.785769
