25
Energy: -238664.340917 eV PBE+vdW (tier 2 basis)
N    -0.888243  -0.758902  1.132324
C    0.442795  -0.505674  1.664578
C    1.586742  -0.543935  0.641350
O    2.698406  0.036658  0.921475
H    -2.862502  0.751506  5.902421
H    -1.087830  -0.149323  0.338389
H    0.462132  0.515862  2.080394
C    0.811345  -1.503744  2.792204
C    -0.267549  -1.781001  3.850884
C    -0.823226  -0.559717  4.622866
C    -2.188746  -0.143399  4.093076
N    -2.768270  1.009771  4.909572
H    1.727243  -1.138582  3.277621
H    1.067936  -2.472487  2.334107
H    0.178328  -2.472352  4.577569
H    -1.102168  -2.333231  3.396344
H    -0.117492  0.285395  4.570089
H    -0.914621  -0.822410  5.688111
H    -2.918478  -0.958459  4.176077
H    -2.151666  0.175350  3.043360
H    -3.700398  1.284761  4.570583
H    -2.163369  1.841238  4.868630
O    1.436761  -1.168219  -0.468944
H    -0.965295  -1.714310  0.778081
Ba    3.748166  -0.675797  -1.187162
