25
Energy: -238664.357703 eV PBE+vdW (tier 2 basis)
N    0.417736  -2.814129  2.677910
C    0.039608  -2.051892  1.500838
C    1.000024  -2.157898  0.310380
O    2.166825  -2.669573  0.463220
H    1.422591  -2.754563  2.847084
H    0.191791  -3.802485  2.579423
H    -0.919261  -2.442088  1.121557
C    -0.193833  -0.564847  1.880784
C    -1.457695  -0.435407  2.741639
C    -1.672705  0.927959  3.424393
C    -0.798478  1.105615  4.658865
N    -1.148089  2.400258  5.387735
H    -0.288557  0.047322  0.972371
H    0.702351  -0.216402  2.420393
H    -1.448217  -1.230025  3.503191
H    -2.334065  -0.626578  2.106305
H    -2.730325  0.996235  3.726872
H    -1.491899  1.748716  2.710566
H    0.271466  1.169345  4.427666
H    -0.949672  0.299290  5.387386
H    -2.135804  2.401392  5.680378
H    -0.573330  2.535124  6.231173
O    0.614475  -1.755262  -0.849219
H    -1.010853  3.220340  4.780455
Ba    2.592914  -2.674447  -1.966367
