25
Energy: -238664.418481 eV PBE+vdW (tier 2 basis)
N    1.410479  0.270105  1.491265
C    0.860413  -1.066400  1.322304
C    1.097900  -1.700005  -0.059575
O    1.503002  -0.976785  -1.038066
H    2.429815  0.251517  1.512978
H    1.150158  0.870984  0.707064
H    1.366391  -1.740561  2.033110
C    -0.653466  -1.113360  1.645856
C    -1.000712  -0.829136  3.121030
C    -0.960854  0.656316  3.515206
C    -1.125365  0.937390  4.998421
N    -2.515409  0.552322  5.513960
H    -1.023642  -2.114713  1.388969
H    -1.184290  -0.402684  0.991146
H    -0.311289  -1.399139  3.766023
H    -2.005893  -1.250429  3.298135
H    -1.705319  1.231813  2.939460
H    0.019346  1.066034  3.227524
H    -1.012042  2.003137  5.229229
H    -0.415697  0.369268  5.613486
H    -2.614398  0.746412  6.519824
H    -3.249688  1.078445  5.020389
O    0.897996  -2.960164  -0.218620
H    -2.701912  -0.449071  5.368670
Ba    1.703475  -2.928296  -2.537790
