25
Energy: -238662.953736 eV PBE+vdW (tier 2 basis)
N    -0.730800  1.586379  0.603312
C    -0.302632  0.560328  1.604118
C    1.133272  0.862261  2.016276
O    1.636050  1.989220  1.820341
H    -1.753594  1.651349  0.660478
H    -0.565190  1.194435  -0.332403
H    -0.898651  0.746231  2.517408
C    -0.551465  -0.899473  1.170451
C    -2.016002  -1.191913  0.799125
C    -3.032077  -0.784958  1.867538
C    -4.477761  -1.169952  1.518326
N    -5.403371  -0.537896  2.453266
H    -0.282198  -1.562982  2.011923
H    0.118411  -1.157729  0.334176
H    -2.088460  -2.270795  0.599803
H    -2.263577  -0.711014  -0.162281
H    -3.040472  0.309535  2.032030
H    -2.760167  -1.234139  2.838070
H    -4.551098  -2.273323  1.472645
H    -4.713752  -0.800877  0.508566
H    -6.353919  -0.540977  2.085773
H    -5.436094  -1.036693  3.342946
O    1.860215  -0.030684  2.630727
H    1.406585  -0.896084  2.709748
Ba    0.710202  3.995142  0.813126
