25
Energy: -238664.127578 eV PBE+vdW (tier 2 basis)
N    -0.664730  1.234323  0.515384
C    -0.320089  0.007535  1.220503
C    1.061531  0.177868  1.848161
O    1.427152  1.353303  2.215529
H    -2.001451  -4.496507  -0.772080
H    -0.413995  2.055523  1.065621
H    -0.969401  -0.196110  2.106795
C    -0.407139  -1.201244  0.258913
C    -0.706217  -2.557636  0.917839
C    -2.173018  -2.763689  1.341324
C    -3.162259  -3.007166  0.207382
N    -2.962613  -4.385053  -0.420096
H    0.526364  -1.266556  -0.314632
H    -1.180837  -0.951460  -0.483615
H    -0.067784  -2.689914  1.801595
H    -0.383654  -3.362045  0.232591
H    -2.540968  -1.876127  1.878362
H    -2.252217  -3.585587  2.071395
H    -3.057729  -2.287465  -0.614103
H    -4.201509  -2.987858  0.555510
H    -3.126750  -5.132229  0.269287
H    -3.605813  -4.541270  -1.208458
O    1.840088  -0.826032  2.025298
H    -1.664082  1.284144  0.321864
Ba    3.667126  0.640253  2.867632
