25
Energy: -238664.396307 eV PBE+vdW (tier 2 basis)
N    2.260791  -2.829806  1.546498
C    0.906488  -2.182678  1.590983
C    0.856318  -1.682187  0.141348
O    0.433675  -2.499523  -0.742465
H    2.240549  -3.739603  2.008090
H    2.936010  -2.254367  2.053855
H    0.154903  -2.973243  1.707822
C    0.753761  -1.114742  2.671790
C    -0.647183  -0.484735  2.683962
C    -0.820487  0.543604  3.815057
C    -2.225320  1.132438  3.813809
N    -2.407590  2.138254  4.946105
H    1.511891  -0.331891  2.509571
H    0.963811  -1.577567  3.648851
H    -1.405203  -1.276560  2.793274
H    -0.840790  0.003573  1.715726
H    -0.077604  1.349633  3.698388
H    -0.622171  0.058472  4.785071
H    -2.997789  0.367784  3.963560
H    -2.449914  1.676436  2.887888
H    -2.252530  1.699279  5.864880
H    -1.741546  2.919520  4.864109
O    1.585843  -0.682720  -0.170382
H    -3.356656  2.538457  4.949886
Ba    2.752742  -2.414832  -1.570672
