25
Energy: -238663.001211 eV PBE+vdW (tier 2 basis)
N    0.483863  -0.887092  -0.362228
C    -0.014460  -0.420789  0.970064
C    1.134200  -0.467339  1.966612
O    2.136010  -1.188937  1.761849
H    0.715556  -0.062601  -0.927346
H    -0.309541  -1.309939  -0.856043
H    -0.367727  0.619630  0.899578
C    -1.199122  -1.307599  1.443399
C    -1.789646  -0.976668  2.822407
C    -2.200534  0.486027  3.020663
C    -2.844090  0.768722  4.385393
N    -2.917913  2.208887  4.606191
H    -0.878221  -2.362930  1.422884
H    -1.981003  -1.192463  0.675624
H    -1.098294  -1.292408  3.620366
H    -2.675903  -1.615409  2.948601
H    -2.880057  0.801933  2.211363
H    -1.350307  1.202082  2.945201
H    -2.211976  0.337135  5.176375
H    -3.814017  0.238072  4.436850
H    -3.706601  2.626799  4.111715
H    -3.049205  2.422612  5.593823
O    1.082831  0.220384  3.069677
H    0.238833  0.731256  3.157214
Ba    2.800036  -2.498139  -0.160137
