25
Energy: -238664.636359 eV PBE+vdW (tier 2 basis)
N    0.544610  0.461466  0.382395
C    -0.261763  -0.007113  1.556578
C    0.699447  -0.352498  2.728201
O    1.751526  0.408468  2.802014
H    0.914922  -0.360893  -0.107067
H    -0.093051  0.890536  -0.295495
H    -0.815993  0.878808  1.911394
C    -1.290499  -1.105197  1.264213
C    -0.701654  -2.478397  0.887354
C    -1.569434  -3.683382  1.298481
C    -1.948442  -3.778610  2.775647
N    -0.746264  -3.678714  3.690204
H    -1.978497  -0.757039  0.479873
H    -1.908350  -1.180370  2.169764
H    0.301707  -2.592865  1.328800
H    -0.550939  -2.544863  -0.199306
H    -1.058691  -4.608929  0.992561
H    -2.518608  -3.674283  0.742275
H    -2.445200  -4.733156  2.984465
H    -2.626754  -2.976524  3.090088
H    -1.017363  -3.817977  4.671344
H    -0.043582  -4.393958  3.466180
O    0.441717  -1.249263  3.534898
H    -0.289577  -2.718261  3.613449
Ba    2.698009  1.983754  1.393305
