25
Energy: -238664.347969 eV PBE+vdW (tier 2 basis)
N    -1.254174  0.309501  0.852403
C    -0.069913  -0.388705  1.342922
C    1.238549  0.411562  1.257247
O    1.287145  1.500104  0.582296
H    -2.215124  -4.071889  -0.962541
H    -1.036620  0.795755  -0.020053
H    -0.199752  -0.589829  2.419405
C    0.094568  -1.751071  0.622192
C    -0.741289  -2.898010  1.222015
C    -2.253137  -2.674805  1.402462
C    -3.068363  -2.459064  0.137491
N    -3.151243  -3.736086  -0.698942
H    1.145880  -2.067125  0.661543
H    -0.140497  -1.591349  -0.442724
H    -0.334671  -3.140555  2.214803
H    -0.548081  -3.807944  0.625445
H    -2.432376  -1.783101  2.017081
H    -2.678469  -3.515337  1.975343
H    -2.640256  -1.683717  -0.507995
H    -4.105817  -2.187220  0.364014
H    -3.609110  -4.492332  -0.170814
H    -3.688576  -3.591392  -1.564316
O    2.276849  -0.018149  1.881208
H    -1.550796  1.034287  1.506730
Ba    3.613273  1.959473  1.306785
