25
Energy: -238664.335578 eV PBE+vdW (tier 2 basis)
N    1.411533  -2.693210  2.426944
C    0.448372  -2.047219  1.558482
C    0.919426  -1.811982  0.117337
O    0.062306  -1.510485  -0.793743
H    2.345241  -2.297770  2.315012
H    1.481150  -3.693220  2.249358
H    -0.432852  -2.703367  1.464751
C    -0.042142  -0.714345  2.192470
C    -0.744431  -0.998682  3.527388
C    -0.950105  0.206135  4.460018
C    -1.983750  1.201975  3.952344
N    -2.248427  2.279659  5.001274
H    -0.701757  -0.197533  1.479978
H    0.837261  -0.069338  2.358292
H    -0.128860  -1.728792  4.070571
H    -1.713801  -1.489071  3.342359
H    0.012803  0.717731  4.624502
H    -1.277552  -0.178371  5.440103
H    -2.954184  0.728092  3.757324
H    -1.664779  1.733499  3.047664
H    -2.948359  2.965324  4.685530
H    -2.594114  1.861232  5.876915
O    2.160060  -1.949535  -0.182636
H    -1.386690  2.794164  5.231702
Ba    1.718650  -1.785893  -2.591939
