25
Energy: -238662.901811 eV PBE+vdW (tier 2 basis)
N    0.883705  0.310302  0.425666
C    0.312625  0.111629  1.798208
C    1.467323  -0.149826  2.762137
O    2.650662  0.091159  2.434105
H    0.806003  -0.587884  -0.068143
H    0.245416  0.923922  -0.090641
H    -0.103384  1.084164  2.118716
C    -0.829946  -0.933271  1.829015
C    -1.662577  -1.019039  3.120964
C    -2.975671  -1.784928  2.897491
C    -3.800932  -1.961583  4.181635
N    -5.004186  -2.724150  3.894412
H    -0.423882  -1.925285  1.572278
H    -1.514035  -0.656057  1.012417
H    -1.884213  -0.009272  3.505390
H    -1.125176  -1.570281  3.921891
H    -2.769393  -2.780727  2.478124
H    -3.576566  -1.245358  2.147572
H    -3.991752  -0.966552  4.632963
H    -3.208651  -2.528588  4.915704
H    -5.380485  -3.186325  4.718868
H    -5.744447  -2.158956  3.481915
O    1.238448  -0.582737  3.968710
H    0.281246  -0.790729  4.108561
Ba    3.629801  1.008127  0.424003
