25
Energy: -238662.990424 eV PBE+vdW (tier 2 basis)
N    -0.126791  1.008335  -0.597936
C    -0.491396  0.846127  0.840947
C    0.245132  1.903906  1.644181
O    1.337314  2.358195  1.245400
H    -0.355422  0.118801  -1.061379
H    -0.763707  1.690086  -1.026132
H    -1.578959  0.955340  0.987438
C    -0.052419  -0.548174  1.369224
C    -0.945427  -1.723304  0.955096
C    -1.051828  -2.056182  -0.537571
C    -1.599241  -3.487572  -0.747462
N    -0.701024  -4.466520  -0.139901
H    -0.014055  -0.507567  2.468286
H    0.991040  -0.722559  1.042829
H    -1.952531  -1.576003  1.376363
H    -0.532394  -2.620009  1.444754
H    -0.051316  -2.013753  -1.011587
H    -1.717553  -1.357643  -1.076352
H    -1.769573  -3.649335  -1.824135
H    -2.584940  -3.555504  -0.265316
H    -1.212071  -5.239725  0.280126
H    -0.062446  -4.871169  -0.822346
O    -0.201675  2.311284  2.803782
H    -1.070609  1.931130  3.045124
Ba    2.518386  1.885630  -0.836701
