25
Energy: -238662.914586 eV PBE+vdW (tier 2 basis)
N    -0.303832  0.310666  0.638231
C    0.013157  0.111148  2.088236
C    1.526823  0.261081  2.258344
O    2.217465  0.806764  1.373533
H    -0.313793  -0.623609  0.208450
H    -1.292912  0.589163  0.590159
H    -0.400570  0.983165  2.630139
C    -0.607384  -1.167271  2.694678
C    -2.100095  -1.053695  3.050106
C    -3.044530  -0.682454  1.903747
C    -4.533588  -0.754102  2.279386
N    -5.347564  -0.285301  1.160012
H    -0.073899  -1.446449  3.619707
H    -0.429057  -2.003807  1.997707
H    -2.215804  -0.330327  3.873455
H    -2.401484  -2.026765  3.465420
H    -2.871649  -1.339624  1.032887
H    -2.886376  0.359822  1.566133
H    -4.714459  -0.095693  3.141289
H    -4.770333  -1.780950  2.614377
H    -5.567861  -1.044164  0.515231
H    -6.239733  0.083971  1.484589
O    2.127330  -0.114613  3.353578
H    1.523153  -0.562825  3.982001
Ba    1.582700  1.832948  -0.743694
