25
Energy: -238664.30922 eV PBE+vdW (tier 2 basis)
N    0.299662  0.327021  -0.009628
C    -0.203320  0.420027  1.361656
C    0.944070  1.066305  2.141918
O    0.847379  2.286009  2.522700
H    -4.714688  -1.993461  0.999088
H    -0.434262  0.383423  -0.710398
H    -1.021436  1.153651  1.365627
C    -0.669211  -0.891747  2.028447
C    -1.892338  -1.523147  1.349041
C    -2.278665  -2.864778  1.990053
C    -3.389249  -3.636057  1.290069
N    -4.741968  -2.935857  1.411553
H    -0.898061  -0.693004  3.088288
H    0.169124  -1.606307  2.021667
H    -1.678057  -1.682381  0.279781
H    -2.730604  -0.804069  1.398551
H    -2.530433  -2.733712  3.055898
H    -1.406596  -3.536485  1.981390
H    -3.532641  -4.631958  1.725601
H    -3.206990  -3.748581  0.213729
H    -5.484525  -3.464740  0.933196
H    -5.018762  -2.834224  2.398138
O    2.033242  0.409369  2.320651
H    0.862241  -0.507601  -0.167803
Ba    3.273085  2.480303  2.801787
