25
Energy: -238664.640193 eV PBE+vdW (tier 2 basis)
N    0.765234  -0.113630  0.094713
C    0.159155  -0.104534  1.490365
C    1.294135  -0.501652  2.448747
O    1.246350  -0.083929  3.639757
H    1.490277  -0.859758  0.099574
H    0.065788  -0.309318  -0.634467
H    -0.169426  0.917119  1.713655
C    -1.035450  -1.087356  1.521670
C    -1.538510  -1.440746  2.933661
C    -0.741365  -2.586508  3.595644
C    -0.567573  -2.436833  5.108154
N    0.643369  -3.187397  5.577455
H    -0.751552  -2.013556  0.994611
H    -1.849291  -0.625451  0.943803
H    -2.595291  -1.722902  2.855891
H    -1.514458  -0.542036  3.566698
H    0.254488  -2.661033  3.124171
H    -1.217963  -3.550806  3.365629
H    -1.470531  -2.770097  5.639601
H    -0.417579  -1.378694  5.366449
H    0.634955  -3.207826  6.603104
H    0.539004  -4.173610  5.314437
O    2.188068  -1.295833  2.003451
H    1.228070  0.775215  -0.138981
Ba    2.865097  -1.845830  4.519206
