25
Energy: -238662.945948 eV PBE+vdW (tier 2 basis)
N    1.013605  0.154001  0.511379
C    0.595356  -0.354507  1.857133
C    1.815915  -0.947434  2.551127
O    2.970653  -0.757718  2.108411
H    0.762150  -0.566068  -0.177911
H    0.400086  0.939612  0.272435
H    0.330203  0.524209  2.472662
C    -0.644234  -1.281833  1.788423
C    -1.309802  -1.659025  3.127199
C    -1.606789  -0.484507  4.065073
C    -2.391785  -0.891079  5.322435
N    -2.506448  0.250650  6.222753
H    -0.381654  -2.191986  1.224960
H    -1.387912  -0.739191  1.185441
H    -0.748098  -2.460757  3.652722
H    -2.248506  -2.174074  2.872489
H    -2.175592  0.285115  3.516551
H    -0.686035  0.013613  4.419692
H    -1.839634  -1.684802  5.848943
H    -3.357595  -1.336048  5.014559
H    -3.273892  0.866164  5.953251
H    -2.696767  -0.050569  7.177105
O    1.684216  -1.621662  3.655320
H    0.734567  -1.758942  3.891925
Ba    3.798423  0.586977  0.279275
