25
Energy: -238664.467962 eV PBE+vdW (tier 2 basis)
N    0.835033  0.051982  0.368251
C    -0.070054  -0.340584  1.530223
C    0.835798  -1.009276  2.569615
O    0.384028  -1.149977  3.739391
H    0.403498  -0.116265  -0.549415
H    1.114738  1.040104  0.411627
H    -0.482886  0.580872  1.958251
C    -1.227071  -1.249472  1.070551
C    -0.875865  -2.546668  0.293526
C    -1.033862  -3.910608  0.998340
C    0.096936  -4.378890  1.932270
N    -0.087816  -4.101781  3.397472
H    -1.887771  -0.623444  0.453075
H    -1.818557  -1.467394  1.970936
H    0.141428  -2.500406  -0.132435
H    -1.539326  -2.576159  -0.580236
H    -1.112511  -4.660363  0.198801
H    -1.999034  -3.959278  1.527240
H    1.045986  -3.926247  1.596770
H    0.228972  -5.462471  1.832065
H    -0.788427  -3.364243  3.520844
H    -0.505504  -4.927262  3.833654
O    1.970609  -1.447735  2.179943
H    1.692234  -0.534419  0.474277
Ba    2.145426  -2.871014  4.421961
