25
Energy: -238664.418746 eV PBE+vdW (tier 2 basis)
N    0.683703  -1.657553  2.591351
C    0.190734  -0.861587  1.469829
C    1.046148  -0.948871  0.194913
O    2.233530  -1.429540  0.241103
H    -0.616044  -0.802435  6.485362
H    0.734677  -2.645027  2.335324
H    -0.798946  -1.248368  1.174583
C    0.023955  0.628808  1.848570
C    -1.178312  1.009187  2.730893
C    -1.111940  0.698779  4.242299
C    -1.583133  -0.703095  4.596348
N    -1.568174  -0.907002  6.108562
H    -0.083040  1.195288  0.913413
H    0.959503  0.979151  2.315995
H    -2.102181  0.587812  2.302965
H    -1.293351  2.097892  2.642823
H    -1.743228  1.434538  4.766232
H    -0.081369  0.848919  4.603825
H    -0.915326  -1.461804  4.161578
H    -2.618043  -0.884673  4.280364
H    -1.905249  -1.843208  6.370507
H    -2.163018  -0.215812  6.587623
O    0.551951  -0.530945  -0.915394
H    1.642338  -1.383251  2.817462
Ba    2.557816  -1.112202  -2.199528
