25
Energy: -238663.731574 eV PBE+vdW (tier 2 basis)
N    1.172030  -0.349003  0.468485
C    0.634371  -0.273495  1.894065
C    1.586600  -1.081833  2.768386
O    1.539771  -0.937835  4.029745
H    0.394460  -0.352566  -0.206451
H    1.799606  0.430991  0.234733
H    0.642899  0.779589  2.204099
C    -0.803049  -0.821723  1.908405
C    -1.595023  -0.521644  3.189764
C    -3.103235  -0.769881  3.012380
C    -3.830168  0.245986  2.123382
N    -3.412695  0.160910  0.705901
H    -0.787965  -1.905304  1.703559
H    -1.365091  -0.338859  1.080374
H    -1.437743  0.531726  3.474974
H    -1.217153  -1.124013  4.028451
H    -3.571422  -0.741519  4.006406
H    -3.276687  -1.790489  2.631429
H    -3.601749  1.263043  2.475761
H    -4.916876  0.109368  2.252632
H    -3.761891  0.973253  0.195168
H    -3.855627  -0.648042  0.264351
O    2.372867  -1.928312  2.206282
H    1.714304  -1.230203  0.388822
Ba    3.247085  -2.683885  4.502370
