25
Energy: -238662.93464 eV PBE+vdW (tier 2 basis)
N    1.336003  -0.523143  0.406237
C    1.014819  -0.810343  1.841411
C    1.901097  -1.972661  2.294251
O    2.917579  -2.295816  1.644427
H    0.655911  -1.050613  -0.157138
H    1.061870  0.449960  0.228515
H    1.376126  0.052259  2.432212
C    -0.490009  -0.991904  2.129418
C    -1.346374  0.277527  2.026981
C    -1.541252  0.901733  0.639229
C    -2.789330  1.812550  0.612040
N    -3.984523  1.036517  0.928211
H    -0.614423  -1.369717  3.160444
H    -0.885905  -1.785352  1.472141
H    -0.964690  1.033770  2.732293
H    -2.354993  0.007101  2.377426
H    -1.679569  0.110958  -0.119962
H    -0.674483  1.513244  0.326012
H    -2.830576  2.327328  -0.362946
H    -2.669057  2.597638  1.372655
H    -4.690513  1.602991  1.393343
H    -4.418066  0.648250  0.091817
O    1.650634  -2.624155  3.395166
H    0.813590  -2.336832  3.818397
Ba    3.891991  -1.363425  -0.374864
