25
Energy: -238663.431961 eV PBE+vdW (tier 2 basis)
N    -1.501989  0.454279  0.119761
C    -0.827358  0.248224  1.472972
C    0.661849  0.538884  1.261114
O    1.398880  0.756337  2.269083
H    -2.267106  -0.219609  -0.021315
H    -1.886916  1.401159  0.006194
H    -1.247266  0.979757  2.175617
C    -1.100705  -1.187036  1.964323
C    -0.650525  -1.463584  3.406743
C    -1.153587  -2.817423  3.925826
C    -0.528624  -4.042406  3.248099
N    -1.105224  -5.258897  3.799561
H    -0.644640  -1.902168  1.261211
H    -2.192996  -1.337989  1.912902
H    -1.031963  -0.662733  4.058262
H    0.446844  -1.421063  3.476474
H    -2.248671  -2.881378  3.833972
H    -0.940390  -2.862107  5.004545
H    0.579478  -3.968708  3.332789
H    -0.757576  -4.040140  2.169353
H    -0.821262  -6.086616  3.278530
H    -0.831603  -5.403300  4.771526
O    1.122295  0.518916  0.064735
H    -0.772581  0.314543  -0.607278
Ba    3.512791  0.958187  0.958147
