25
Energy: -238664.699952 eV PBE+vdW (tier 2 basis)
N    1.446346  -0.839856  0.619453
C    0.524040  -0.272891  1.632084
C    1.271819  0.359919  2.809612
O    0.605227  1.036050  3.667785
H    0.854861  -2.203271  -0.074913
H    1.661396  -0.135535  -0.089417
H    -0.043020  0.548824  1.170145
C    -0.511710  -1.307277  2.128773
C    0.061441  -2.625640  2.708580
C    -0.237365  -3.905852  1.905849
C    0.641144  -4.203067  0.695320
N    0.484918  -3.191660  -0.415879
H    -1.195387  -1.516639  1.292637
H    -1.134042  -0.803940  2.879204
H    -0.367792  -2.772384  3.707533
H    1.149445  -2.547915  2.871868
H    -1.299579  -3.923619  1.610701
H    -0.112529  -4.773408  2.569952
H    0.402342  -5.189612  0.280261
H    1.706774  -4.199125  0.961577
H    1.019676  -3.474741  -1.245304
H    -0.497013  -3.110978  -0.704658
O    2.539395  0.212343  2.922879
H    2.343514  -1.044848  1.072637
Ba    2.596619  1.741600  4.928991
