25
Energy: -238664.206096 eV PBE+vdW (tier 2 basis)
N    -1.124737  -0.425031  3.020119
C    -0.141391  -0.393808  1.939973
C    0.805722  0.757835  2.291176
O    0.351824  1.958521  2.334329
H    -4.165498  -1.938616  -2.214338
H    -1.499958  -1.350842  3.202991
H    0.462041  -1.308616  2.020268
C    -0.646962  -0.251262  0.485840
C    -1.434153  -1.466015  -0.050464
C    -2.946004  -1.427124  0.225004
C    -3.721401  -2.646958  -0.257008
N    -3.724901  -2.762038  -1.780625
H    0.232159  -0.100516  -0.158979
H    -1.248127  0.667332  0.397560
H    -1.007211  -2.394658  0.363582
H    -1.254399  -1.511475  -1.138566
H    -3.392189  -0.511472  -0.197957
H    -3.134304  -1.368325  1.306167
H    -4.776198  -2.606252  0.039061
H    -3.291267  -3.587435  0.110511
H    -2.767424  -2.832119  -2.152121
H    -4.243377  -3.594130  -2.094601
O    2.022281  0.507548  2.607377
H    -1.875334  0.253169  2.908349
Ba    2.345808  2.744283  3.551355
