15
Energy: -98048.0457804 eV PBE+vdW (tier 2 basis)
N    -0.341257  -0.174078  -0.099021
C    -0.143698  -0.066045  1.313190
C    1.280113  0.128509  1.821340
O    1.611898  -0.260642  2.990116
H    -0.413270  0.714481  -0.587325
H    0.311709  -0.786462  -0.583268
H    -0.679259  0.830224  1.678900
C    -0.774255  -1.312286  2.004144
O    -0.547188  -1.341559  3.438967
H    -0.350371  -2.222018  1.551280
H    -1.847975  -1.285423  1.780643
H    0.730017  -0.761278  3.389969
O    2.140145  0.688845  1.039225
H    3.025160  0.786018  1.459627
Sr    -1.509570  -2.124082  5.221997
