15
Energy: -98049.7866056 eV PBE+vdW (tier 2 basis)
N    -0.712018  -0.889323  0.144760
C    0.022151  -0.162305  1.219000
C    1.433783  -0.750109  1.293984
O    1.642870  -1.953167  1.066208
H    -1.681104  -0.552698  0.123849
H    -0.327101  -0.623856  -0.768612
H    0.090049  0.922663  1.046846
C    -0.698096  -0.378241  2.556810
O    -0.877444  -1.818712  2.748023
H    -1.683469  0.109386  2.530363
H    -0.112932  0.041889  3.385530
H    -1.234350  -1.968846  3.641403
O    2.346830  0.111713  1.649658
H    3.235062  -0.304349  1.728994
Sr    -0.289337  -3.365998  0.897052
