15
Energy: -98048.0485203 eV PBE+vdW (tier 2 basis)
N    -0.153333  0.241639  0.138111
C    -0.223257  -0.037769  1.568086
C    1.151872  -0.440978  2.048989
O    1.500657  -1.674540  2.024921
H    0.182118  1.181737  -0.070228
H    0.387780  -0.431458  -0.402202
H    -0.531804  0.878424  2.089344
C    -1.241009  -1.143072  1.903571
O    -0.790507  -2.446745  1.450686
H    -2.183448  -0.870060  1.407605
H    -1.403327  -1.179037  2.992101
H    0.612818  -2.217526  1.768984
O    1.993143  0.477667  2.391014
H    2.886949  0.118987  2.596162
Sr    -1.724720  -4.269727  0.744907
