15
Energy: -98049.6822507 eV PBE+vdW (tier 2 basis)
N    0.577431  0.945737  1.988043
C    0.360377  0.584673  3.439345
C    1.652674  0.912300  4.204120
O    1.761927  0.525673  5.406279
H    -0.267684  1.304544  1.526925
H    0.880859  0.061484  1.524486
H    -0.443744  1.207903  3.854683
C    -0.016962  -0.899891  3.499620
O    0.953300  -1.537698  2.670877
H    -1.042910  -1.045664  3.124877
H    0.027586  -1.234858  4.546121
H    0.713381  -2.466670  2.515609
O    2.564797  1.591396  3.616327
H    1.343967  1.636477  1.916429
Sr    3.902000  1.499595  5.621260
