15
Energy: -98048.5096338 eV PBE+vdW (tier 2 basis)
N    -0.168862  -0.172326  0.009064
C    0.123029  -0.222055  1.407480
C    1.526917  -0.714484  1.812531
O    2.532146  -0.554100  1.074724
H    0.069775  0.701555  -0.449742
H    0.153595  -0.965794  -0.538759
H    0.075715  0.804283  1.816255
C    -1.000435  -1.040178  2.072680
O    -0.665332  -1.177064  3.535076
H    -1.089657  -2.044484  1.639439
H    -1.951462  -0.505673  2.013112
H    -1.208550  -1.851407  3.991366
O    1.688571  -1.302460  2.983180
H    0.409237  -1.366875  3.533746
Sr    4.124974  -1.393173  2.580330
