15
Energy: -98049.5946141 eV PBE+vdW (tier 2 basis)
N    0.026244  -1.011603  0.370490
C    0.081631  -0.165038  1.620083
C    1.522737  0.034478  2.077054
O    2.461345  -0.608787  1.493311
H    0.817151  -1.673685  0.345558
H    -0.886955  -1.520311  0.426174
H    -0.369645  0.807010  1.380069
C    -0.786313  -0.873223  2.686489
O    -1.937827  -1.282160  1.964798
H    -1.011934  -0.151652  3.484732
H    -0.248517  -1.734517  3.121234
H    -2.561974  -1.761924  2.535235
O    1.740277  0.827157  3.045256
H    0.051034  -0.455280  -0.492628
Sr    4.071744  0.464534  2.941141
