15
Energy: -98047.4139006 eV PBE+vdW (tier 2 basis)
N    -0.009212  0.058480  -0.129692
C    -0.039655  0.012489  1.304927
C    1.348493  0.104165  1.953140
O    2.375694  0.386400  1.421364
H    -0.358754  0.931683  -0.515178
H    0.919159  -0.122256  -0.511610
H    -0.633175  0.844456  1.719305
C    -0.742560  -1.324664  1.654533
O    -0.865959  -1.566802  3.139660
H    -0.190865  -2.169013  1.222306
H    -1.761118  -1.296954  1.246822
H    -0.009236  -1.142589  3.502445
O    1.263679  -0.223077  3.318549
H    2.162293  -0.177213  3.709486
Sr    -2.543711  -2.678441  4.172277
