15
Energy: -98048.8406412 eV PBE+vdW (tier 2 basis)
N    0.471657  -0.388443  0.056429
C    0.228227  0.071653  1.453226
C    1.529472  0.044133  2.231741
O    2.456185  -0.712255  1.874497
H    0.578927  0.435115  -0.545703
H    -0.432362  -0.805506  -0.231642
H    -0.215494  1.079206  1.463276
C    -0.784486  -0.939872  2.120388
O    -1.768427  -1.286285  1.176928
H    -1.194260  -0.502961  3.040792
H    -0.247515  -1.862269  2.397007
H    -2.610215  -0.835328  1.359707
O    1.687998  0.737696  3.326208
H    0.942104  1.335468  3.537684
Sr    2.576430  -1.930136  -0.083434
