15
Energy: -98048.8418292 eV PBE+vdW (tier 2 basis)
N    -0.409378  -0.219938  0.303564
C    -0.182188  -0.229048  1.798656
C    1.355572  -0.190928  1.920823
O    2.049998  -0.344545  0.934015
H    0.551892  -0.427100  -0.089862
H    -1.095361  -0.924493  0.008549
H    -0.630592  0.672288  2.234038
C    -0.774399  -1.494889  2.452147
O    -2.174386  -1.547002  2.376636
H    -0.424761  -1.485263  3.497334
H    -0.323964  -2.383163  1.970204
H    -0.707121  0.696043  -0.052970
O    1.754087  -0.005478  3.168512
H    2.735199  0.004328  3.208052
Sr    -4.101602  -2.113813  3.007303
