15
Energy: -98049.299495 eV PBE+vdW (tier 2 basis)
N    0.008338  1.181256  2.088328
C    0.488059  0.482039  3.334281
C    1.814387  1.242300  3.678017
O    2.478680  0.762889  4.672662
H    -0.938535  1.570082  2.169144
H    0.052802  0.613959  1.232010
H    -0.247350  0.654504  4.131439
C    0.671867  -1.026493  3.103887
O    1.076015  -1.679283  4.349582
H    1.442383  -1.216504  2.341039
H    -0.272634  -1.477868  2.771983
H    0.590101  -2.520663  4.400571
O    2.097705  2.202981  2.971948
H    0.748635  1.971274  2.029072
Sr    2.944549  -0.969476  5.918039
