15
Energy: -98049.246433 eV PBE+vdW (tier 2 basis)
N    -0.132701  -0.676474  -0.443866
C    0.044443  -1.216108  0.964473
C    0.151527  -0.098494  1.985320
O    0.267959  -0.316267  3.188344
H    -0.190278  -1.457984  -1.115831
H    -0.986193  -0.107406  -0.549689
H    -0.849015  -1.814052  1.192056
C    1.303173  -2.173441  1.023459
O    1.456842  -2.667695  2.284531
H    2.189041  -1.600747  0.675545
H    1.115080  -2.971421  0.276024
H    0.662410  -0.082447  -0.726152
O    0.143826  1.112297  1.440963
H    0.228661  1.812049  2.125806
Sr    1.250224  -2.321810  4.378017
