20
Energy: -98139.7949556 eV PBE+vdW (tier 2 basis)
N    1.011653  -0.595671  0.246003
C    0.407595  -0.146763  1.540417
C    1.540779  -0.022430  2.553318
O    2.539609  -0.764961  2.470394
H    1.431796  0.217047  -0.220469
H    0.244572  -0.872254  -0.377527
H    -0.093541  0.826861  1.421753
C    -0.669293  -1.175154  2.026585
C    -0.147885  -2.617586  2.127379
C    -1.344253  -0.734175  3.330886
H    -1.434824  -1.150833  1.232406
H    -0.956806  -3.288605  2.444556
H    0.640752  -2.734675  2.891932
H    0.162935  -3.033445  1.146973
H    -0.679691  -0.821288  4.201972
H    -2.216217  -1.368344  3.530829
H    -1.717818  0.297591  3.268152
O    1.476351  0.813823  3.553046
H    0.673518  1.373821  3.549524
Sr    2.809333  -2.403295  0.857475
