20
Energy: -98139.6478892 eV PBE+vdW (tier 2 basis)
N    0.887035  -0.711907  0.381346
C    0.257121  -0.232363  1.655488
C    1.369762  -0.090281  2.683394
O    2.356695  -0.857453  2.646699
H    0.129422  -1.101805  -0.192613
H    1.207676  0.103494  -0.154582
H    -0.240538  0.739061  1.500677
C    -0.814791  -1.258727  2.152870
C    -1.347528  -0.912478  3.549031
C    -1.966046  -1.361205  1.142311
H    -0.302006  -2.240595  2.215822
H    -2.132903  -1.624810  3.827498
H    -1.811597  0.085311  3.565406
H    -0.582974  -0.963621  4.334924
H    -2.498246  -0.404817  1.048433
H    -2.689532  -2.108262  1.491220
H    -1.666066  -1.683774  0.133457
O    1.319964  0.793305  3.640457
H    0.518648  1.355398  3.616142
Sr    2.898210  -2.293506  0.941327
