20
Energy: -98139.6646952 eV PBE+vdW (tier 2 basis)
N    0.785421  -2.215565  1.076043
C    0.389266  -0.897564  1.682314
C    1.528502  -0.419816  2.580831
O    2.634511  -1.004659  2.590274
H    0.359402  -2.267217  0.144753
H    0.289936  -2.943189  1.609567
H    0.348838  -0.160724  0.861039
C    -1.019773  -0.937785  2.353952
C    -1.068140  -1.877143  3.565388
C    -1.566710  0.460242  2.693223
H    -1.674115  -1.342839  1.564343
H    -2.093612  -1.935517  3.949783
H    -0.433543  -1.522598  4.390926
H    -0.780313  -2.914854  3.333837
H    -1.401259  1.197473  1.894848
H    -1.194613  0.857284  3.655895
H    -2.652048  0.399564  2.843681
O    1.390345  0.638976  3.321743
H    0.473102  1.001543  3.286305
Sr    3.354806  -2.715614  1.267254
