20
Energy: -98140.3546615 eV PBE+vdW (tier 2 basis)
N    0.406770  -0.291655  -0.435661
C    -0.058646  0.450952  0.808458
C    1.150711  1.196122  1.377810
O    1.023552  1.822150  2.474382
H    -0.292986  -0.271879  -1.187543
H    0.596702  -1.279103  -0.203870
H    -0.770358  1.219078  0.468861
C    -0.764089  -0.498856  1.802162
C    -2.071340  -1.039341  1.207613
C    0.162120  -1.618715  2.292743
H    -1.012400  0.147728  2.657379
H    -2.607097  -1.626538  1.962771
H    -1.902521  -1.717500  0.356213
H    -2.742535  -0.233274  0.882484
H    -0.346990  -2.204267  3.067307
H    1.095182  -1.241091  2.733806
H    0.422291  -2.346658  1.504975
O    2.252132  1.202279  0.717963
H    1.293612  0.132217  -0.762525
Sr    3.218966  2.661705  2.376838
