20
Energy: -98139.6077842 eV PBE+vdW (tier 2 basis)
N    0.228405  0.277194  0.062483
C    -0.124022  0.284249  1.526522
C    1.010139  0.987157  2.276794
O    1.956807  1.523264  1.657278
H    -0.643747  0.385521  -0.465053
H    0.522618  -0.681634  -0.166243
H    -0.995694  0.952896  1.649322
C    -0.543781  -1.129433  2.049934
C    -0.861763  -1.162087  3.556214
C    -1.759088  -1.634016  1.254893
H    0.311361  -1.805101  1.867454
H    -1.365788  -2.105550  3.800148
H    -1.565823  -0.367930  3.856354
H    0.031322  -1.160508  4.200848
H    -2.024622  -2.642225  1.594030
H    -1.582866  -1.712488  0.173700
H    -2.636116  -0.990759  1.417445
O    0.989653  1.108230  3.569964
H    0.253282  0.596335  3.980801
Sr    2.205722  1.881018  -0.574190
