20
Energy: -98140.283274 eV PBE+vdW (tier 2 basis)
N    0.447513  0.277599  0.393874
C    0.114819  -0.169303  1.813180
C    1.435881  -0.592320  2.464204
O    1.438279  -1.016174  3.659753
H    -0.047367  1.138385  0.128929
H    0.189994  -0.458654  -0.280353
H    -0.240580  0.721021  2.352956
C    -1.011998  -1.236904  1.782648
C    -0.536324  -2.568192  1.188389
C    -1.669106  -1.409135  3.156687
H    -1.778086  -0.805119  1.113102
H    -1.391860  -3.240183  1.053626
H    0.171838  -3.076901  1.857733
H    -0.061931  -2.479864  0.196728
H    -0.985961  -1.859778  3.885760
H    -2.538167  -2.070414  3.057940
H    -2.026637  -0.453603  3.562069
O    2.523746  -0.479584  1.788526
H    1.472894  0.419313  0.324339
Sr    3.778224  -1.259303  3.693635
