20
Energy: -98138.8076227 eV PBE+vdW (tier 2 basis)
N    -0.059796  0.143650  -0.107389
C    -0.176973  0.062479  1.351148
C    1.284437  0.293507  1.713265
O    1.798927  1.450611  1.796393
H    -0.826557  0.654390  -0.538892
H    0.022527  -0.771589  -0.549261
H    -0.732179  0.941547  1.709707
C    -0.792478  -1.209887  1.966949
C    -0.776172  -1.139946  3.500783
C    -2.212847  -1.428360  1.430643
H    -0.189379  -2.085403  1.635650
H    -1.151206  -2.076456  3.929913
H    -1.429953  -0.332421  3.859027
H    0.225971  -0.974491  3.925333
H    -2.871008  -0.596049  1.718428
H    -2.636415  -2.345247  1.857030
H    -2.243881  -1.531775  0.339159
O    2.112482  -0.707253  1.850911
H    1.626211  -1.563173  1.839357
Sr    3.128260  3.171362  1.535004
