20
Energy: -98140.3453343 eV PBE+vdW (tier 2 basis)
N    0.284099  -0.165990  0.215571
C    -0.265741  -0.313167  1.627479
C    0.858413  0.030834  2.600874
O    0.582079  0.134129  3.836010
H    0.090617  0.759416  -0.187726
H    -0.133587  -0.874357  -0.407002
H    -1.071020  0.424160  1.745482
C    -0.841688  -1.737127  1.855041
C    -2.021458  -2.000395  0.910547
C    0.227941  -2.832719  1.770873
H    -1.229930  -1.698562  2.884442
H    -2.495727  -2.953681  1.173033
H    -1.717204  -2.107742  -0.145194
H    -2.790628  -1.219555  0.971828
H    0.664035  -2.930187  0.764528
H    -0.222217  -3.804657  2.004232
H    1.050169  -2.680289  2.483988
O    2.052714  0.184424  2.157008
H    1.312043  -0.284784  0.249903
Sr    2.810426  0.616165  4.406266
