20
Energy: -98139.8033435 eV PBE+vdW (tier 2 basis)
N    0.738901  -1.582929  0.560793
C    0.236462  -0.773357  1.726094
C    1.110597  -1.058134  2.933480
O    2.143118  -1.768215  2.873745
H    0.621186  -1.011854  -0.282313
H    0.057775  -2.344663  0.429142
H    0.401018  0.292600  1.493809
C    -1.283570  -0.965278  2.013870
C    -2.126770  -0.435595  0.848614
C    -1.618981  -2.419390  2.368193
H    -1.487812  -0.338040  2.894244
H    -3.189935  -0.486026  1.112660
H    -2.007163  -1.031409  -0.068936
H    -1.897561  0.612956  0.615684
H    -1.488701  -3.111698  1.519060
H    -2.677433  -2.496417  2.644166
H    -1.039528  -2.800005  3.222070
O    0.718309  -0.481268  4.033659
H    1.328050  -0.665382  4.782022
Sr    3.065040  -2.650896  0.947942
