20
Energy: -98139.6619766 eV PBE+vdW (tier 2 basis)
N    1.013621  -1.902900  0.958706
C    0.266576  -0.635510  1.264548
C    1.167872  0.260692  2.111487
O    2.378780  -0.003783  2.271592
H    0.660211  -2.615122  1.613085
H    0.691257  -2.237065  0.044664
H    0.141865  -0.092754  0.310714
C    -1.147915  -0.866030  1.873087
C    -2.065492  -1.582070  0.873592
C    -1.087763  -1.577144  3.231217
H    -1.583990  0.139328  2.026324
H    -2.116533  -1.060172  -0.091479
H    -3.084565  -1.628992  1.275359
H    -1.754462  -2.621704  0.694202
H    -0.740402  -2.619586  3.145635
H    -2.093906  -1.639414  3.662600
H    -0.454358  -1.058808  3.965529
O    0.709384  1.352551  2.654225
H    -0.252699  1.477317  2.512563
Sr    3.598518  -1.693834  1.334350
