34
Energy: -36754.3213071 eV PBE+vdW (tier 2 basis)
C    -0.929010  1.973813  1.107144
C    -0.949813  0.521923  1.445535
O    0.001085  -0.241432  1.072271
H    -0.046437  2.428465  1.580841
H    -1.824837  2.509570  1.437222
H    -0.807168  2.099072  0.023304
N    -1.971984  0.034131  2.157152
C    -2.059601  -1.317813  2.746157
C    -2.424979  -2.343317  1.649487
O    -1.501195  -2.775495  0.881230
H    -2.699537  0.691957  2.430615
H    -1.043155  -1.594999  3.068683
C    -2.966280  -1.288977  3.984348
C    -2.913125  -2.566921  4.832211
C    -3.815729  -2.492726  6.070198
C    -3.743449  -3.777164  6.927490
N    -4.554315  -3.803997  8.124854
H    -4.007581  -1.049776  3.698719
H    -2.636941  -0.438763  4.601738
H    -1.871411  -2.739237  5.150278
H    -3.195855  -3.447571  4.231124
H    -4.861141  -2.322074  5.763617
H    -3.527362  -1.628154  6.689389
H    -2.695974  -3.949681  7.223124
H    -4.029026  -4.640262  6.303751
H    -4.289400  -3.105409  8.816013
H    -5.554412  -3.739342  7.947358
N    -3.674938  -2.738378  1.527127
C    -4.186578  -3.696192  0.546090
H    -4.341822  -2.364272  2.199908
H    -3.355649  -4.096784  -0.037709
H    -4.902485  -3.196683  -0.118194
H    -4.696260  -4.512630  1.071097
Ca    0.448363  -2.148883  0.279828
