34
Energy: -36754.8604349 eV PBE+vdW (tier 2 basis)
C    0.460168  -0.646165  0.198017
C    0.207744  -0.648684  1.670405
O    1.093974  -1.106630  2.463683
H    0.597046  -1.686751  -0.130482
H    1.399976  -0.120595  -0.015322
H    -0.348264  -0.193285  -0.384807
N    -0.958929  -0.174148  2.116881
C    -1.547647  -0.223385  3.475999
C    -0.873571  0.758189  4.446530
O    0.394073  0.698490  4.659775
H    -1.582163  0.181538  1.397011
H    -2.568649  0.141787  3.319230
C    -1.653856  -1.659227  4.059316
C    -2.975241  -1.941344  4.797143
C    -3.208083  -1.197124  6.136662
C    -4.398396  -0.231963  6.176335
N    -4.309781  0.885776  5.186665
H    -0.803940  -1.869064  4.729240
H    -1.566586  -2.365165  3.222081
H    -3.004148  -3.023562  4.979075
H    -3.807291  -1.754640  4.098816
H    -2.294381  -0.669848  6.451750
H    -3.390448  -1.938674  6.926026
H    -4.447515  0.219234  7.175490
H    -5.335230  -0.792862  6.040146
H    -4.750150  0.603929  4.307716
H    -4.885437  1.664810  5.515359
N    -1.655862  1.598701  5.070761
C    -1.183718  2.536035  6.085582
H    -2.730847  1.422422  5.008829
H    -0.250993  3.012064  5.766839
H    -1.011827  2.022636  7.042361
H    -1.949783  3.303761  6.229317
Ca    2.063753  -0.493255  4.231570
