34
Energy: -36754.5767907 eV PBE+vdW (tier 2 basis)
C    -0.746862  0.826209  -0.373520
C    -0.850020  0.121353  0.940128
O    0.074088  -0.662801  1.307337
H    -0.633102  0.077279  -1.169081
H    0.167517  1.435471  -0.378632
H    -1.605851  1.465504  -0.600634
N    -1.938888  0.352319  1.692361
C    -2.345886  -0.179461  3.022832
C    -1.324709  0.177705  4.116724
O    -0.200548  -0.405102  4.191334
H    -2.606504  0.999702  1.282233
H    -3.249811  0.402035  3.247771
C    -2.838063  -1.648110  3.033654
C    -1.909000  -2.831406  2.676437
C    -1.125096  -3.515458  3.830033
C    -1.974750  -4.498577  4.678336
N    -3.021563  -3.792530  5.415317
H    -3.681215  -1.665964  2.328880
H    -3.268200  -1.848239  4.027210
H    -1.271376  -2.565918  1.811628
H    -2.545915  -3.618391  2.246839
H    -0.711519  -2.787515  4.558474
H    -0.295599  -4.130330  3.413930
H    -1.293148  -5.070241  5.328152
H    -2.431346  -5.224171  3.991181
H    -3.891530  -4.321963  5.416221
H    -2.764583  -3.659834  6.392482
N    -1.684031  1.103086  4.993824
C    -0.872335  1.566524  6.119634
H    -2.599049  1.532571  4.881750
H    -0.600072  2.618757  5.970903
H    0.032593  0.959133  6.185603
H    -1.450680  1.474058  7.046136
Ca    0.800054  -1.837692  2.936523
