34
Energy: -36754.8038701 eV PBE+vdW (tier 2 basis)
C    -0.131326  0.310927  -0.086039
C    -0.356384  -0.268431  1.279555
O    0.649557  -0.420629  2.067191
H    -0.190713  1.409481  -0.044822
H    -0.858897  -0.035731  -0.828687
H    0.884198  0.062629  -0.412963
N    -1.550375  -0.616936  1.803929
C    -2.799710  -0.034931  1.312632
C    -3.165166  1.108669  2.301302
O    -2.422972  1.328645  3.308031
H    -1.503945  -2.360918  1.816305
H    -2.660344  0.446189  0.328458
C    -3.918935  -1.087646  1.172767
C    -3.823611  -1.969604  -0.099552
C    -3.413444  -3.443508  0.056277
C    -1.935731  -3.758582  0.247409
N    -1.439747  -3.420705  1.639704
H    -4.887273  -0.570899  1.155144
H    -3.948702  -1.698102  2.090069
H    -3.164650  -1.488209  -0.839765
H    -4.815416  -1.978790  -0.568829
H    -3.699527  -3.968127  -0.867142
H    -4.007468  -3.930051  0.848456
H    -1.300754  -3.194954  -0.448822
H    -1.740304  -4.827013  0.096778
H    -1.993543  -3.919242  2.346684
H    -0.459474  -3.705514  1.757069
N    -4.235131  1.847148  2.049895
C    -4.705935  2.967761  2.866646
H    -4.770406  1.634026  1.211975
H    -5.732383  2.775351  3.200046
H    -4.687385  3.890272  2.274184
H    -4.052074  3.076109  3.734288
Ca    -0.562668  0.268146  3.781340
