34
Energy: -36752.5094824 eV PBE+vdW (tier 2 basis)
C    0.490150  0.079342  0.775918
C    0.035962  0.184905  2.188168
O    0.956699  0.076325  3.114695
H    -0.321089  0.093692  0.051675
H    1.035980  -0.863573  0.649509
H    1.183033  0.911274  0.574541
N    -1.184458  0.476414  2.600681
C    -2.473842  0.363877  1.890035
C    -2.642926  -1.146797  1.525854
O    -1.652485  -1.822401  1.249020
H    -1.264394  0.558451  3.613310
H    -3.218665  0.640807  2.649461
C    -2.634875  1.357105  0.715613
C    -4.070722  1.487272  0.169620
C    -4.381432  0.618988  -1.056339
C    -5.783830  0.875381  -1.628513
N    -5.927772  2.237778  -2.108428
H    -1.965050  1.094303  -0.112867
H    -2.297518  2.332240  1.094853
H    -4.233915  2.535632  -0.114838
H    -4.806264  1.296842  0.970740
H    -4.291574  -0.453257  -0.829389
H    -3.634621  0.824750  -1.841232
H    -6.544090  0.710251  -0.850748
H    -5.980550  0.127052  -2.420681
H    -5.415291  2.442939  -2.963930
H    -6.887409  2.564236  -2.186143
N    -3.909139  -1.601521  1.557455
C    -4.283780  -2.953775  1.153798
H    -4.652110  -0.956032  1.803021
H    -4.975790  -3.381272  1.887707
H    -3.377981  -3.564175  1.105475
H    -4.764783  -2.949917  0.166272
Ca    2.607386  -0.370940  4.173034
