34
Energy: -36752.4971259 eV PBE+vdW (tier 2 basis)
C    -0.950701  0.268914  0.447542
C    -0.122567  0.083484  1.669154
O    1.077508  0.609766  1.654827
H    -1.895228  -0.269718  0.470823
H    -0.383932  -0.087992  -0.420939
H    -1.138594  1.346598  0.319953
N    -0.509648  -0.469795  2.804864
C    -1.626254  -1.398103  3.070958
C    -1.360218  -2.668508  2.198874
O    -0.828579  -2.550639  1.095537
H    0.199450  -0.438701  3.536104
H    -1.507800  -1.657165  4.132655
C    -3.024876  -0.755036  2.916803
C    -4.191901  -1.623345  3.427547
C    -4.850326  -2.499270  2.354906
C    -5.938736  -3.413940  2.926250
N    -6.487972  -4.278504  1.900940
H    -3.218738  -0.483216  1.871777
H    -2.990415  0.185603  3.484301
H    -4.949767  -0.948518  3.849993
H    -3.860777  -2.240894  4.280691
H    -4.111583  -3.125753  1.835253
H    -5.292887  -1.845867  1.585048
H    -6.713548  -2.792698  3.421769
H    -5.515199  -4.055990  3.714281
H    -6.964702  -3.793691  1.142970
H    -7.066001  -5.038501  2.251506
N    -1.741076  -3.832046  2.757364
C    -1.696464  -5.110161  2.051870
H    -2.174458  -3.812776  3.674260
H    -2.698018  -5.401486  1.706320
H    -1.305629  -5.886164  2.718933
H    -1.037303  -5.005564  1.185896
Ca    2.871449  1.349942  1.123829
