34
Energy: -36754.1556176 eV PBE+vdW (tier 2 basis)
C    0.229680  0.457256  -0.021432
C    0.048138  0.477656  1.456630
O    1.023659  0.774870  2.227508
H    1.047371  -0.228668  -0.280735
H    0.537463  1.458958  -0.354104
H    -0.676324  0.163846  -0.561000
N    -1.147307  0.192465  1.980010
C    -1.436716  0.321216  3.415819
C    -0.668956  -0.749022  4.229785
O    0.331302  -0.318942  4.918600
H    -1.924202  -0.018549  1.354377
H    -0.929320  1.245381  3.731626
C    -2.922113  0.596669  3.744621
C    -4.050028  -0.387444  3.413239
C    -4.368242  -0.628900  1.932607
C    -5.489365  -1.666483  1.752941
N    -5.036129  -3.003540  2.179458
H    -3.136423  1.566851  3.266993
H    -2.940344  0.799398  4.826493
H    -4.951724  0.042068  3.876488
H    -3.905912  -1.348637  3.921755
H    -3.496455  -1.026410  1.374515
H    -4.653336  0.317477  1.445449
H    -6.354297  -1.358036  2.357749
H    -5.827792  -1.656255  0.706272
H    -5.752218  -3.467685  2.735694
H    -4.886492  -3.604200  1.369617
N    -0.929052  -2.041304  4.241239
C    -1.875219  -2.852163  3.472520
H    -0.319725  -2.564650  4.873597
H    -1.323798  -3.690123  3.029395
H    -2.351964  -2.277097  2.680424
H    -2.660112  -3.251524  4.124401
Ca    1.958675  0.802184  4.134930
