34
Energy: -36753.6648118 eV PBE+vdW (tier 2 basis)
C    0.182776  0.089792  0.358321
C    -0.110432  0.225644  1.813147
O    0.839973  0.280174  2.664001
H    1.002720  -0.632941  0.249027
H    0.552025  1.041363  -0.054240
H    -0.678105  -0.245889  -0.227136
N    -1.382118  0.300340  2.261874
C    -2.389009  1.166556  1.655362
C    -1.989679  2.639835  1.999006
O    -0.896580  2.887452  2.615938
H    -1.480274  0.194898  3.273528
H    -2.319935  1.066624  0.561490
C    -3.807737  0.786776  2.114296
C    -4.039692  0.883718  3.628975
C    -5.518480  0.760713  4.025594
C    -6.154924  -0.604195  3.727394
N    -7.549180  -0.593683  4.138205
H    -4.000447  -0.230441  1.747170
H    -4.534581  1.424009  1.585712
H    -3.660867  1.851618  4.002623
H    -3.469641  0.095115  4.152299
H    -6.109833  1.542373  3.523758
H    -5.603016  0.962232  5.104145
H    -5.541126  -1.399148  4.202932
H    -6.137616  -0.804725  2.645000
H    -7.660394  -0.603910  5.151411
H    -8.073460  -1.378467  3.756959
N    -2.803838  3.598073  1.608775
C    -2.617898  5.037313  1.804622
H    -3.660499  3.310659  1.138190
H    -1.640778  5.221282  2.254638
H    -3.406647  5.423706  2.461679
H    -2.679811  5.544818  0.834933
Ca    0.929090  2.237735  3.557313
