34
Energy: -36754.417607 eV PBE+vdW (tier 2 basis)
C    -0.372594  -0.886323  -0.327791
C    -0.205820  -0.585788  1.122794
O    0.933066  -0.235379  1.581278
H    -0.140320  0.023803  -0.900206
H    -1.381437  -1.222266  -0.588054
H    0.356269  -1.648298  -0.633534
N    -1.264340  -0.673278  1.932662
C    -1.325647  -0.235254  3.344480
C    -0.619409  -1.281477  4.232920
O    0.654344  -1.233008  4.343347
H    -2.149676  -0.945578  1.509185
H    -0.710303  0.675168  3.425240
C    -2.772202  0.139979  3.706775
C    -2.927127  1.044399  4.936008
C    -2.602819  0.453661  6.311226
C    -3.113699  1.367608  7.443317
N    -4.565415  1.513414  7.360510
H    -3.404308  -0.762103  3.799860
H    -3.174687  0.680855  2.835894
H    -3.978010  1.368261  4.974344
H    -2.335881  1.962049  4.776977
H    -1.520443  0.289050  6.451728
H    -3.094288  -0.529848  6.423898
H    -2.657915  2.362443  7.329570
H    -2.755284  0.970962  8.409245
H    -4.876220  2.405108  7.740315
H    -5.048256  0.785212  7.885281
N    -1.334530  -2.210871  4.827050
C    -0.828631  -3.260667  5.709748
H    -2.345870  -2.135612  4.731440
H    -1.190125  -4.234864  5.360777
H    -1.196584  -3.086289  6.728834
H    0.262796  -3.245638  5.707475
Ca    2.265308  -0.449000  3.200166
