34
Energy: -36754.8724991 eV PBE+vdW (tier 2 basis)
C    0.097740  -1.062224  0.533964
C    -0.056489  -0.447214  1.885185
O    0.918113  0.243865  2.368666
H    0.963008  -1.738885  0.537252
H    0.315025  -0.272528  -0.198220
H    -0.790087  -1.616904  0.219243
N    -1.185964  -0.615010  2.557564
C    -1.421102  0.079098  3.833602
C    -0.480450  -0.445870  4.936131
O    0.511680  0.290183  5.279815
H    -2.060822  -1.063143  2.030212
H    -1.103604  1.127232  3.700548
C    -2.909685  0.113567  4.214172
C    -3.782126  0.767206  3.114404
C    -4.942012  -0.111908  2.615430
C    -4.576532  -1.537756  2.198818
N    -3.402391  -1.576912  1.282143
H    -2.991531  0.671028  5.156768
H    -3.273727  -0.896617  4.432413
H    -3.150158  1.056647  2.260560
H    -4.200617  1.708616  3.491137
H    -5.422738  0.403027  1.769836
H    -5.716954  -0.186505  3.392402
H    -5.456519  -2.012940  1.741840
H    -4.319888  -2.152454  3.075136
H    -3.599972  -1.001599  0.457494
H    -3.289790  -2.529350  0.924767
N    -0.638946  -1.614786  5.534749
C    -1.618936  -2.677673  5.297223
H    0.042570  -1.792750  6.273668
H    -1.141685  -3.633707  5.535795
H    -1.922483  -2.697385  4.247459
H    -2.496519  -2.553967  5.943766
Ca    1.945116  1.146429  3.950601
