34
Energy: -36753.0245225 eV PBE+vdW (tier 2 basis)
C    0.186264  -0.702551  0.512622
C    -0.017227  -0.681317  1.987612
O    1.047737  -0.887134  2.755829
H    1.021390  -0.041791  0.245045
H    -0.706756  -0.391998  -0.036366
H    0.457707  -1.718933  0.192156
N    -1.148613  -0.477335  2.577821
C    -2.492483  -0.195798  2.058337
C    -3.144296  0.398668  3.355011
O    -2.502166  0.217780  4.422736
H    -1.295221  -0.362229  3.655112
H    -2.445407  0.573378  1.273615
C    -3.153642  -1.484369  1.503640
C    -4.415880  -1.249125  0.654801
C    -5.753037  -1.231602  1.425917
C    -6.719867  -0.145931  0.947947
N    -6.125674  1.212490  1.105252
H    -3.362039  -2.171310  2.337391
H    -2.396814  -1.980847  0.878532
H    -4.455016  -2.035323  -0.110428
H    -4.282763  -0.311039  0.092506
H    -5.575764  -1.093149  2.501756
H    -6.245690  -2.208949  1.330822
H    -7.636601  -0.193821  1.548773
H    -7.019690  -0.329595  -0.095139
H    -5.771841  1.553435  0.210749
H    -6.854218  1.877740  1.367121
N    -4.283808  1.056192  3.269428
C    -4.932267  1.599824  4.461089
H    -4.837015  1.133482  2.369554
H    -5.818176  2.155886  4.140844
H    -4.255661  2.275709  4.996987
H    -5.236372  0.798815  5.147311
Ca    2.557349  -1.151968  3.989712
