34
Energy: -36752.7603829 eV PBE+vdW (tier 2 basis)
C    -0.697063  0.741516  0.253425
C    -0.462298  0.655029  1.731560
O    0.682033  0.758816  2.215299
H    -0.203307  1.639016  -0.137561
H    -1.755527  0.750670  -0.028162
H    -0.211280  -0.121770  -0.222822
N    -1.559561  0.469917  2.525629
C    -1.558299  0.034343  3.930313
C    -0.932016  1.043743  4.891202
O    -1.543446  1.299966  6.020140
H    -2.452432  0.394821  2.050572
H    -2.617472  -0.029354  4.213094
C    -0.912522  -1.361219  4.152836
C    -1.607087  -2.475808  3.366931
C    -0.955249  -3.845051  3.594627
C    -1.654718  -4.976134  2.827588
N    -3.013056  -5.195668  3.300275
H    -0.954126  -1.581057  5.232398
H    0.153066  -1.307315  3.886314
H    -1.574041  -2.242748  2.290973
H    -2.672483  -2.534240  3.642002
H    -0.952068  -4.087374  4.670526
H    0.099901  -3.817796  3.282918
H    -1.031589  -5.887135  2.907954
H    -1.703000  -4.727696  1.757638
H    -3.065701  -5.660708  4.205005
H    -3.612237  -5.677377  2.634130
N    0.218591  1.575002  4.601938
C    0.953445  2.510628  5.441647
H    0.598014  1.257352  3.628268
H    1.858858  2.814115  4.909049
H    1.249879  2.037701  6.388310
H    0.354812  3.409065  5.646761
Ca    -2.375280  1.833713  7.763447
