34
Energy: -36754.0627701 eV PBE+vdW (tier 2 basis)
C    -0.529933  -0.234377  -0.010032
C    -0.484233  -0.070215  1.469561
O    0.581398  0.339823  2.045087
H    -0.329325  0.738918  -0.480455
H    -1.491402  -0.614483  -0.369457
H    0.273081  -0.912520  -0.328853
N    -1.569356  -0.345368  2.197429
C    -1.657166  -0.077851  3.639984
C    -0.738628  -1.037960  4.434292
O    0.350216  -0.526588  4.890139
H    -2.424430  -0.638026  1.722545
H    -1.148695  0.886072  3.793977
C    -3.100514  0.183047  4.136450
C    -4.262695  -0.784991  3.892194
C    -4.635678  -1.095357  2.435497
C    -6.087041  -1.613505  2.320037
N    -7.018352  -0.608904  2.822361
H    -3.367777  1.154733  3.690907
H    -3.012441  0.376238  5.216583
H    -5.149046  -0.289575  4.320598
H    -4.145373  -1.712182  4.467781
H    -3.976427  -1.857643  1.975118
H    -4.556963  -0.177232  1.823902
H    -6.187281  -2.520484  2.934361
H    -6.272094  -1.921924  1.276784
H    -7.314425  0.034821  2.089861
H    -7.861036  -1.032683  3.204475
N    -0.963814  -2.319865  4.651314
C    -2.007697  -3.219013  4.161103
H    -0.246323  -2.759909  5.231000
H    -1.525085  -4.128967  3.785380
H    -2.573351  -2.756105  3.352255
H    -2.687282  -3.492210  4.976914
Ca    1.788681  0.576625  3.772374
