34
Energy: -36754.3293277 eV PBE+vdW (tier 2 basis)
C    0.217244  -0.232300  -0.203775
C    0.147453  -0.098055  1.279903
O    1.176277  0.270074  1.940440
H    1.050080  -0.892349  -0.478725
H    0.441475  0.756682  -0.630228
H    -0.709121  -0.608944  -0.649192
N    -1.006710  -0.355204  1.898767
C    -1.343055  -0.092078  3.310738
C    -0.743425  -1.175294  4.238854
O    0.523938  -1.185820  4.419205
H    -1.786797  -0.655049  1.316361
H    -0.810390  0.828764  3.599806
C    -2.853653  0.157799  3.445016
C    -3.785687  -0.867963  2.761001
C    -5.187231  -0.916830  3.384944
C    -5.208478  -1.501965  4.804116
N    -6.569252  -1.654058  5.268256
H    -3.061879  1.157899  3.040206
H    -3.075912  0.237008  4.518879
H    -3.358200  -1.887725  2.782528
H    -3.891479  -0.615641  1.693780
H    -5.829947  -1.533120  2.739603
H    -5.641739  0.084291  3.400640
H    -4.703767  -0.819114  5.508048
H    -4.608778  -2.453223  4.797791
H    -7.076088  -2.386292  4.772995
H    -6.631829  -1.841936  6.266298
N    -1.532502  -2.025666  4.857944
C    -1.103920  -3.062755  5.796779
H    -2.535929  -1.971948  4.666584
H    -1.794145  -3.073294  6.647148
H    -0.090536  -2.850314  6.143838
H    -1.127846  -4.044492  5.306286
Ca    2.267855  -0.235154  3.668377
