34
Energy: -36754.4738347 eV PBE+vdW (tier 2 basis)
C    0.843916  0.342868  0.443559
C    0.389916  0.256547  1.861214
O    1.163821  0.624793  2.807758
H    1.790463  -0.200101  0.323314
H    1.050661  1.397458  0.209359
H    0.109969  -0.043291  -0.271004
N    -0.836281  -0.200418  2.123441
C    -1.530376  -0.170471  3.425108
C    -1.017833  -1.305049  4.336110
O    0.121706  -1.176203  4.902916
H    -1.409396  -0.459240  1.322408
H    -1.227966  0.761750  3.929276
C    -3.048747  -0.129133  3.197979
C    -3.539881  1.110077  2.436554
C    -3.226652  2.452741  3.103387
C    -4.094660  3.585780  2.521773
N    -5.511270  3.299268  2.739761
H    -3.533254  -0.152312  4.186086
H    -3.372523  -1.037056  2.656704
H    -4.634456  1.034984  2.353462
H    -3.162451  1.108139  1.399857
H    -2.164260  2.731057  2.990896
H    -3.425787  2.384369  4.187413
H    -3.919225  3.650369  1.437511
H    -3.756774  4.545988  2.949146
H    -6.097322  3.755572  2.043514
H    -5.825124  3.629947  3.651610
N    -1.769249  -2.369216  4.524312
C    -1.444804  -3.520281  5.367784
H    -2.672907  -2.379411  4.053453
H    -1.349266  -4.417536  4.743898
H    -2.252631  -3.674389  6.092660
H    -0.506964  -3.333356  5.894267
Ca    1.833841  0.069085  4.725698
