34
Energy: -36753.6684291 eV PBE+vdW (tier 2 basis)
C    -0.560994  0.835112  -0.092900
C    -0.016626  0.163227  1.120682
O    1.248730  0.015725  1.243226
H    -1.497624  1.363272  0.099595
H    -0.734487  0.100758  -0.895566
H    0.198648  1.535894  -0.459167
N    -0.800169  -0.288246  2.129094
C    -1.976100  -1.166173  1.998026
C    -1.438913  -2.568812  1.585331
O    -0.211117  -2.730174  1.249142
H    -0.251857  -0.494818  2.965712
H    -2.371666  -1.268266  3.020450
C    -3.138173  -0.629478  1.131319
C    -4.454657  -1.400986  1.309722
C    -5.695346  -0.566671  0.966291
C    -6.991560  -1.323754  1.288130
N    -7.018865  -1.725424  2.700548
H    -2.861560  -0.602308  0.069309
H    -3.290246  0.410374  1.456640
H    -4.588060  -1.732253  2.355653
H    -4.464310  -2.299021  0.669086
H    -5.692565  -0.279627  -0.095986
H    -5.669473  0.370345  1.546944
H    -7.041633  -2.236708  0.675516
H    -7.846995  -0.697454  0.982254
H    -7.301158  -0.941832  3.291327
H    -7.715347  -2.454137  2.852287
N    -2.269653  -3.587347  1.621966
C    -1.924254  -4.970320  1.279121
H    -3.235204  -3.387804  1.885712
H    -2.838232  -5.568578  1.310109
H    -1.207566  -5.375759  2.003671
H    -1.495106  -5.018679  0.271977
Ca    1.812853  -2.049579  1.112042
