34
Energy: -36753.7252209 eV PBE+vdW (tier 2 basis)
C    -1.307439  1.530715  1.343577
C    -2.045040  1.213635  2.596726
O    -1.796974  1.886097  3.656913
H    -1.750722  1.083127  0.453219
H    -0.248592  1.244292  1.422599
H    -1.316958  2.626723  1.244298
N    -3.033494  0.285161  2.660095
C    -2.928044  -1.147339  2.325189
C    -2.261300  -1.838946  3.535079
O    -1.524117  -1.163752  4.345468
H    -3.618348  0.433508  3.484941
H    -3.960671  -1.521236  2.254010
C    -2.211879  -1.523211  1.016949
C    -3.088763  -1.311913  -0.220552
C    -2.523313  -1.979236  -1.483868
C    -2.115069  -3.449360  -1.313738
N    -3.108756  -4.219873  -0.536369
H    -1.988807  -2.595223  1.082162
H    -1.235277  -1.026241  0.941350
H    -3.259801  -0.241770  -0.413501
H    -4.079330  -1.739076  -0.002718
H    -1.650962  -1.422909  -1.858589
H    -3.287719  -1.896526  -2.270909
H    -1.155850  -3.516445  -0.776122
H    -1.925918  -3.869546  -2.315398
H    -4.009524  -4.210159  -1.021535
H    -2.829910  -5.202897  -0.523021
N    -2.457914  -3.127025  3.733068
C    -3.344909  -4.040743  2.991916
H    -1.965128  -3.518137  4.536258
H    -3.209752  -3.969977  1.899749
H    -4.393247  -3.837884  3.248808
H    -3.103283  -5.059337  3.307182
Ca    -0.981516  0.690365  5.246688
