34
Energy: -36752.7564359 eV PBE+vdW (tier 2 basis)
C    0.027877  0.569044  -0.177055
C    0.010014  0.537188  1.312080
O    1.157674  0.610990  1.946789
H    0.563670  1.465536  -0.517038
H    -0.973321  0.563295  -0.615351
H    0.581363  -0.303281  -0.552523
N    -1.076396  0.442999  2.022677
C    -2.492064  0.345554  1.637020
C    -3.180303  0.797888  2.962306
O    -2.528918  0.632653  4.008956
H    -1.064706  0.439723  3.075517
H    -2.702711  1.028009  0.803673
C    -2.835779  -1.120527  1.269652
C    -4.277232  -1.368639  0.822747
C    -4.517195  -2.831791  0.431458
C    -5.974950  -3.111533  0.043157
N    -6.886033  -2.868687  1.151897
H    -2.599155  -1.747690  2.143367
H    -2.144860  -1.428089  0.467925
H    -4.523381  -0.720436  -0.034309
H    -4.980703  -1.113694  1.627238
H    -4.233320  -3.491139  1.268670
H    -3.873302  -3.115097  -0.415207
H    -6.041114  -4.148839  -0.337590
H    -6.273510  -2.457301  -0.789076
H    -7.861338  -2.789965  0.872728
H    -6.804026  -3.547266  1.907740
N    -4.411057  1.323073  2.950390
C    -5.275551  1.687809  1.832689
H    -4.761274  1.530616  3.884793
H    -5.656916  2.703212  1.991430
H    -6.125058  0.998364  1.747494
H    -4.722463  1.676565  0.889695
Ca    2.894436  0.760435  2.929244
