34
Energy: -36752.7583359 eV PBE+vdW (tier 2 basis)
C    0.490950  1.977178  0.523384
C    -0.066825  1.232800  1.687007
O    0.745439  0.916896  2.667320
H    1.216894  1.339100  -0.000844
H    1.033435  2.862073  0.881301
H    -0.275403  2.291183  -0.189913
N    -1.316483  0.877804  1.786765
C    -2.463958  1.082088  0.891976
C    -3.648760  0.902792  1.889109
O    -3.439283  0.241618  2.917189
H    -1.688971  0.381100  2.634515
H    -2.448008  2.102995  0.484573
C    -2.445488  0.035774  -0.250641
C    -3.638081  0.084924  -1.225298
C    -4.786078  -0.868055  -0.871405
C    -5.993116  -0.709971  -1.801220
N    -7.090791  -1.558445  -1.381047
H    -2.370498  -0.964443  0.202441
H    -1.510563  0.195334  -0.807485
H    -3.263379  -0.166314  -2.227775
H    -4.011002  1.119929  -1.318906
H    -5.126535  -0.722163  0.163324
H    -4.416310  -1.904965  -0.926528
H    -5.676418  -0.904546  -2.847012
H    -6.349267  0.332081  -1.781443
H    -7.975989  -1.364276  -1.843097
H    -6.892156  -2.556832  -1.408427
N    -4.809763  1.482508  1.566732
C    -6.036197  1.323757  2.345820
H    -4.864809  1.997607  0.694148
H    -6.521392  2.297739  2.471239
H    -5.775928  0.914914  3.325599
H    -6.728247  0.635840  1.841301
Ca    1.996465  0.478878  4.171440
