34
Energy: -36753.6500373 eV PBE+vdW (tier 2 basis)
C    -0.541121  1.461719  -1.765402
C    0.069672  0.496949  -0.808073
O    1.136272  -0.134679  -1.115807
H    0.055975  2.384624  -1.823370
H    -1.576783  1.716332  -1.522531
H    -0.503004  1.007004  -2.764902
N    -0.484879  0.271619  0.402392
C    -0.930908  1.345133  1.285997
C    0.354541  2.053052  1.825629
O    1.509577  1.723533  1.384562
H    -0.112937  -0.543908  0.893164
H    -1.470386  2.089014  0.680279
C    -1.863078  0.819860  2.392445
C    -1.230304  -0.205711  3.342319
C    -2.194421  -0.692981  4.434657
C    -2.578445  0.372314  5.470294
N    -3.476269  -0.202516  6.456206
H    -2.743905  0.388874  1.894534
H    -2.250869  1.679722  2.959182
H    -0.328109  0.221771  3.816183
H    -0.898829  -1.092118  2.774058
H    -1.720934  -1.537510  4.957412
H    -3.112339  -1.095004  3.980302
H    -3.122767  1.198254  4.984759
H    -1.647083  0.813298  5.892964
H    -3.011468  -0.871673  7.068629
H    -3.922321  0.502215  7.039527
N    0.196500  3.004853  2.721212
C    1.256711  3.803894  3.339250
H    -0.754407  3.182822  3.040122
H    0.953039  4.856381  3.342190
H    2.180635  3.690392  2.768731
H    1.417748  3.474320  4.373604
Ca    2.770487  0.515881  0.123153
