34
Energy: -36754.3078464 eV PBE+vdW (tier 2 basis)
C    -0.227207  2.144679  1.361851
C    -0.041041  1.351285  2.610836
O    0.846362  1.693355  3.462939
H    -0.543006  3.160599  1.642024
H    -0.971861  1.716497  0.683221
H    0.731711  2.244202  0.837207
N    -0.824174  0.292271  2.826175
C    -0.948660  -0.491478  4.068967
C    0.226400  -1.486033  4.222488
O    1.391247  -1.020932  4.472699
H    -1.505221  0.065383  2.103202
H    -0.810431  0.212027  4.906551
C    -2.365283  -1.085430  4.162861
C    -2.896064  -1.813241  2.908002
C    -4.050428  -2.777944  3.220306
C    -5.322355  -2.107159  3.755223
N    -6.323575  -3.124904  4.041471
H    -3.043533  -0.261649  4.423094
H    -2.390077  -1.756252  5.035948
H    -2.096660  -2.377173  2.395455
H    -3.251153  -1.073647  2.168620
H    -3.725559  -3.537713  3.950475
H    -4.297846  -3.328057  2.300105
H    -5.642769  -1.324446  3.034441
H    -5.108155  -1.587681  4.702447
H    -7.093282  -2.748726  4.592491
H    -6.728367  -3.508244  3.187133
N    0.002035  -2.779978  4.142394
C    0.993801  -3.842012  4.315238
H    -0.954496  -3.069150  3.943674
H    0.643553  -4.538533  5.085987
H    1.947943  -3.405398  4.616083
H    1.116334  -4.386966  3.370948
Ca    2.384076  0.851583  4.628355
