34
Energy: -36754.7546679 eV PBE+vdW (tier 2 basis)
C    -0.538987  -0.328332  0.241966
C    -0.161325  0.340121  1.531533
O    1.078665  0.396914  1.865428
H    -0.536291  0.406662  -0.577810
H    -1.532349  -0.791564  0.270958
H    0.217410  -1.081017  -0.004038
N    -1.015111  0.950168  2.382892
C    -2.297027  1.482537  1.906345
C    -2.046587  2.952236  1.500939
O    -0.948926  3.507182  1.829242
H    -1.134720  -0.357585  3.723994
H    -2.656004  0.944432  1.012193
C    -3.368179  1.364315  3.009386
C    -3.807076  -0.103627  3.221962
C    -3.783315  -0.616327  4.670259
C    -2.442814  -0.510357  5.391646
N    -1.306338  -1.031735  4.531002
H    -4.241768  1.979559  2.764770
H    -2.949266  1.804368  3.927326
H    -3.189923  -0.764104  2.589676
H    -4.827068  -0.240981  2.841427
H    -4.118509  -1.664587  4.680518
H    -4.511926  -0.068158  5.285396
H    -2.445037  -1.086962  6.323495
H    -2.174340  0.525158  5.634369
H    -0.438922  -1.128225  5.072079
H    -1.526784  -1.959641  4.146230
N    -2.948177  3.641539  0.814690
C    -4.244389  3.210928  0.291756
H    -2.682076  4.610183  0.634358
H    -4.279992  2.123352  0.181395
H    -4.389309  3.660972  -0.696137
H    -5.060470  3.538678  0.948840
Ca    0.801221  2.453192  2.627500
