34
Energy: -36755.6083694 eV PBE+vdW (tier 2 basis)
C    -1.308063  -0.550401  -0.079472
C    -1.031541  -0.243635  1.360039
O    0.039840  0.343754  1.677286
H    -1.292988  0.386332  -0.652674
H    -2.262072  -1.059243  -0.250891
H    -0.492688  -1.175172  -0.469021
N    -1.957951  -0.625562  2.256515
C    -2.072718  -0.555922  3.735624
C    -1.848750  0.838336  4.332069
O    -0.751170  1.460472  4.204534
H    -2.754335  -1.094022  1.833447
H    -3.134535  -0.782324  3.881114
C    -1.339108  -1.669584  4.550267
C    0.124993  -1.510788  4.987172
C    1.188848  -1.807083  3.920710
C    2.610715  -1.407094  4.313917
N    2.748757  0.085137  4.516427
H    -1.469671  -2.605558  3.985980
H    -1.944226  -1.792573  5.460836
H    0.280725  -2.209129  5.822931
H    0.262341  -0.512708  5.434829
H    0.937370  -1.333734  2.957466
H    1.192282  -2.885659  3.704688
H    3.304246  -1.691462  3.513453
H    2.931230  -1.936603  5.222224
H    2.570944  0.289294  5.506036
H    3.740541  0.320188  4.403624
N    -2.816812  1.369442  5.070084
C    -4.157669  0.847507  5.362643
H    -2.572961  2.266982  5.489058
H    -4.741700  0.713313  4.444117
H    -4.673467  1.584186  5.984626
H    -4.107635  -0.093911  5.923298
Ca    1.154181  1.410012  3.171062
