34
Energy: -36753.5597131 eV PBE+vdW (tier 2 basis)
C    -0.304655  0.208575  0.317226
C    -0.360377  0.204832  1.802992
O    0.668239  0.536247  2.487579
H    -0.782132  1.139114  -0.032833
H    -0.871208  -0.611278  -0.137780
H    0.731372  0.204432  -0.031990
N    -1.488802  -0.128142  2.469816
C    -2.303606  -1.326696  2.190017
C    -1.331418  -2.541425  2.153285
O    -0.149422  -2.440751  2.640352
H    -1.457094  0.134221  3.454414
H    -2.888825  -1.466928  3.114266
C    -3.334548  -1.237565  1.050108
C    -4.319408  -0.060871  1.189629
C    -3.894042  1.263251  0.538736
C    -3.789501  1.210039  -0.993812
N    -5.014124  0.669723  -1.579938
H    -3.927480  -2.165571  1.086635
H    -2.847769  -1.229076  0.064915
H    -4.554253  0.099276  2.253416
H    -5.254963  -0.371835  0.707600
H    -2.950949  1.646872  0.959175
H    -4.649863  2.016470  0.809996
H    -2.964681  0.545749  -1.304451
H    -3.512427  2.219868  -1.352098
H    -5.788499  1.328307  -1.481751
H    -4.903012  0.505163  -2.579657
N    -1.760671  -3.681660  1.657526
C    -0.996320  -4.933617  1.639959
H    -2.697762  -3.691697  1.260028
H    -1.650145  -5.729565  1.274987
H    -0.654229  -5.182329  2.650771
H    -0.131785  -4.844020  0.971081
Ca    1.473851  -1.242683  3.377882
