34
Energy: -36754.2023663 eV PBE+vdW (tier 2 basis)
C    0.385628  -0.539866  0.548879
C    0.185229  -0.171779  1.980868
O    1.176790  -0.097359  2.779524
H    1.444510  -0.436964  0.293765
H    -0.224765  0.080923  -0.115983
H    0.094207  -1.589493  0.379173
N    -1.055658  0.053978  2.469039
C    -2.204267  -0.839999  2.208091
C    -1.743969  -2.289106  2.522968
O    -0.770290  -2.445048  3.366349
H    -1.051825  0.470515  3.399430
H    -2.915268  -0.587873  3.011738
C    -2.948332  -0.644416  0.876761
C    -4.477407  -0.800563  1.051288
C    -5.213243  -1.322027  -0.192178
C    -5.363234  -2.840447  -0.219970
N    -4.049282  -3.547300  -0.148395
H    -2.558501  -1.336857  0.119528
H    -2.727001  0.365813  0.509369
H    -4.885937  0.174947  1.347821
H    -4.694247  -1.478043  1.894003
H    -4.718184  -0.965417  -1.110227
H    -6.225792  -0.897954  -0.225106
H    -5.922026  -3.144973  -1.117069
H    -5.949175  -3.166992  0.651117
H    -4.228745  -4.555321  -0.163664
H    -3.529773  -3.367880  -1.013431
N    -2.346366  -3.309377  1.975453
C    -2.010599  -4.686041  2.342866
H    -3.085294  -3.242040  1.147298
H    -2.015206  -4.810675  3.431406
H    -1.023302  -4.970865  1.954760
H    -2.762578  -5.348753  1.905361
Ca    1.046820  -1.742285  4.187601
