34
Energy: -36752.7074676 eV PBE+vdW (tier 2 basis)
C    -0.478859  0.766577  0.061109
C    -0.292355  0.685893  1.546232
O    0.815415  0.904305  2.074843
H    -0.061994  1.712750  -0.303577
H    -1.521750  0.674492  -0.260842
H    0.107646  -0.039179  -0.402591
N    -1.392415  0.375509  2.296298
C    -1.399647  -0.088536  3.691053
C    -0.909198  0.950501  4.696471
O    -1.563911  1.095926  5.821686
H    -2.254297  0.217216  1.785688
H    -2.456482  -0.259557  3.932284
C    -0.619452  -1.417692  3.912925
C    -1.050815  -2.566041  2.995705
C    -2.502280  -3.031918  3.139819
C    -2.787280  -4.316543  2.339568
N    -2.005528  -5.437426  2.830530
H    -0.756572  -1.707572  4.967717
H    0.453264  -1.223928  3.775763
H    -0.392358  -3.420141  3.211211
H    -0.848141  -2.296456  1.947174
H    -3.213968  -2.262278  2.795838
H    -2.734610  -3.216779  4.203216
H    -2.525249  -4.155606  1.284224
H    -3.875087  -4.515718  2.365807
H    -1.812773  -6.155738  2.137698
H    -2.362685  -5.863032  3.683210
N    0.178164  1.618276  4.450044
C    0.785869  2.600317  5.336498
H    0.619896  1.366609  3.480548
H    1.650884  3.035480  4.828484
H    1.132905  2.127546  6.266210
H    0.079756  3.409160  5.570985
Ca    -2.424225  1.476035  7.589052
