34
Energy: -36754.4426864 eV PBE+vdW (tier 2 basis)
C    -3.116983  1.656077  0.767411
C    -1.742988  1.209549  1.169242
O    -0.721789  1.619533  0.591230
H    -3.134417  2.750835  0.709114
H    -3.912293  1.309838  1.436198
H    -3.317778  1.279953  -0.245634
N    -1.659981  0.332952  2.220294
C    -0.494369  -0.462474  2.616593
C    0.737541  0.325092  3.067336
O    1.477106  -0.215693  3.988793
H    -2.533935  0.071936  2.664313
H    -0.817102  -0.999531  3.518527
C    -0.094466  -1.505008  1.528662
C    0.867240  -2.616701  1.973296
C    0.270163  -3.632951  2.960368
C    1.277717  -4.616587  3.556694
N    1.954371  -4.052157  4.790146
H    0.320912  -0.971879  0.663600
H    -1.029175  -1.971877  1.184947
H    1.812192  -2.163978  2.355671
H    1.200964  -3.158485  1.076324
H    -0.497459  -4.210250  2.426070
H    -0.273337  -3.135362  3.783015
H    2.065822  -4.857957  2.830659
H    0.785825  -5.560753  3.823452
H    1.286907  -4.162256  5.564752
H    2.710719  -4.700047  5.044534
N    1.047424  1.448674  2.486178
C    2.191081  2.291489  2.810344
H    0.415264  1.680026  1.649043
H    2.500163  2.140598  3.849127
H    1.902382  3.337809  2.667209
H    3.030594  2.072483  2.136062
Ca    2.668146  -1.729286  4.703637
