34
Energy: -36755.461754 eV PBE+vdW (tier 2 basis)
C    1.167657  -0.378776  3.061018
C    0.047019  0.463064  2.553656
O    0.147535  1.725262  2.504693
H    1.390624  -0.092052  4.097996
H    2.069692  -0.162470  2.472424
H    0.957860  -1.452450  3.020991
N    -1.083921  -0.138108  2.134621
C    -2.203319  0.613351  1.563921
C    -3.089325  1.213835  2.673434
O    -2.822998  2.399050  3.044894
H    -1.136606  -1.153202  2.173047
H    -1.726604  1.495912  1.125898
C    -2.884023  -0.096574  0.379605
C    -2.227445  0.349367  -0.942157
C    -2.721643  1.698496  -1.512200
C    -2.737987  2.950582  -0.625057
N    -1.380364  3.430866  -0.135220
H    -3.956752  0.145983  0.364482
H    -2.818118  -1.188832  0.493031
H    -2.419466  -0.408536  -1.712834
H    -1.131090  0.346713  -0.814098
H    -3.760507  1.566837  -1.852702
H    -2.144793  1.917489  -2.423827
H    -3.390652  2.804208  0.248707
H    -3.193260  3.767753  -1.197438
H    -0.659693  2.816410  -0.530816
H    -1.192692  4.329309  -0.591941
N    -4.068345  0.497621  3.198325
C    -4.961579  0.938375  4.272766
H    -4.226657  -0.433320  2.819004
H    -4.863522  0.264037  5.131788
H    -5.998958  0.920201  3.918397
H    -4.690382  1.954158  4.568009
Ca    -1.058686  3.532441  2.343584
