34
Energy: -36752.6881242 eV PBE+vdW (tier 2 basis)
C    0.744605  0.118953  -0.030835
C    0.398077  -0.466307  1.297668
O    1.109515  -1.469777  1.750920
H    0.073225  0.937317  -0.308636
H    0.691403  -0.658550  -0.805512
H    1.775349  0.499827  -0.009516
N    -0.596059  0.019926  1.982484
C    -1.156210  -0.389480  3.269348
C    -2.565624  0.282557  3.222711
O    -2.772120  1.126859  2.339884
H    -1.234104  0.762680  1.595543
H    -1.258319  -1.485036  3.279189
C    -0.317182  0.069621  4.490907
C    -0.420236  1.545711  4.894634
C    0.152474  2.577988  3.917510
C    0.018535  4.013421  4.450963
N    -1.374661  4.392375  4.613109
H    0.734536  -0.205841  4.304995
H    -0.639075  -0.548982  5.342408
H    0.101775  1.648351  5.858807
H    -1.468583  1.804693  5.105003
H    -0.362515  2.528198  2.944751
H    1.218751  2.377926  3.723154
H    0.566592  4.695728  3.772736
H    0.507718  4.091777  5.432456
H    -1.525705  5.178637  5.240093
H    -1.876749  4.540482  3.739552
N    -3.448734  -0.090814  4.153719
C    -4.784547  0.493737  4.274748
H    -3.168334  -0.778004  4.845595
H    -5.517359  -0.301167  4.449014
H    -5.023363  1.013108  3.343004
H    -4.820742  1.209455  5.106054
Ca    2.389333  -2.990785  2.025638
