34
Energy: -36755.0301759 eV PBE+vdW (tier 2 basis)
C    0.549297  1.981941  1.078318
C    0.179019  1.049537  2.184185
O    1.044576  0.728989  3.065231
H    0.812982  2.953681  1.521162
H    -0.253213  2.131479  0.348846
H    1.446354  1.614055  0.564315
N    -1.068311  0.577784  2.233644
C    -1.719629  -0.164763  3.331180
C    -1.338938  -1.661472  3.309813
O    -0.091641  -1.953524  3.471448
H    -1.691803  0.866152  1.482410
H    -1.284046  0.213779  4.271120
C    -3.221389  0.149910  3.323971
C    -3.926570  0.013323  1.955293
C    -5.423307  -0.333735  2.063674
C    -5.712326  -1.833174  2.070820
N    -5.001029  -2.549394  3.167563
H    -3.352273  1.173847  3.700811
H    -3.691462  -0.494440  4.076661
H    -3.437541  -0.753698  1.330810
H    -3.831848  0.962590  1.405726
H    -5.962032  0.094206  1.207839
H    -5.857060  0.147541  2.954982
H    -5.370949  -2.276617  1.124105
H    -6.798855  -1.996555  2.127460
H    -5.386544  -2.252021  4.069182
H    -5.234344  -3.544285  3.106910
N    -2.243218  -2.597361  3.191891
C    -1.881189  -4.015519  3.221526
H    -3.324465  -2.419024  3.149985
H    -2.785072  -4.601262  3.033345
H    -1.471819  -4.296679  4.200461
H    -1.138271  -4.244090  2.448650
Ca    1.762943  -1.073405  3.901490
