34
Energy: -36754.2469257 eV PBE+vdW (tier 2 basis)
C    1.393658  1.544668  1.014858
C    0.859452  0.209004  1.395557
O    1.359491  -0.853482  0.895263
H    2.213795  1.774718  1.716302
H    0.661181  2.351228  1.111712
H    1.823018  1.523078  0.008819
N    -0.147488  0.087200  2.290990
C    -1.406752  0.858676  2.232332
C    -1.970945  0.728700  0.787845
O    -1.555484  -0.262368  0.061163
H    -0.262141  -0.868488  2.627131
H    -2.097015  0.273443  2.861434
C    -1.369192  2.281665  2.818067
C    -2.674096  2.623268  3.566112
C    -3.016882  4.116832  3.591890
C    -3.145716  4.758836  2.208848
N    -3.938566  3.905215  1.279101
H    -0.517716  2.345128  3.507290
H    -1.176380  3.010228  2.018482
H    -2.604156  2.248794  4.596939
H    -3.514881  2.072906  3.114911
H    -2.263227  4.678695  4.162550
H    -3.960724  4.241213  4.143497
H    -2.159375  4.908091  1.745762
H    -3.591113  5.758621  2.313471
H    -4.869448  3.746434  1.677773
H    -4.108246  4.432341  0.418204
N    -2.863104  1.570514  0.341910
C    -3.476795  1.407079  -0.977271
H    -3.224910  2.475870  0.874111
H    -2.743548  1.573449  -1.777323
H    -4.275898  2.147647  -1.073400
H    -3.905531  0.404362  -1.088565
Ca    -0.108613  -1.720527  -0.435045
