34
Energy: -36755.3346769 eV PBE+vdW (tier 2 basis)
C    -0.026340  1.331897  0.999005
C    -0.432077  0.735891  2.302799
O    0.241153  0.941543  3.356777
H    0.027022  2.423842  1.108889
H    -0.706685  1.083629  0.178018
H    0.986448  0.989337  0.746201
N    -1.543694  -0.029677  2.357779
C    -2.015651  -0.545314  3.640069
C    -1.258610  -1.828713  4.044414
O    -0.329398  -1.697114  4.905242
H    -2.097701  -0.148682  1.513783
H    -1.627116  0.196883  4.348151
C    -3.526231  -0.501596  3.911462
C    -3.739824  -0.254966  5.421022
C    -3.236454  1.134296  5.888977
C    -2.480359  1.182105  7.214456
N    -1.180793  0.405138  7.214028
H    -4.044502  -1.413482  3.593791
H    -3.959233  0.329606  3.334877
H    -3.250925  -1.068512  5.983564
H    -4.807620  -0.358264  5.648020
H    -4.096354  1.810772  5.989758
H    -2.610446  1.611425  5.113611
H    -3.116856  0.813917  8.032419
H    -2.227407  2.223771  7.447421
H    -1.424384  -0.590327  7.290343
H    -0.740207  0.606436  8.120091
N    -1.521434  -3.017395  3.526580
C    -2.494657  -3.403680  2.504759
H    -0.934206  -3.767914  3.894670
H    -3.341116  -3.933058  2.960446
H    -2.004538  -4.073165  1.789032
H    -2.864682  -2.531634  1.961450
Ca    0.547812  0.256005  5.426328
