34
Energy: -36754.4492964 eV PBE+vdW (tier 2 basis)
C    1.544104  -1.471217  2.231141
C    0.638395  -0.470752  2.868494
O    0.990725  0.102424  3.949152
H    1.161686  -1.869302  1.285899
H    1.693495  -2.302701  2.935021
H    2.529190  -1.016388  2.062718
N    -0.532494  -0.203290  2.279128
C    -1.675565  0.603755  2.770929
C    -1.359253  2.105475  2.780700
O    -0.562105  2.587069  3.655332
H    -0.714550  -0.726012  1.426476
H    -2.460911  0.428157  2.027014
C    -2.240402  0.137015  4.123249
C    -3.563805  0.826980  4.485315
C    -4.267608  0.204100  5.703166
C    -4.917118  -1.161601  5.449238
N    -3.920523  -2.214710  5.165949
H    -1.507705  0.282782  4.939998
H    -2.416870  -0.951758  4.082293
H    -4.245187  0.763787  3.619282
H    -3.401904  1.902298  4.668483
H    -5.053896  0.896063  6.036869
H    -3.561784  0.126980  6.548632
H    -5.579157  -1.084364  4.573782
H    -5.567312  -1.403528  6.306812
H    -3.512295  -2.549738  6.041015
H    -4.383311  -3.027463  4.757030
N    -1.952647  2.920590  1.927053
C    -2.909009  2.602978  0.858124
H    -1.722665  3.906834  2.056965
H    -2.521127  1.817971  0.199825
H    -3.051125  3.506281  0.258623
H    -3.879653  2.306370  1.274057
Ca    0.790189  1.841896  5.110761
