34
Energy: -36755.7502042 eV PBE+vdW (tier 2 basis)
C    -0.808208  -0.124580  -0.330679
C    -1.020258  -0.430169  1.119359
O    -0.366471  -1.364683  1.664483
H    0.252284  0.108032  -0.496082
H    -1.419222  0.703415  -0.704040
H    -1.031010  -1.027168  -0.916044
N    -1.916051  0.321745  1.782030
C    -2.428037  0.284838  3.176802
C    -1.324209  0.459991  4.234559
O    -0.375575  -0.364054  4.380605
H    -2.364308  1.030582  1.208193
H    -3.031294  1.201183  3.228413
C    -3.450173  -0.851190  3.458339
C    -3.024813  -2.330124  3.422848
C    -2.473993  -2.892021  4.744949
C    -1.880455  -4.296629  4.640779
N    -0.677799  -4.340392  3.727063
H    -4.244470  -0.700520  2.713282
H    -3.916362  -0.621972  4.429652
H    -2.331261  -2.492968  2.583751
H    -3.916568  -2.917032  3.158605
H    -3.287969  -2.927745  5.484230
H    -1.728631  -2.213403  5.196919
H    -2.636736  -5.015649  4.296042
H    -1.550438  -4.627956  5.632626
H    -0.101561  -5.139931  4.009284
H    -0.998253  -4.600248  2.787646
N    -1.443879  1.513080  5.033418
C    -0.541483  1.826979  6.142069
H    -2.203280  2.165130  4.857378
H    -0.102718  0.903418  6.528742
H    -1.113775  2.322189  6.932474
H    0.260027  2.497025  5.804862
Ca    0.452951  -2.164170  3.482442
