34
Energy: -36752.7771923 eV PBE+vdW (tier 2 basis)
C    -0.686685  -1.929980  0.411216
C    -0.564891  -1.129922  1.672841
O    0.066923  -1.557781  2.658686
H    0.286247  -2.369040  0.164843
H    -1.061162  -1.353030  -0.441513
H    -1.380001  -2.762772  0.599200
N    -1.175501  0.093395  1.692722
C    -1.504549  0.882616  2.888851
C    -0.282205  1.402899  3.643364
O    -0.285067  2.641756  4.066482
H    -1.671791  0.361348  0.849732
H    -2.023876  1.773852  2.512055
C    -2.451454  0.151622  3.880818
C    -3.777951  -0.268157  3.244001
C    -4.704969  -0.981848  4.235370
C    -5.962925  -1.554588  3.567236
N    -5.636052  -2.608867  2.619775
H    -2.634613  0.830367  4.730334
H    -1.931323  -0.726794  4.289354
H    -3.592029  -0.947699  2.399152
H    -4.292875  0.615516  2.830000
H    -5.017074  -0.293427  5.035310
H    -4.158683  -1.801550  4.730847
H    -6.495223  -0.761330  3.022596
H    -6.650605  -1.903448  4.361228
H    -6.373410  -2.806735  1.947407
H    -5.329289  -3.476675  3.056701
N    0.700522  0.593580  3.905792
C    1.902296  0.936344  4.653229
H    0.544716  -0.407040  3.496658
H    2.565664  0.067148  4.656979
H    1.657266  1.190190  5.694048
H    2.432906  1.775062  4.181522
Ca    -0.125804  4.519476  4.748934
