34
Energy: -36752.8093075 eV PBE+vdW (tier 2 basis)
C    -0.496320  -0.393799  -0.409424
C    -0.280176  0.223963  0.928688
O    0.950677  0.507975  1.288948
H    0.011076  0.206429  -1.176006
H    -1.554459  -0.485993  -0.667986
H    -0.042507  -1.395204  -0.425328
N    -1.240487  0.499710  1.762665
C    -2.695427  0.327365  1.671934
C    -3.175068  1.318728  2.777877
O    -2.347588  1.666292  3.635959
H    -1.066445  0.977199  2.687303
H    -3.051495  0.644300  0.682072
C    -3.083899  -1.143310  1.971176
C    -4.581971  -1.474289  1.933007
C    -5.277139  -1.210840  0.593419
C    -6.738847  -1.680249  0.587486
N    -7.396414  -1.335751  -0.658378
H    -2.677303  -1.401654  2.960214
H    -2.558111  -1.776743  1.239211
H    -5.105197  -0.947416  2.745520
H    -4.671695  -2.542634  2.181142
H    -4.729198  -1.720646  -0.217485
H    -5.275042  -0.139041  0.328386
H    -7.287629  -1.190628  1.405456
H    -6.766156  -2.767302  0.804132
H    -7.079143  -1.868172  -1.466178
H    -8.412350  -1.350392  -0.612894
N    -4.448328  1.719673  2.729158
C    -5.058963  2.603603  3.720828
H    -5.029017  1.388537  1.965097
H    -5.507475  3.470471  3.222166
H    -4.281322  2.940871  4.410631
H    -5.834352  2.069273  4.283645
Ca    2.815909  0.974900  1.841710
