34
Energy: -36752.752286 eV PBE+vdW (tier 2 basis)
C    0.277797  -0.332990  0.271357
C    0.411705  0.543712  1.468175
O    1.259952  1.544624  1.410592
H    0.074637  0.284599  -0.613616
H    -0.513399  -1.079780  0.375776
H    1.229802  -0.853738  0.094460
N    -0.265128  0.376074  2.567925
C    -1.291570  -0.607480  2.938744
C    -2.000973  0.138798  4.109736
O    -1.362423  1.027313  4.695533
H    -0.179090  1.032601  3.385395
H    -1.983618  -0.763082  2.098819
C    -0.640906  -1.947452  3.362225
C    -1.633146  -3.065100  3.741031
C    -1.898938  -3.235947  5.246491
C    -0.767473  -3.958135  5.992578
N    -0.563268  -5.300686  5.477171
H    0.053887  -1.744668  4.191626
H    -0.019888  -2.279237  2.517436
H    -1.232486  -4.018705  3.369071
H    -2.582203  -2.924578  3.198591
H    -2.827245  -3.813350  5.378636
H    -2.073369  -2.268745  5.740179
H    -1.003491  -3.945973  7.074411
H    0.181386  -3.409768  5.884852
H    -1.347763  -5.931173  5.636260
H    0.299262  -5.741761  5.786936
N    -3.252665  -0.228976  4.399119
C    -4.019640  0.320350  5.515035
H    -3.673013  -0.976653  3.856667
H    -3.502009  1.206551  5.890967
H    -4.106308  -0.416920  6.324016
H    -5.022592  0.597908  5.172796
Ca    2.514247  3.097987  1.274309
