34
Energy: -36753.757706 eV PBE+vdW (tier 2 basis)
C    -0.098186  0.713048  -0.175055
C    -0.159854  0.047940  1.156176
O    0.888151  -0.058249  1.880217
H    0.036715  1.799627  -0.064657
H    -0.974379  0.515045  -0.799757
H    0.801928  0.343280  -0.686317
N    -1.320381  -0.456316  1.627976
C    -2.576377  0.290007  1.600960
C    -2.462694  1.404826  2.680948
O    -1.360492  1.597515  3.304851
H    -1.211488  -1.070871  2.437340
H    -2.652321  0.793917  0.625039
C    -3.787900  -0.644136  1.776700
C    -3.879414  -1.715984  0.681144
C    -3.958621  -1.154676  -0.739023
C    -4.128080  -2.233894  -1.816786
N    -3.991565  -1.639654  -3.143736
H    -4.705124  -0.035072  1.757097
H    -3.749182  -1.107400  2.776134
H    -4.769498  -2.325048  0.896968
H    -3.022722  -2.404105  0.764290
H    -3.042896  -0.598173  -1.003285
H    -4.791035  -0.433487  -0.812923
H    -5.085051  -2.764665  -1.649568
H    -3.331642  -2.984327  -1.700317
H    -3.821540  -2.352728  -3.851530
H    -4.839315  -1.145999  -3.424248
N    -3.515775  2.157264  2.921778
C    -3.558558  3.261694  3.886973
H    -4.369181  1.948612  2.408526
H    -4.531608  3.752113  3.803882
H    -2.769125  3.988992  3.666616
H    -3.433924  2.881203  4.907875
Ca    0.709787  1.133185  3.660418
