34
Energy: -36754.025953 eV PBE+vdW (tier 2 basis)
C    -1.323128  -1.284268  0.478712
C    -0.690592  -0.627978  1.653290
O    0.523905  -0.881580  1.968479
H    -0.625684  -1.344896  -0.364395
H    -2.265540  -0.816510  0.175903
H    -1.538365  -2.323605  0.780185
N    -1.391086  0.230414  2.425303
C    -2.206295  1.308934  1.872068
C    -1.233266  2.343196  1.259625
O    0.029745  2.111583  1.215290
H    -0.940141  0.443682  3.318082
H    -2.840516  0.907444  1.040707
C    -3.163653  1.908003  2.935358
C    -4.529793  2.352813  2.378211
C    -5.595665  1.245679  2.273147
C    -5.212563  -0.036255  1.530408
N    -4.602373  0.232374  0.207381
H    -2.670133  2.745968  3.449541
H    -3.328802  1.133821  3.698775
H    -4.414378  2.831215  1.388633
H    -4.927989  3.142403  3.028956
H    -6.488610  1.683955  1.801914
H    -5.909729  0.959651  3.288009
H    -6.112724  -0.666189  1.455065
H    -4.485266  -0.618650  2.121263
H    -4.630237  -0.617991  -0.359298
H    -5.175521  0.904622  -0.309131
N    -1.742864  3.456294  0.772024
C    -1.004544  4.553212  0.145324
H    -2.752516  3.569902  0.860775
H    0.011607  4.227119  -0.084756
H    -0.970069  5.417224  0.820978
H    -1.514014  4.843877  -0.779964
Ca    1.718037  0.865890  1.623782
