34
Energy: -36754.3971963 eV PBE+vdW (tier 2 basis)
C    -0.686418  -0.946731  -0.525787
C    -0.586101  -0.584042  0.918460
O    0.512569  -0.753691  1.538389
H    -1.664777  -0.728578  -0.965682
H    -0.477711  -2.021232  -0.630589
H    0.092148  -0.416280  -1.089994
N    -1.668060  -0.085591  1.528404
C    -1.894074  0.190303  2.967335
C    -1.090234  1.395582  3.464868
O    0.177456  1.314345  3.598721
H    -2.493695  -0.002956  0.941404
H    -2.957513  0.446336  3.021147
C    -1.673833  -1.023543  3.891052
C    -2.561438  -2.231032  3.571276
C    -4.074765  -1.984733  3.697161
C    -4.520471  -1.333684  5.015617
N    -3.848019  -1.945716  6.164958
H    -1.869327  -0.704849  4.927199
H    -0.617599  -1.345913  3.864008
H    -2.269047  -3.017257  4.279273
H    -2.334281  -2.623187  2.568035
H    -4.573102  -2.959354  3.586991
H    -4.456948  -1.379609  2.857565
H    -5.623853  -1.364488  5.057981
H    -4.256832  -0.260382  5.020215
H    -4.134755  -1.489342  7.031294
H    -4.126924  -2.923956  6.263695
N    -1.709592  2.509143  3.815229
C    -3.142984  2.825679  3.756342
H    -1.095995  3.231148  4.195486
H    -3.544063  2.659608  2.750353
H    -3.260380  3.885962  3.996124
H    -3.707353  2.240157  4.492680
Ca    1.723558  -0.056194  3.112597
