34
Energy: -36753.7370453 eV PBE+vdW (tier 2 basis)
C    0.598137  2.191574  1.161606
C    0.191188  1.901156  2.565759
O    0.942680  2.242164  3.545167
H    0.417617  3.249471  0.913884
H    0.081948  1.564061  0.428736
H    1.681760  2.033807  1.083164
N    -0.979871  1.290056  2.834925
C    -2.241575  1.661801  2.199397
C    -2.564983  3.118628  2.652942
O    -1.816184  3.722700  3.498126
H    -1.074343  0.943686  3.791444
H    -2.102420  1.672452  1.107273
C    -3.365844  0.668031  2.557406
C    -3.201400  -0.744600  1.986383
C    -2.117773  -1.633516  2.608206
C    -2.360541  -3.120412  2.271409
N    -3.655133  -3.558891  2.785137
H    -4.312443  1.088423  2.186256
H    -3.470696  0.632602  3.656181
H    -3.064056  -0.686219  0.893947
H    -4.157919  -1.266391  2.148563
H    -2.132273  -1.525600  3.708205
H    -1.107336  -1.359027  2.268645
H    -1.507283  -3.710228  2.647657
H    -2.362364  -3.239887  1.178061
H    -4.056677  -4.304363  2.220838
H    -3.588867  -3.906562  3.740586
N    -3.625952  3.711223  2.146263
C    -4.075070  5.066993  2.483701
H    -4.190313  3.182481  1.484687
H    -4.948167  5.301867  1.869911
H    -3.281900  5.793414  2.273102
H    -4.353688  5.123487  3.542680
Ca    -0.000476  3.819388  4.648611
