34
Energy: -36754.9044667 eV PBE+vdW (tier 2 basis)
C    -1.442910  -0.978579  0.200460
C    -1.061776  -0.592372  1.593004
O    0.187598  -0.445011  1.866190
H    -1.093411  -0.207366  -0.499573
H    -2.521860  -1.106898  0.077587
H    -0.925884  -1.909733  -0.068660
N    -2.025998  -0.422418  2.480807
C    -1.910347  -0.223272  3.935995
C    -1.115426  1.018750  4.358017
O    0.158173  1.051491  4.330991
H    -3.019540  -0.838553  2.244956
H    -2.949029  -0.038514  4.251351
C    -1.443752  -1.490747  4.686756
C    -2.468657  -2.641447  4.694592
C    -2.728598  -3.378158  3.356549
C    -4.090217  -3.146866  2.689328
N    -4.380428  -1.720849  2.332762
H    -1.233895  -1.204851  5.728643
H    -0.491226  -1.846207  4.260207
H    -3.415646  -2.268554  5.118738
H    -2.102186  -3.369076  5.430327
H    -2.672912  -4.459807  3.540527
H    -1.918591  -3.173549  2.639718
H    -4.887639  -3.537686  3.337584
H    -4.126061  -3.736346  1.764724
H    -4.922663  -1.690422  1.467316
H    -4.998136  -1.309930  3.035479
N    -1.806772  2.046629  4.823067
C    -1.233873  3.290809  5.338932
H    -2.820752  1.972396  4.814473
H    -1.853799  3.646557  6.167840
H    -1.213729  4.056708  4.552786
H    -0.218116  3.103451  5.696072
Ca    1.692956  0.243909  3.107162
