34
Energy: -36754.3488696 eV PBE+vdW (tier 2 basis)
C    0.259471  0.691418  0.233540
C    0.046795  0.579457  1.704997
O    0.918895  1.033782  2.518338
H    0.317284  1.758389  -0.027598
H    -0.534685  0.223302  -0.356910
H    1.225855  0.246117  -0.036629
N    -1.073065  0.009126  2.157299
C    -1.545160  -0.023102  3.556008
C    -0.773531  -1.099107  4.351152
O    0.418795  -0.845617  4.735068
H    -1.732497  -0.326188  1.457594
H    -1.255924  0.936427  4.015609
C    -3.074057  -0.137321  3.586341
C    -3.792834  1.093399  3.007324
C    -5.318736  0.936471  2.971067
C    -5.999716  0.925500  4.345003
N    -7.428587  0.695305  4.182632
H    -3.380692  -0.278390  4.632773
H    -3.398783  -1.038304  3.033106
H    -3.436176  1.290617  1.983914
H    -3.518551  1.980038  3.603049
H    -5.597423  0.017609  2.431433
H    -5.730501  1.768256  2.379924
H    -5.737519  1.862181  4.881507
H    -5.609730  0.097212  4.959654
H    -7.891426  0.541266  5.076936
H    -7.891607  1.487347  3.736434
N    -1.363384  -2.244446  4.622588
C    -0.782258  -3.361160  5.369375
H    -2.323272  -2.353911  4.298906
H    -1.442662  -3.617209  6.206040
H    0.199757  -3.073136  5.749302
H    -0.686114  -4.233152  4.710792
Ca    1.949143  0.570025  4.298960
