34
Energy: -36753.7603275 eV PBE+vdW (tier 2 basis)
C    0.442483  0.335468  0.487325
C    0.402374  0.389670  1.975470
O    1.479611  0.495068  2.653985
H    0.658344  1.331135  0.069479
H    -0.482335  -0.047632  0.046513
H    1.282628  -0.309500  0.196256
N    -0.773754  0.348932  2.636435
C    -1.932270  1.164370  2.263747
C    -1.508110  2.647342  2.377193
O    -0.413050  2.954538  2.978515
H    -0.686065  0.196595  3.643050
H    -2.208044  0.948198  1.220952
C    -3.124447  0.819884  3.181793
C    -3.666757  -0.587479  2.928444
C    -4.885879  -0.925862  3.791588
C    -5.601107  -2.188641  3.285165
N    -6.098041  -1.985798  1.920494
H    -3.922882  1.556010  3.016684
H    -2.810404  0.954155  4.232406
H    -2.876768  -1.337922  3.095272
H    -3.973158  -0.678923  1.872909
H    -5.599961  -0.085326  3.770131
H    -4.597100  -1.063364  4.844723
H    -6.387593  -2.460375  4.009979
H    -4.890285  -3.028243  3.269395
H    -6.244394  -2.876327  1.447788
H    -7.002051  -1.512748  1.928232
N    -2.263291  3.604702  1.873724
C    -3.520653  3.497108  1.126954
H    -1.925742  4.552279  2.049057
H    -4.371267  3.731071  1.779692
H    -3.647749  2.494938  0.709722
H    -3.496361  4.219904  0.304354
Ca    1.548099  2.407396  3.647271
