34
Energy: -36754.7588769 eV PBE+vdW (tier 2 basis)
C    -1.176396  -0.669738  -0.025627
C    -1.192582  -0.822200  1.467352
O    -0.327571  -1.591061  2.026160
H    -2.170969  -0.490202  -0.451705
H    -0.734136  -1.566230  -0.472458
H    -0.535963  0.179616  -0.310053
N    -2.020061  -0.173553  2.315232
C    -2.632768  1.101905  1.931172
C    -1.632120  2.208207  2.338345
O    -0.648077  1.909887  3.088048
H    -3.203833  -1.427202  2.803160
H    -2.779412  1.173075  0.839909
C    -3.999344  1.296396  2.633131
C    -5.223568  0.830778  1.829657
C    -5.331596  -0.649278  1.424228
C    -5.337983  -1.651208  2.581065
N    -3.947835  -2.198263  2.856110
H    -4.153871  2.357740  2.867968
H    -3.941970  0.799338  3.615506
H    -5.294104  1.432986  0.911091
H    -6.119323  1.090979  2.413481
H    -4.554838  -0.930224  0.693357
H    -6.278702  -0.773066  0.882144
H    -5.973759  -2.518415  2.371523
H    -5.689230  -1.196718  3.515805
H    -3.904807  -2.670413  3.766964
H    -3.693804  -2.896884  2.146259
N    -1.782486  3.457183  1.918343
C    -2.810734  4.018911  1.043511
H    -1.082445  4.106750  2.278114
H    -3.594277  4.517231  1.629273
H    -3.263188  3.240316  0.422679
H    -2.343908  4.757314  0.383174
Ca    -0.058516  -0.124533  3.658665
