34
Energy: -36752.6359622 eV PBE+vdW (tier 2 basis)
C    -0.062571  0.655942  0.007183
C    0.012199  0.121908  1.394541
O    1.202146  -0.147565  1.866290
H    -1.081247  0.808180  -0.346758
H    0.447286  -0.029813  -0.678571
H    0.464271  1.623080  -0.010144
N    -1.000818  0.077340  2.251384
C    -2.398239  -0.212994  1.904236
C    -2.348242  -1.553806  1.090102
O    -1.289757  -1.893700  0.549896
H    -0.728583  -0.215976  3.188439
H    -2.892492  -0.386050  2.870508
C    -3.162567  0.929158  1.187026
C    -4.658634  0.961807  1.522403
C    -5.371457  2.169232  0.902001
C    -6.856090  2.251003  1.281782
N    -7.037869  2.440144  2.712621
H    -3.036309  0.853758  0.097585
H    -2.706179  1.879916  1.500505
H    -4.799641  0.987281  2.614445
H    -5.153515  0.045574  1.159069
H    -5.295862  2.135144  -0.195503
H    -4.867001  3.098024  1.216816
H    -7.368628  1.321183  0.994855
H    -7.323109  3.059145  0.686957
H    -6.778826  3.368119  3.043706
H    -7.969494  2.206332  3.047566
N    -3.498307  -2.238949  1.031777
C    -3.671414  -3.474774  0.270913
H    -4.301112  -1.879539  1.537941
H    -3.956910  -4.295138  0.940306
H    -2.724150  -3.717029  -0.217167
H    -4.449319  -3.345459  -0.491255
Ca    3.070620  -0.859150  2.044594
