34
Energy: -36754.4717895 eV PBE+vdW (tier 2 basis)
C    0.643655  1.048632  0.517337
C    0.313887  0.296904  1.761970
O    1.102917  0.335921  2.765290
H    0.695537  2.119815  0.761451
H    -0.086786  0.901278  -0.284575
H    1.640105  0.755638  0.161494
N    -0.820320  -0.405058  1.817287
C    -1.402328  -1.047763  3.013999
C    -0.649601  -2.357885  3.331062
O    0.472594  -2.294937  3.942203
H    -1.415775  -0.386221  0.991039
H    -1.195970  -0.384668  3.868794
C    -2.919833  -1.163230  2.835290
C    -3.701524  -1.565372  4.094561
C    -3.583608  -0.589160  5.278112
C    -3.829151  0.888143  4.931982
N    -4.998556  1.040341  4.064501
H    -3.155603  -1.846637  1.999276
H    -3.296420  -0.177969  2.517010
H    -3.428395  -2.576676  4.434566
H    -4.752837  -1.625399  3.786360
H    -2.601865  -0.677531  5.774697
H    -4.310861  -0.909223  6.039071
H    -2.963055  1.301215  4.383764
H    -3.878807  1.458357  5.877663
H    -5.850696  0.756449  4.551530
H    -5.135322  2.018741  3.810607
N    -1.178108  -3.506512  2.967625
C    -0.606487  -4.834081  3.193640
H    -2.088668  -3.464659  2.512440
H    -1.336859  -5.454343  3.726335
H    0.303138  -4.742027  3.790189
H    -0.374758  -5.304509  2.230076
Ca    1.971983  -0.831270  4.287945
