34
Energy: -36753.6427498 eV PBE+vdW (tier 2 basis)
C    -0.774142  1.628564  -0.873761
C    -0.749208  0.680139  0.275149
O    0.271815  -0.051509  0.494083
H    -0.135065  2.501053  -0.666603
H    -1.781194  1.971255  -1.128110
H    -0.330033  1.120489  -1.740350
N    -1.801465  0.590744  1.118933
C    -2.464437  1.762884  1.695540
C    -1.401278  2.540190  2.511026
O    -0.276338  1.984120  2.782213
H    -1.756835  -0.207569  1.755346
H    -2.834219  2.406079  0.883283
C    -3.649502  1.307504  2.573038
C    -4.782926  0.657325  1.771928
C    -5.914882  0.167211  2.679815
C    -7.065871  -0.487856  1.902114
N    -8.063442  -1.007713  2.823138
H    -4.036870  2.174194  3.125401
H    -3.268185  0.613487  3.342394
H    -4.392152  -0.188607  1.183134
H    -5.171707  1.385364  1.040566
H    -6.310293  1.011629  3.268472
H    -5.533300  -0.565607  3.407331
H    -6.673304  -1.334450  1.319041
H    -7.468246  0.238947  1.167360
H    -8.646306  -0.280244  3.234256
H    -8.672073  -1.701123  2.394105
N    -1.642263  3.765216  2.939786
C    -2.824853  4.605688  2.730588
H    -0.900740  4.169191  3.513771
H    -3.465485  4.591987  3.621537
H    -3.398919  4.269274  1.863330
H    -2.490765  5.633204  2.551310
Ca    1.248737  0.530892  2.336015
