34
Energy: -36755.7096126 eV PBE+vdW (tier 2 basis)
C    -0.588941  0.396392  -0.069537
C    -0.769935  0.009809  1.363709
O    0.031738  -0.801539  1.908684
H    -0.609691  -0.510665  -0.688428
H    0.407666  0.842065  -0.192874
H    -1.343348  1.099607  -0.436471
N    -1.801252  0.557545  2.032566
C    -2.214991  0.395308  3.446694
C    -1.038191  0.547420  4.432869
O    -0.319261  -0.441375  4.764159
H    -2.385972  1.185141  1.487539
H    -2.869620  1.259238  3.622093
C    -3.060493  -0.869110  3.759531
C    -2.752872  -2.166963  2.986748
C    -3.046302  -3.449437  3.777282
C    -2.059034  -3.778859  4.894656
N    -0.671257  -4.060166  4.365721
H    -4.113782  -0.613964  3.583963
H    -2.979449  -1.035456  4.843793
H    -1.714245  -2.187959  2.617864
H    -3.341247  -2.178883  2.059490
H    -3.096250  -4.300352  3.079740
H    -4.049330  -3.386058  4.224581
H    -2.424067  -4.651329  5.453317
H    -1.972142  -2.952609  5.615638
H    -0.760046  -4.797479  3.655260
H    -0.153215  -4.524166  5.121564
N    -0.858962  1.747412  4.966691
C    0.165000  2.086616  5.955675
H    -1.480736  2.496002  4.671549
H    -0.275876  2.743798  6.712432
H    1.002326  2.607437  5.473567
H    0.524745  1.170877  6.430667
Ca    0.544030  -2.056297  3.609266
