34
Energy: -36754.4719494 eV PBE+vdW (tier 2 basis)
C    0.141700  1.385894  0.518246
C    -0.252552  0.143144  1.208875
O    0.505920  -0.888071  1.191600
H    -0.291432  2.286627  0.969279
H    -0.282422  1.306601  -0.525761
H    1.229338  1.476004  0.452504
N    -1.462222  0.104494  1.796642
C    -2.304048  -1.057714  2.152343
C    -1.820250  -1.785047  3.410203
O    -0.667367  -2.333991  3.449438
H    -1.964179  0.987448  1.769523
H    -3.279977  -0.613935  2.381824
C    -2.522164  -2.073892  1.001719
C    -3.499938  -1.609025  -0.095090
C    -3.104334  -0.384984  -0.934518
C    -1.872093  -0.582403  -1.823313
N    -1.304059  0.711935  -2.229051
H    -2.927784  -2.993615  1.450798
H    -1.550037  -2.351327  0.567539
H    -4.480194  -1.420835  0.369688
H    -3.657632  -2.469069  -0.763550
H    -2.948463  0.498154  -0.295185
H    -3.964076  -0.125307  -1.569616
H    -2.148078  -1.226487  -2.676897
H    -1.081180  -1.126478  -1.279071
H    -0.597891  0.583614  -2.955947
H    -2.023448  1.309149  -2.642717
N    -2.628397  -1.908566  4.449196
C    -3.988101  -1.381867  4.632381
H    -2.248177  -2.467834  5.213752
H    -4.013254  -0.295178  4.492447
H    -4.292714  -1.597595  5.660041
H    -4.697111  -1.870364  3.952993
Ca    1.135467  -2.505627  2.348961
