34
Energy: -36754.4724454 eV PBE+vdW (tier 2 basis)
C    -0.973953  -0.946547  0.521854
C    -0.576896  -0.518709  1.895023
O    0.528453  -0.913838  2.387585
H    -1.045727  -2.043644  0.505931
H    -0.183946  -0.670410  -0.189140
H    -1.926026  -0.521241  0.188884
N    -1.403229  0.278376  2.581318
C    -1.327849  0.703230  3.998391
C    -0.195913  1.711550  4.243905
O    1.021603  1.334578  4.236802
H    -2.265487  0.525836  2.103231
H    -2.281289  1.219817  4.169837
C    -1.265911  -0.464842  5.007107
C    -2.386481  -1.494637  4.857878
C    -3.804775  -0.939975  5.030565
C    -4.818658  -2.069277  5.298050
N    -4.459327  -2.795240  6.515462
H    -1.298568  -0.014582  6.011810
H    -0.290155  -0.983545  4.943557
H    -2.247111  -2.259553  5.637696
H    -2.297770  -2.019147  3.892617
H    -4.138709  -0.371258  4.145801
H    -3.829611  -0.240954  5.884713
H    -4.798044  -2.777336  4.456248
H    -5.832740  -1.634313  5.314924
H    -4.838585  -2.341255  7.346158
H    -4.829703  -3.743717  6.506025
N    -0.531649  2.960727  4.512800
C    0.394455  4.047825  4.835162
H    -1.522540  3.192344  4.500845
H    0.081078  4.521225  5.772731
H    0.379056  4.796128  4.033045
H    1.403043  3.644160  4.943756
Ca    2.082613  -0.438564  3.723998
