34
Energy: -36752.6900903 eV PBE+vdW (tier 2 basis)
C    0.195351  0.402956  0.463891
C    -0.019507  0.241502  1.929037
O    1.033596  0.061154  2.694147
H    1.053976  1.060848  0.284076
H    -0.682480  0.804262  -0.050324
H    0.432576  -0.577197  0.023433
N    -1.190275  0.260185  2.495959
C    -2.534841  0.472325  1.942918
C    -3.332474  0.815481  3.235982
O    -2.789546  0.573868  4.328936
H    -1.317380  0.192570  3.542588
H    -2.517854  1.346776  1.276233
C    -3.063211  -0.757560  1.164308
C    -3.085821  -2.102226  1.909012
C    -4.249064  -2.345201  2.885443
C    -5.632843  -2.420121  2.226679
N    -5.691849  -3.466467  1.219435
H    -2.440732  -0.857700  0.263057
H    -4.064126  -0.507640  0.786962
H    -2.133053  -2.250080  2.442019
H    -3.124212  -2.886857  1.140575
H    -4.278828  -1.590421  3.683297
H    -4.058375  -3.299724  3.400777
H    -5.883616  -1.469140  1.731160
H    -6.387082  -2.549151  3.027443
H    -5.591464  -4.406651  1.599711
H    -6.520254  -3.428550  0.629917
N    -4.555948  1.347638  3.132740
C    -5.296759  1.743655  1.939311
H    -5.005616  1.507813  4.032394
H    -6.004184  0.964814  1.624022
H    -4.619242  1.968033  1.109277
H    -5.861422  2.655443  2.161427
Ca    2.647275  -0.139713  3.856834
