34
Energy: -36754.0176403 eV PBE+vdW (tier 2 basis)
C    -0.038235  1.542376  1.798389
C    -0.489779  0.613149  2.870549
O    -0.050834  0.734310  4.065085
H    -0.325854  2.577770  2.029551
H    -0.405801  1.267234  0.806496
H    1.062040  1.525545  1.793691
N    -1.374229  -0.368544  2.602862
C    -2.605055  -0.144372  1.841671
C    -3.448446  0.877391  2.632611
O    -3.125687  1.172091  3.846055
H    -1.461176  -1.064136  3.346678
H    -2.381094  0.250934  0.832134
C    -3.355599  -1.475413  1.632947
C    -2.498243  -2.587854  1.005760
C    -1.758242  -2.275056  -0.305052
C    -2.605182  -1.717686  -1.455128
N    -2.725214  -0.236912  -1.383744
H    -4.221494  -1.264713  0.993207
H    -3.765146  -1.826101  2.594594
H    -3.177391  -3.437772  0.840143
H    -1.763219  -2.952378  1.740929
H    -1.293477  -3.214334  -0.635523
H    -0.910961  -1.591580  -0.122145
H    -3.619697  -2.141377  -1.420184
H    -2.169577  -2.041189  -2.412978
H    -1.848496  0.172392  -1.717994
H    -3.416818  0.068897  -2.073040
N    -4.503773  1.449571  2.090831
C    -5.011432  1.326106  0.721229
H    -5.029688  2.059313  2.718607
H    -5.232504  2.331189  0.344334
H    -5.937885  0.737647  0.719434
H    -4.262315  0.854153  0.073263
Ca    -1.655534  1.305089  5.385700
