34
Energy: -36755.5130971 eV PBE+vdW (tier 2 basis)
C    0.251499  1.206876  0.626739
C    -0.236388  0.314317  1.725491
O    0.318660  -0.803294  1.913201
H    1.302521  1.462313  0.820753
H    -0.324685  2.130911  0.514478
H    0.229327  0.649621  -0.319032
N    -1.267525  0.768802  2.468560
C    -2.007600  0.208115  3.630303
C    -1.066700  -0.066981  4.819990
O    -0.163448  -0.953788  4.755842
H    -1.605880  1.682583  2.181292
H    -2.667206  1.033168  3.918602
C    -2.950536  -0.986571  3.305893
C    -2.227333  -2.313554  3.093605
C    -2.970222  -3.565197  2.632328
C    -2.055095  -4.782952  2.823053
N    -0.642632  -4.528121  2.345178
H    -3.527167  -0.709325  2.411634
H    -3.675980  -1.072904  4.128620
H    -1.744694  -2.574735  4.054930
H    -1.470880  -2.113635  2.318504
H    -3.277594  -3.462803  1.581277
H    -3.888133  -3.731208  3.212922
H    -2.476598  -5.662831  2.319040
H    -1.983244  -5.024895  3.893141
H    -0.121509  -5.399100  2.496341
H    -0.670706  -4.447091  1.320848
N    -1.233814  0.625952  5.940849
C    -2.194501  1.695822  6.238075
H    -0.587371  0.368081  6.686813
H    -2.043721  2.561504  5.581657
H    -2.022764  2.020906  7.267821
H    -3.228597  1.338003  6.165142
Ca    0.537738  -2.464237  3.298262
