34
Energy: -36752.6927973 eV PBE+vdW (tier 2 basis)
C    -0.043748  -1.940473  -0.764752
C    0.542337  -1.215757  0.397799
O    1.836215  -1.327577  0.605920
H    0.566932  -1.759569  -1.658360
H    -1.077386  -1.650084  -0.970496
H    -0.021997  -3.022301  -0.566509
N    -0.149810  -0.483758  1.220383
C    -1.571142  -0.114565  1.216009
C    -1.561102  1.119556  2.169795
O    -0.531452  1.320305  2.839135
H    0.291683  0.071846  2.003252
H    -1.851089  0.202134  0.200973
C    -2.518750  -1.252453  1.682067
C    -2.668195  -1.472357  3.190695
C    -1.437848  -1.994561  3.939581
C    -1.732941  -2.249677  5.426985
N    -2.105078  -1.023824  6.115821
H    -2.195960  -2.183319  1.190112
H    -3.507712  -1.030413  1.258737
H    -3.488793  -2.194478  3.323402
H    -3.013724  -0.549483  3.679915
H    -0.603779  -1.275918  3.871937
H    -1.087257  -2.937507  3.488762
H    -0.856260  -2.747290  5.884839
H    -2.570974  -2.955410  5.516424
H    -1.325926  -0.395216  6.301108
H    -2.634974  -1.173548  6.970733
N    -2.641065  1.903925  2.237320
C    -3.912103  1.779752  1.529439
H    -2.557001  2.656760  2.917693
H    -3.763142  1.399295  0.512738
H    -4.360146  2.774672  1.445374
H    -4.613400  1.125696  2.065220
Ca    3.821160  -1.441587  0.792531
