34
Energy: -36754.5960407 eV PBE+vdW (tier 2 basis)
C    0.982624  0.531946  1.121247
C    0.322441  0.481018  2.459954
O    0.997099  0.852836  3.490401
H    1.998861  0.128351  1.202577
H    1.080772  1.582629  0.810080
H    0.432285  -0.020852  0.356907
N    -0.936705  0.069355  2.568780
C    -1.612687  0.088293  3.879474
C    -0.980923  -0.956932  4.826822
O    -0.200922  -0.535888  5.753348
H    -1.474256  -0.105387  1.635996
H    -1.333589  1.040211  4.354052
C    -3.174464  0.040004  3.862175
C    -3.888120  -0.322741  2.555995
C    -3.971773  0.814969  1.513417
C    -3.629358  0.324020  0.111604
N    -2.185526  -0.067308  0.049840
H    -3.525079  1.028693  4.186402
H    -3.491562  -0.646437  4.659574
H    -4.904162  -0.642974  2.821602
H    -3.424828  -1.208045  2.096226
H    -3.294870  1.644741  1.775998
H    -4.979759  1.249962  1.512057
H    -4.241731  -0.552365  -0.139492
H    -3.855086  1.092310  -0.639541
H    -2.073955  -0.902247  -0.528347
H    -1.675259  0.666034  -0.446927
N    -1.204845  -2.256511  4.731455
C    -2.018895  -2.998806  3.768117
H    -0.750606  -2.807994  5.460186
H    -1.647081  -4.027213  3.735421
H    -1.926489  -2.565131  2.768764
H    -3.073252  -3.015980  4.070889
Ca    1.430073  0.816901  5.538135
