34
Energy: -36753.6201315 eV PBE+vdW (tier 2 basis)
C    -1.940369  1.269564  1.739825
C    -2.612356  0.944984  3.028774
O    -2.672768  1.839784  3.943601
H    -2.268823  0.636504  0.913031
H    -0.846581  1.190658  1.838738
H    -2.156998  2.322565  1.515867
N    -3.210375  -0.245818  3.278774
C    -2.598229  -1.581027  3.156784
C    -1.636611  -1.737440  4.359777
O    -1.216272  -0.698340  4.990437
H    -3.835315  -0.182909  4.084539
H    -3.425129  -2.295466  3.288381
C    -1.918375  -1.908759  1.812286
C    -2.918149  -2.005647  0.657529
C    -2.252907  -2.314542  -0.686079
C    -3.280535  -2.786452  -1.728375
N    -3.918771  -4.030352  -1.288444
H    -1.420429  -2.881703  1.927004
H    -1.105515  -1.197481  1.608244
H    -3.514917  -1.082034  0.578232
H    -3.635683  -2.816739  0.865422
H    -1.499526  -3.109112  -0.553159
H    -1.711779  -1.436254  -1.071875
H    -2.777318  -2.864986  -2.707199
H    -4.062346  -2.020684  -1.841942
H    -4.825865  -4.156142  -1.734555
H    -3.355834  -4.841111  -1.546300
N    -1.245977  -2.934608  4.754574
C    -1.617737  -4.254947  4.235170
H    -0.580980  -2.930958  5.529262
H    -2.559707  -4.212061  3.682134
H    -1.741176  -4.935109  5.084646
H    -0.826711  -4.643994  3.581526
Ca    -1.447805  1.330777  5.625800
