34
Energy: -36753.0294473 eV PBE+vdW (tier 2 basis)
C    -0.641517  -2.382882  0.515660
C    -0.958303  -1.012862  1.007418
O    -0.535263  0.016352  0.342788
H    -0.905844  -2.477341  -0.545286
H    -1.140622  -3.165876  1.094732
H    0.446803  -2.530988  0.586747
N    -1.667742  -0.864959  2.106023
C    -2.016240  0.341364  2.861896
C    -3.115241  -0.191020  3.846336
O    -3.582163  -1.312179  3.627889
H    -2.175468  -1.673369  2.519980
H    -1.132767  0.653824  3.440648
C    -2.499380  1.553446  2.040127
C    -3.486169  1.278863  0.893086
C    -3.880084  2.544165  0.089056
C    -5.054361  3.343539  0.714200
N    -4.768662  3.750789  2.089796
H    -1.598398  2.132445  1.715951
H    -2.999217  2.283562  2.693832
H    -4.402004  0.840113  1.317086
H    -3.142695  0.449191  0.233077
H    -4.179748  2.283419  -0.941056
H    -3.035922  3.278779  0.022524
H    -5.929757  2.679651  0.707755
H    -5.292126  4.182511  0.041649
H    -4.434620  4.714089  2.128070
H    -5.617685  3.724814  2.652897
N    -3.492156  0.585882  4.874769
C    -2.948587  1.865765  5.320170
H    -4.213000  0.158600  5.453921
H    -1.871165  1.931810  5.127281
H    -3.087326  1.942685  6.403200
H    -3.459580  2.716734  4.846786
Ca    -1.271355  1.718160  -0.536202
