34
Energy: -36754.5450251 eV PBE+vdW (tier 2 basis)
C    -1.387922  -0.002941  -0.401086
C    -1.412900  -0.619417  0.957588
O    -0.391742  -0.549803  1.709374
H    -1.123593  1.059213  -0.312936
H    -2.334302  -0.097351  -0.943104
H    -0.590133  -0.481599  -0.987037
N    -2.530108  -1.251449  1.351364
C    -2.741123  -2.035081  2.589367
C    -2.847890  -1.100390  3.808174
O    -1.838316  -0.467639  4.244739
H    -3.297675  -1.251979  0.684946
H    -3.731006  -2.489359  2.456044
C    -1.712810  -3.201898  2.713450
C    -1.364834  -3.737860  4.114337
C    -0.122991  -3.145699  4.804835
C    0.510599  -4.122587  5.835024
N    0.912762  -5.354270  5.180554
H    -0.787621  -2.929541  2.186743
H    -2.134878  -4.020413  2.116214
H    -1.137274  -4.807645  4.001056
H    -2.226684  -3.679974  4.796582
H    -0.365659  -2.215668  5.363165
H    0.666052  -2.958430  4.035131
H    -0.252220  -4.339654  6.596154
H    1.331268  -3.604859  6.360263
H    0.696743  -6.178232  5.735908
H    1.907512  -5.381872  4.966829
N    -4.037604  -0.988105  4.378659
C    -4.351194  -0.149843  5.536602
H    -4.805557  -1.521545  3.978048
H    -3.436303  0.325675  5.895725
H    -4.784816  -0.770465  6.329512
H    -5.077353  0.619665  5.247416
Ca    0.249575  -0.506988  3.740360
