34
Energy: -36754.3774088 eV PBE+vdW (tier 2 basis)
C    -0.665100  -0.434376  -0.185623
C    -0.556179  -0.490799  1.301542
O    0.575423  -0.693699  1.846207
H    -1.676389  -0.216707  -0.543581
H    -0.340383  -1.401573  -0.595729
H    0.028974  0.323527  -0.572595
N    -1.667312  -0.326116  2.030559
C    -1.860365  -0.479414  3.492932
C    -1.160826  0.641330  4.277586
O    0.105713  0.606070  4.440778
H    -2.518013  -0.174154  1.495178
H    -2.940950  -0.371767  3.633614
C    -1.476084  -1.867180  4.034989
C    -1.918240  -2.113831  5.483280
C    -3.440579  -2.124056  5.710989
C    -4.231865  -3.023469  4.748334
N    -3.577918  -4.324439  4.584922
H    -0.385863  -2.033422  3.953676
H    -1.929176  -2.630812  3.386282
H    -1.449317  -1.387214  6.166960
H    -1.517735  -3.097362  5.760154
H    -3.863977  -1.106759  5.669221
H    -3.612087  -2.457207  6.745414
H    -4.286339  -2.558041  3.748590
H    -5.275787  -3.074704  5.105930
H    -3.612945  -4.857172  5.456197
H    -4.072841  -4.889610  3.894759
N    -1.852922  1.625869  4.823056
C    -3.294052  1.894444  4.794962
H    -1.286749  2.278045  5.369083
H    -3.438980  2.977126  4.865060
H    -3.793248  1.415435  5.646818
H    -3.743937  1.552852  3.858825
Ca    1.744535  -0.435233  3.578197
