34
Energy: -36754.994942 eV PBE+vdW (tier 2 basis)
C    2.341879  1.552142  2.208500
C    1.248286  1.425209  3.231046
O    0.963670  2.517258  3.890061
H    2.670888  0.588197  1.809666
H    3.211010  2.051319  2.654229
H    1.999617  2.192959  1.383484
N    0.639895  0.274957  3.398414
C    -0.494225  0.186495  4.338456
C    -0.015600  0.175178  5.805139
O    0.207960  1.276596  6.409881
H    0.863738  -0.816831  2.289419
H    -1.092824  1.112725  4.271383
C    -1.432694  -0.975579  3.958812
C    -0.771773  -2.362212  3.750089
C    -0.959407  -2.969554  2.348218
C    -0.494818  -2.093139  1.188943
N    0.892217  -1.557747  1.428122
H    -1.947187  -0.663699  3.039315
H    -2.228095  -1.039790  4.713872
H    -1.181067  -3.088019  4.466991
H    0.309192  -2.306483  3.962592
H    -2.021259  -3.195880  2.173900
H    -0.438023  -3.937984  2.307966
H    -1.134286  -1.211739  1.052079
H    -0.500341  -2.655943  0.248269
H    1.553083  -2.315513  1.634955
H    1.240357  -1.075678  0.592639
N    0.153501  -0.967841  6.447827
C    0.597110  -1.073039  7.839942
H    -0.039454  -1.828061  5.944554
H    1.647287  -0.770342  7.934683
H    0.493113  -2.113277  8.158728
H    -0.019622  -0.433983  8.481398
Ca    0.591874  3.279297  5.757427
