34
Energy: -36752.6181692 eV PBE+vdW (tier 2 basis)
C    -1.182778  0.794374  0.890010
C    -0.705207  0.447971  2.266470
O    0.485698  0.636995  2.593809
H    -0.780798  1.771041  0.599273
H    -2.273028  0.795033  0.784437
H    -0.763570  0.047035  0.199172
N    -1.631271  -0.069959  3.125986
C    -1.457396  -0.857132  4.355329
C    -0.512164  -0.298478  5.410512
O    -0.757370  -0.661146  6.649335
H    -2.565887  -0.151668  2.736861
H    -2.434824  -0.795379  4.856511
C    -1.215952  -2.384408  4.081006
C    -0.243430  -2.767799  2.963761
C    1.254443  -2.591546  3.228190
C    2.088829  -2.860650  1.966618
N    1.777579  -1.906567  0.909049
H    -2.203193  -2.799907  3.833272
H    -0.923982  -2.857435  5.033891
H    -0.505529  -2.231432  2.039799
H    -0.435285  -3.827913  2.736597
H    1.587278  -3.279524  4.021132
H    1.481790  -1.573147  3.576898
H    1.870054  -3.869192  1.586997
H    3.160853  -2.856384  2.240362
H    2.107733  -2.201764  -0.007282
H    2.110323  -0.962862  1.102381
N    0.482033  0.477673  5.116638
C    1.419281  1.042708  6.077204
H    0.610335  0.621417  4.024075
H    0.888420  1.551651  6.892682
H    2.043173  1.776361  5.559078
H    2.072393  0.261906  6.492094
Ca    -1.099452  -1.182616  8.546185
