34
Energy: -36754.9489715 eV PBE+vdW (tier 2 basis)
C    -1.977485  -0.960981  0.843529
C    -1.237786  -0.562087  2.079563
O    0.015916  -0.290825  1.983905
H    -3.022124  -1.218566  1.040417
H    -1.465748  -1.811956  0.374510
H    -1.946149  -0.133685  0.120914
N    -1.910993  -0.498052  3.216448
C    -1.401982  -0.315072  4.590223
C    -0.614276  0.977675  4.837673
O    0.577301  1.145671  4.419924
H    -2.871030  -1.020322  3.260426
H    -2.320480  -0.218985  5.182139
C    -0.645571  -1.560675  5.112008
C    -1.310993  -2.907256  4.779037
C    -2.645870  -3.271082  5.456688
C    -3.892106  -2.410709  5.202177
N    -4.087782  -2.053084  3.767630
H    -0.522590  -1.447694  6.199996
H    0.372443  -1.568591  4.689536
H    -0.591010  -3.686190  5.067393
H    -1.405448  -3.005127  3.686712
H    -2.504953  -3.320063  6.546967
H    -2.875188  -4.303469  5.151058
H    -3.849181  -1.469389  5.769641
H    -4.762621  -2.955479  5.597573
H    -4.134563  -2.910452  3.209060
H    -5.004134  -1.611843  3.654587
N    -1.203598  1.906248  5.573746
C    -0.593093  3.172201  5.982940
H    -2.160364  1.734222  5.871046
H    0.489092  3.044501  6.072210
H    -1.008408  3.464158  6.952198
H    -0.811764  3.958294  5.248462
Ca    1.744539  0.548663  2.749665
