34
Energy: -36753.8622339 eV PBE+vdW (tier 2 basis)
C    1.089313  1.365575  1.622502
C    0.319907  0.387952  2.443267
O    0.838867  -0.134285  3.488142
H    2.128804  1.016458  1.566754
H    1.116784  2.348728  2.117920
H    0.687934  1.486874  0.612242
N    -0.944227  0.054476  2.112961
C    -1.960153  1.039832  1.734443
C    -2.131855  1.998956  2.939867
O    -1.603751  1.724183  4.078236
H    -1.314879  -0.758155  2.609163
H    -1.603235  1.620740  0.870335
C    -3.258908  0.304141  1.342986
C    -4.340315  1.163139  0.671886
C    -5.433074  0.320993  -0.014091
C    -4.996258  -0.391889  -1.299050
N    -4.005658  -1.456066  -1.043627
H    -3.676156  -0.199260  2.231998
H    -2.978615  -0.484316  0.618514
H    -3.874552  1.812924  -0.091296
H    -4.832151  1.822296  1.406135
H    -6.270768  0.987170  -0.263908
H    -5.839745  -0.412970  0.701341
H    -4.533405  0.339026  -1.979228
H    -5.899915  -0.762280  -1.812410
H    -4.472937  -2.286721  -0.674479
H    -3.574033  -1.750285  -1.920435
N    -2.849036  3.092120  2.776191
C    -3.155887  4.063111  3.831580
H    -3.258653  3.248255  1.857358
H    -2.232246  4.504758  4.223519
H    -3.705967  3.580665  4.647981
H    -3.773785  4.854524  3.400322
Ca    -0.176779  0.618451  5.229758
