34
Energy: -36752.6744141 eV PBE+vdW (tier 2 basis)
C    0.124032  0.428902  0.637364
C    -0.127215  0.272262  2.097242
O    0.908556  0.209406  2.901974
H    0.727227  1.331072  0.466376
H    -0.796470  0.498834  0.052058
H    0.709648  -0.427476  0.274818
N    -1.315504  0.198224  2.623388
C    -2.655205  0.229782  2.018458
C    -3.520106  0.607275  3.261516
O    -3.051522  0.307228  4.373198
H    -1.469460  0.103430  3.660369
H    -2.693066  0.992030  1.230799
C    -3.011772  -1.182579  1.480838
C    -4.331903  -1.312881  0.712337
C    -4.342845  -0.637940  -0.662378
C    -5.697851  -0.764317  -1.370174
N    -5.687269  -0.085289  -2.651513
H    -3.013797  -1.866307  2.342565
H    -2.184579  -1.504379  0.828060
H    -5.168675  -0.953910  1.329808
H    -4.517299  -2.389737  0.583975
H    -3.559949  -1.088456  -1.295553
H    -4.100927  0.435297  -0.596773
H    -6.482837  -0.303845  -0.751704
H    -5.961402  -1.838377  -1.453950
H    -5.099704  -0.524064  -3.357940
H    -6.610726  0.099202  -3.035819
N    -4.711372  1.200710  3.115745
C    -5.354834  1.752423  1.928928
H    -5.192977  1.341382  4.003093
H    -5.669170  2.782748  2.133291
H    -6.238786  1.165254  1.648701
H    -4.665192  1.770287  1.081342
Ca    2.468359  0.127215  4.154263
