34
Energy: -36754.3693768 eV PBE+vdW (tier 2 basis)
C    0.484292  1.104498  0.035148
C    0.161043  1.412630  1.456728
O    0.041412  2.623166  1.844451
H    -0.316675  1.506494  -0.602059
H    0.592592  0.033071  -0.161032
H    1.408977  1.622951  -0.251486
N    -0.013639  0.410429  2.323093
C    -0.503389  0.565705  3.705453
C    0.593414  1.198345  4.593036
O    0.552756  2.471069  4.757933
H    0.039963  -0.540155  1.961932
H    -1.285295  1.341693  3.678637
C    -1.173786  -0.722409  4.187667
C    -1.759833  -0.612401  5.602723
C    -2.624618  -1.821727  5.997762
C    -4.000131  -1.889650  5.324999
N    -3.904355  -2.096783  3.865087
H    -0.483981  -1.576484  4.125114
H    -2.010129  -0.945641  3.500986
H    -2.377422  0.300215  5.670239
H    -0.954897  -0.488640  6.346288
H    -2.783753  -1.790103  7.084932
H    -2.069793  -2.755876  5.806331
H    -4.528093  -0.938255  5.491511
H    -4.596426  -2.666960  5.832565
H    -3.680220  -3.075333  3.671064
H    -4.817234  -1.940887  3.435514
N    1.561980  0.516104  5.175363
C    1.882224  -0.914602  5.128097
H    2.175758  1.091791  5.753630
H    2.928411  -1.029140  5.426357
H    1.769915  -1.309725  4.114775
H    1.253856  -1.481219  5.825942
Ca    0.146318  4.051987  3.398835
