34
Energy: -36752.6313458 eV PBE+vdW (tier 2 basis)
C    0.135511  0.237036  0.182933
C    -0.057782  0.077932  1.651548
O    1.001139  -0.134077  2.395918
H    0.547600  -0.694085  -0.231309
H    0.871440  1.030415  -0.004487
H    -0.789999  0.475479  -0.347239
N    -1.218365  0.139010  2.240571
C    -2.573755  0.362769  1.709672
C    -3.297196  0.875764  2.991785
O    -2.845431  0.481714  4.079670
H    -1.321368  0.040077  3.280178
H    -2.543536  1.125391  0.921289
C    -3.130815  -0.978942  1.164961
C    -4.537613  -0.960391  0.542214
C    -5.688384  -1.194249  1.527102
C    -7.057619  -1.180043  0.838295
N    -8.131099  -1.304381  1.803499
H    -3.089948  -1.716573  1.981187
H    -2.411590  -1.318960  0.404863
H    -4.561619  -1.756774  -0.216295
H    -4.693029  -0.027051  -0.021874
H    -5.698468  -0.445045  2.330654
H    -5.541854  -2.167747  2.023178
H    -7.083020  -1.975733  0.064765
H    -7.199342  -0.230272  0.299227
H    -9.058614  -1.107078  1.435715
H    -8.136888  -2.177324  2.327556
N    -4.338336  1.714227  2.900527
C    -4.972282  2.315149  1.733223
H    -4.738535  1.947108  3.808572
H    -5.149920  3.378693  1.929238
H    -5.933891  1.833615  1.511299
H    -4.328860  2.236939  0.852548
Ca    2.630177  -0.421178  3.530209
