34
Energy: -36755.0350893 eV PBE+vdW (tier 2 basis)
C    0.184778  -0.905788  0.709322
C    -0.470239  0.233183  1.436256
O    0.051531  0.539063  2.595091
H    0.213149  -1.791633  1.356839
H    1.228534  -0.645939  0.484771
H    -0.330254  -1.176730  -0.216755
N    -1.488584  0.855846  0.892067
C    -2.065922  2.029181  1.576007
C    -2.893704  1.613290  2.805728
O    -2.335943  1.498755  3.947604
H    -1.671867  0.694396  -0.678197
H    -1.250167  2.649548  1.991345
C    -2.846120  2.892699  0.572052
C    -1.956504  3.384564  -0.593822
C    -2.480911  3.063088  -2.004055
C    -2.858530  1.605996  -2.262044
N    -1.783116  0.655571  -1.801978
H    -3.286323  3.747328  1.102104
H    -3.694785  2.313858  0.171245
H    -0.943172  2.969357  -0.477746
H    -1.826804  4.471531  -0.525090
H    -1.728287  3.381568  -2.740926
H    -3.378041  3.660535  -2.223465
H    -3.041171  1.434982  -3.329457
H    -3.767804  1.308773  -1.724176
H    -2.009015  -0.305962  -2.078838
H    -0.880779  0.888768  -2.232652
N    -4.186719  1.373565  2.671125
C    -5.078548  0.959427  3.755437
H    -4.589696  1.490681  1.746358
H    -4.789453  1.463097  4.682608
H    -5.030313  -0.127307  3.902809
H    -6.102413  1.239934  3.492929
Ca    -0.326808  1.061776  4.541505
