34
Energy: -36754.0020139 eV PBE+vdW (tier 2 basis)
C    -2.092872  0.905208  -0.372099
C    -1.269930  0.939314  0.865795
O    -0.973531  2.049067  1.430256
H    -3.056939  1.409017  -0.218310
H    -2.238013  -0.110166  -0.755742
H    -1.557821  1.500870  -1.128598
N    -0.818220  -0.203638  1.420816
C    -1.671893  -1.374750  1.640860
C    -2.744390  -0.956262  2.664019
O    -2.643845  0.173190  3.277486
H    -0.100464  -0.067137  2.136125
H    -2.121539  -1.658537  0.661286
C    -0.790795  -2.553708  2.112401
C    0.199167  -3.013200  1.024367
C    -0.273978  -4.137206  0.083825
C    -1.635003  -3.986267  -0.599380
N    -1.846054  -2.648290  -1.199853
H    -1.428866  -3.387492  2.433087
H    -0.245679  -2.235282  3.016669
H    1.110790  -3.366799  1.524334
H    0.514857  -2.137953  0.435634
H    -0.291319  -5.089018  0.635375
H    0.501675  -4.262680  -0.686973
H    -2.444465  -4.156105  0.128944
H    -1.733123  -4.796329  -1.339775
H    -1.056866  -2.425593  -1.812420
H    -2.658344  -2.684350  -1.819881
N    -3.780960  -1.729285  2.930777
C    -4.155908  -3.009641  2.328995
H    -4.399112  -1.373647  3.660561
H    -3.747205  -3.091916  1.318319
H    -5.248348  -3.054408  2.270807
H    -3.800145  -3.847133  2.942310
Ca    -1.882534  2.167030  3.374534
