34
Energy: -36754.2807889 eV PBE+vdW (tier 2 basis)
C    1.266973  2.769411  2.302316
C    0.169466  2.216888  3.147327
O    -0.506244  2.987394  3.907842
H    0.831014  3.492521  1.597307
H    1.806715  2.003047  1.736841
H    1.974398  3.326169  2.930526
N    -0.099685  0.910337  3.084775
C    -1.250108  0.211023  3.682889
C    -1.033137  -0.015263  5.196181
O    -1.141312  0.986646  5.982952
H    0.480611  0.344773  2.467253
H    -2.102641  0.909138  3.641630
C    -1.614790  -1.026061  2.833692
C    -0.487380  -1.990438  2.425885
C    -1.022025  -3.207101  1.655716
C    0.103805  -4.167144  1.207499
N    -0.301912  -5.342894  0.470302
H    -2.093918  -0.648414  1.918581
H    -2.409785  -1.570482  3.365991
H    0.102308  -2.348810  3.289916
H    0.246698  -1.479330  1.776469
H    -1.581872  -2.863692  0.771316
H    -1.741433  -3.756322  2.284942
H    0.665792  -4.499690  2.096349
H    0.823098  -3.608486  0.586411
H    -0.739257  -5.131906  -0.424397
H    -0.908670  -5.967183  0.997895
N    -0.782492  -1.225839  5.648037
C    -0.594709  -1.603557  7.049221
H    -0.709747  -1.966507  4.951919
H    0.437786  -1.940158  7.205326
H    -1.278730  -2.424112  7.294993
H    -0.803853  -0.744557  7.689563
Ca    -1.289966  3.106600  5.861532
