34
Energy: -36754.3535838 eV PBE+vdW (tier 2 basis)
C    -0.401046  -0.255258  -0.459333
C    -0.413879  -0.330657  1.029562
O    0.662178  -0.573904  1.671363
H    0.259622  0.571895  -0.758602
H    -1.392366  -0.093316  -0.894608
H    0.034203  -1.174282  -0.873099
N    -1.562184  -0.126368  1.681394
C    -1.733229  0.030496  3.140916
C    -1.678084  -1.350994  3.832978
O    -0.538664  -1.904604  4.010355
H    -2.385481  0.066633  1.113783
H    -0.851096  0.576162  3.514063
C    -2.987277  0.861307  3.424901
C    -3.125309  1.304840  4.894359
C    -4.572548  1.647922  5.270278
C    -5.464281  0.416763  5.469571
N    -6.852317  0.815861  5.628770
H    -3.884639  0.309516  3.091426
H    -2.947994  1.754130  2.783494
H    -2.476339  2.176448  5.058177
H    -2.754436  0.521769  5.577909
H    -5.027082  2.296782  4.506294
H    -4.564440  2.232904  6.201434
H    -5.047435  -0.189606  6.305518
H    -5.428324  -0.227311  4.566392
H    -7.475464  0.014222  5.713710
H    -6.983240  1.387814  6.463661
N    -2.797158  -1.921731  4.222141
C    -2.919234  -3.209774  4.904043
H    -3.658452  -1.391125  4.087067
H    -3.486109  -3.068716  5.831806
H    -1.925231  -3.598666  5.133316
H    -3.457198  -3.917991  4.261705
Ca    1.444763  -1.690823  3.278013
