34
Energy: -36754.3284627 eV PBE+vdW (tier 2 basis)
C    -0.366985  0.685136  0.017216
C    -0.317772  0.446368  1.486932
O    0.732240  0.732883  2.154428
H    0.466922  0.162213  -0.469652
H    -0.220549  1.759491  -0.166313
H    -1.311042  0.371793  -0.439679
N    -1.388641  -0.061712  2.102975
C    -1.557411  -0.171022  3.563654
C    -0.692373  -1.320311  4.126074
O    0.488637  -1.016161  4.527351
H    -2.221277  -0.217828  1.537257
H    -1.096249  0.729517  4.000686
C    -3.047590  -0.133229  3.931917
C    -3.652075  1.251247  3.675618
C    -5.169447  1.303512  3.879900
C    -5.780137  2.544224  3.213463
N    -5.552248  2.506550  1.759875
H    -3.603059  -0.887770  3.355385
H    -3.151802  -0.414336  4.990898
H    -3.465984  1.565242  2.634318
H    -3.160653  1.993323  4.326487
H    -5.422473  1.290140  4.950194
H    -5.634221  0.405297  3.438869
H    -5.295849  3.448405  3.611491
H    -6.844524  2.612572  3.493089
H    -6.268518  1.938416  1.305190
H    -5.645770  3.440095  1.360954
N    -1.087673  -2.576031  4.221070
C    -2.336559  -3.224352  3.803491
H    -0.395854  -3.186617  4.658772
H    -2.673261  -2.842300  2.835994
H    -3.121275  -3.088265  4.556938
H    -2.133007  -4.293986  3.697859
Ca    1.970144  0.333305  3.817205
