34
Energy: -36754.5001081 eV PBE+vdW (tier 2 basis)
C    -0.148905  0.663175  -0.202264
C    -0.180991  0.483292  1.276668
O    0.878431  0.639126  1.970952
H    0.164591  1.693432  -0.424463
H    -1.114062  0.472373  -0.682195
H    0.611156  -0.000536  -0.635742
N    -1.333569  0.166742  1.875777
C    -1.526326  0.109037  3.335583
C    -0.810449  -1.128278  3.919049
O    0.357453  -0.944729  4.427671
H    -2.163216  0.076553  1.292760
H    -0.966822  0.957836  3.760575
C    -3.000587  0.300237  3.710740
C    -3.210715  0.362347  5.230613
C    -4.689581  0.438651  5.650207
C    -5.389209  -0.912729  5.809475
N    -5.422372  -1.691349  4.551660
H    -3.628518  -0.488880  3.278647
H    -3.321473  1.252423  3.259722
H    -2.674765  1.240366  5.623709
H    -2.752594  -0.517606  5.714393
H    -5.248297  1.072255  4.941370
H    -4.754715  0.955763  6.617319
H    -6.395744  -0.737755  6.224549
H    -4.845518  -1.514078  6.553958
H    -6.065037  -1.243621  3.892873
H    -5.837804  -2.606726  4.737703
N    -1.315347  -2.345427  3.892192
C    -2.573852  -2.837873  3.318356
H    -0.718142  -3.043462  4.337183
H    -3.461393  -2.465266  3.867252
H    -2.549193  -3.929628  3.372004
H    -2.650402  -2.551383  2.262683
Ca    2.000522  0.183209  3.711531
