34
Energy: -36752.4191249 eV PBE+vdW (tier 2 basis)
C    -0.109931  2.113858  -0.607030
C    0.410083  0.869376  0.017746
O    1.338103  0.220137  -0.650243
H    0.729095  2.816655  -0.728274
H    -0.913431  2.583232  -0.044879
H    -0.503238  1.869543  -1.602157
N    0.098971  0.386849  1.204998
C    -1.038480  0.686830  2.105651
C    -2.321640  0.245230  1.337765
O    -2.408265  0.512895  0.137509
H    0.620213  -0.453261  1.452860
H    -0.862921  0.036807  2.971949
C    -1.052185  2.143170  2.622106
C    -2.022538  2.410741  3.788368
C    -3.414043  2.899165  3.366607
C    -4.361890  3.092973  4.561817
N    -4.802746  1.816806  5.128527
H    -1.283255  2.840412  1.807138
H    -0.023729  2.361511  2.944114
H    -1.565375  3.186226  4.420042
H    -2.106989  1.523864  4.433872
H    -3.884476  2.208642  2.649318
H    -3.315170  3.863110  2.843640
H    -5.220169  3.704652  4.237792
H    -3.847086  3.665208  5.346077
H    -4.873675  1.826301  6.143397
H    -5.691670  1.499804  4.745761
N    -3.273058  -0.430061  2.012812
C    -3.331667  -0.864275  3.407148
H    -4.090619  -0.625629  1.437927
H    -2.341812  -1.160121  3.773267
H    -3.974807  -1.749162  3.459591
H    -3.744164  -0.084914  4.067758
Ca    2.540106  -0.502646  -2.081671
