34
Energy: -36754.2132024 eV PBE+vdW (tier 2 basis)
C    -0.119755  -0.964848  0.143395
C    -0.367027  -0.561287  1.556421
O    0.491920  0.143306  2.187783
H    -0.010912  -0.057909  -0.468534
H    -0.920128  -1.584222  -0.273819
H    0.832238  -1.508557  0.078113
N    -1.499788  -0.933870  2.156114
C    -1.931461  -0.465507  3.482928
C    -1.060155  -1.119300  4.575136
O    -0.077424  -0.435853  5.038983
H    -2.188747  -1.445746  1.606559
H    -1.645662  0.595547  3.534090
C    -3.472820  -0.541618  3.697289
C    -4.313424  -1.094264  2.536676
C    -5.827716  -1.032652  2.820376
C    -6.456627  0.359113  2.687385
N    -5.936210  1.314044  3.684223
H    -3.841103  0.474582  3.900922
H    -3.688216  -1.117578  4.606606
H    -4.050945  -2.146285  2.316378
H    -4.120337  -0.514502  1.617094
H    -6.034535  -1.444802  3.822059
H    -6.337614  -1.700429  2.111690
H    -7.553427  0.243150  2.728245
H    -6.226880  0.761301  1.689030
H    -6.210836  2.263189  3.428512
H    -6.373286  1.141209  4.591999
N    -1.266290  -2.337066  5.042336
C    -2.256764  -3.343912  4.656666
H    -0.624964  -2.606704  5.790181
H    -1.769472  -4.324879  4.673646
H    -2.633792  -3.160682  3.648666
H    -3.093388  -3.353559  5.366862
Ca    1.353454  0.759712  4.017481
