34
Energy: -36753.6491313 eV PBE+vdW (tier 2 basis)
C    -0.743209  0.030724  -0.007400
C    -0.834349  -0.356095  1.426885
O    0.182274  -0.821527  2.042511
H    0.024838  0.801523  -0.160134
H    -1.696046  0.355559  -0.433392
H    -0.395467  -0.856669  -0.559389
N    -1.993340  -0.215478  2.107090
C    -2.802333  1.013143  2.091109
C    -1.850026  2.183388  2.415758
O    -0.779927  1.940876  3.092126
H    -2.018600  -0.705598  3.003488
H    -3.269125  1.145472  1.106852
C    -3.888713  0.866024  3.188321
C    -5.110584  1.783197  3.103781
C    -6.012065  1.573061  1.874826
C    -6.336816  0.106839  1.546810
N    -6.666850  -0.650999  2.757916
H    -3.403330  0.983675  4.171228
H    -4.263504  -0.169862  3.134604
H    -4.831300  2.842997  3.198819
H    -5.693713  1.560875  4.007345
H    -5.586635  2.036040  0.968478
H    -6.947226  2.123611  2.056232
H    -5.460292  -0.381395  1.086497
H    -7.122789  0.095175  0.770979
H    -7.525229  -0.296325  3.184002
H    -6.854149  -1.627204  2.528091
N    -2.106204  3.424644  2.052382
C    -3.176501  3.963632  1.209739
H    -1.432211  4.109109  2.400531
H    -2.724013  4.555963  0.405752
H    -3.829311  4.612236  1.805534
H    -3.774562  3.161536  0.774342
Ca    0.791975  0.573064  3.574551
