34
Energy: -36754.2840071 eV PBE+vdW (tier 2 basis)
C    -1.572809  -0.306654  -0.064963
C    -1.124937  -0.202030  1.352981
O    0.058575  -0.543916  1.678838
H    -2.441651  0.321443  -0.290576
H    -1.860883  -1.356666  -0.244846
H    -0.749552  -0.065523  -0.745110
N    -2.012564  0.218728  2.262182
C    -1.976741  0.125625  3.739987
C    -0.988004  1.115371  4.364811
O    0.267718  0.996591  4.158476
H    -2.924319  0.456414  1.880773
H    -2.987451  0.421271  4.044196
C    -1.731183  -1.292496  4.310926
C    -2.851191  -2.312929  4.050075
C    -3.015360  -2.771391  2.597965
C    -3.955587  -3.972459  2.422448
N    -4.068124  -4.298296  0.999816
H    -1.602153  -1.169029  5.398040
H    -0.776941  -1.693864  3.931897
H    -3.804188  -1.914123  4.434905
H    -2.626860  -3.187547  4.680002
H    -2.028850  -3.036890  2.176554
H    -3.423377  -1.971954  1.962393
H    -4.953101  -3.702794  2.798669
H    -3.603688  -4.812691  3.049331
H    -3.362041  -4.977352  0.716978
H    -4.970939  -4.719890  0.788560
N    -1.423602  2.062387  5.176649
C    -2.803269  2.381542  5.570842
H    -0.685509  2.628359  5.597677
H    -3.434355  2.558692  4.692702
H    -2.776317  3.302550  6.159410
H    -3.230420  1.586320  6.193965
Ca    1.645833  -0.095044  2.976112
