34
Energy: -36754.2648591 eV PBE+vdW (tier 2 basis)
C    1.609348  -0.226419  1.290814
C    0.919132  -0.073729  2.602266
O    1.564026  0.317710  3.631581
H    2.014316  0.751267  0.991608
H    0.953633  -0.598917  0.497355
H    2.466399  -0.903766  1.403756
N    -0.388427  -0.340377  2.692507
C    -1.218869  -0.071824  3.879757
C    -0.906455  -1.096156  4.994812
O    -0.046754  -0.746959  5.881536
H    -0.873197  -0.617436  1.840858
H    -0.862557  0.879170  4.303098
C    -2.689537  0.135297  3.489888
C    -3.612977  0.438405  4.675026
C    -3.260878  1.697493  5.476581
C    -4.442970  2.163824  6.348852
N    -5.597773  2.473078  5.509338
H    -3.065758  -0.726220  2.920649
H    -2.702584  0.991073  2.796202
H    -3.674744  -0.428699  5.354164
H    -4.628157  0.585512  4.277552
H    -2.996395  2.515355  4.783353
H    -2.386057  1.536641  6.131593
H    -4.106640  3.003005  6.983193
H    -4.724297  1.350554  7.034566
H    -6.471787  2.377040  6.022333
H    -5.563746  3.429869  5.159082
N    -1.445259  -2.298269  5.072901
C    -2.400253  -2.976232  4.189058
H    -1.141911  -2.828421  5.891277
H    -2.314527  -4.051287  4.372114
H    -2.164819  -2.788829  3.137801
H    -3.428432  -2.662911  4.407211
Ca    1.780536  0.329918  5.736934
