34
Energy: -36753.7894261 eV PBE+vdW (tier 2 basis)
C    0.093842  0.074321  0.197436
C    -0.122758  0.237439  1.661442
O    0.759286  0.796693  2.393704
H    -0.649614  -0.568250  -0.281770
H    1.092887  -0.364054  0.057402
H    0.118240  1.053588  -0.303289
N    -1.268170  -0.188116  2.240172
C    -2.605677  0.129114  1.709207
C    -2.639163  1.656130  1.484100
O    -1.886090  2.409288  2.217740
H    -1.234301  -0.208810  3.261265
H    -2.757460  -0.384972  0.750680
C    -3.633936  -0.407139  2.738401
C    -5.123775  -0.238615  2.411396
C    -5.742320  1.087644  2.868699
C    -7.180362  1.289556  2.371269
N    -7.247528  1.348179  0.895838
H    -3.416624  0.057729  3.716077
H    -3.393869  -1.476032  2.837261
H    -5.657731  -1.061288  2.908757
H    -5.291701  -0.396840  1.335881
H    -5.140262  1.946914  2.531380
H    -5.741255  1.124712  3.969646
H    -7.563512  2.230920  2.784968
H    -7.822470  0.490725  2.775895
H    -7.617341  0.478540  0.512188
H    -7.897455  2.074788  0.597983
N    -3.363224  2.202162  0.528877
C    -4.287383  1.593123  -0.428410
H    -3.323603  3.222666  0.512079
H    -5.328137  1.611091  -0.029948
H    -4.000476  0.558469  -0.639524
H    -4.235681  2.170394  -1.357385
Ca    -0.000540  2.669769  3.169084
