34
Energy: -36752.6788933 eV PBE+vdW (tier 2 basis)
C    0.195266  -0.152284  0.427038
C    0.250142  -0.067156  1.922297
O    1.229238  -0.487075  2.568731
H    1.190478  0.040521  0.013755
H    -0.534590  0.530709  -0.022398
H    -0.083661  -1.180476  0.151444
N    -0.831788  0.487616  2.548390
C    -1.175425  0.358247  3.971232
C    -0.190518  1.065702  4.905314
O    -0.661935  1.787857  5.888480
H    -1.581168  0.815678  1.949053
H    -2.128734  0.890945  4.087864
C    -1.372747  -1.099251  4.472482
C    -2.556146  -1.864356  3.857573
C    -2.338699  -2.420504  2.444362
C    -3.426989  -3.427258  2.041248
N    -3.211284  -3.919143  0.696074
H    -1.522758  -1.037429  5.562630
H    -0.437431  -1.657938  4.324042
H    -3.464243  -1.238732  3.883833
H    -2.763011  -2.708866  4.533097
H    -1.353988  -2.914259  2.391668
H    -2.332064  -1.622994  1.688666
H    -4.413344  -2.942272  2.071091
H    -3.456914  -4.243914  2.791338
H    -2.420182  -4.550510  0.588829
H    -4.035968  -4.301321  0.240860
N    1.086143  0.881644  4.741944
C    2.136750  1.447306  5.577313
H    1.316293  0.245702  3.888314
H    3.103987  1.155309  5.159401
H    2.071106  1.060598  6.603864
H    2.080863  2.544500  5.589549
Ca    -1.236939  2.933690  7.433414
