34
Energy: -36753.3187896 eV PBE+vdW (tier 2 basis)
C    1.056597  0.137062  0.820448
C    -0.122958  -0.616409  1.359894
O    -0.836636  -1.273305  0.398636
H    1.751193  -0.546148  0.310885
H    1.600366  0.646945  1.620167
H    0.729630  0.891190  0.090143
N    -0.398149  -0.616276  2.607122
C    -1.518715  -1.363006  3.154128
C    -2.454825  -0.416172  3.938199
O    -2.078864  0.656700  4.447083
H    0.701123  0.322845  4.086243
H    -2.127271  -1.816442  2.354229
C    -0.998004  -2.541272  4.039668
C    0.201340  -2.285407  4.966062
C    -0.024398  -1.346775  6.177673
C    0.802982  -0.064883  6.173731
N    0.489898  0.802136  4.985068
H    -0.712539  -3.347068  3.347668
H    -1.838584  -2.933972  4.630391
H    1.057026  -1.941013  4.364783
H    0.505924  -3.270863  5.341939
H    0.248458  -1.872860  7.102010
H    -1.088099  -1.095665  6.294100
H    1.878633  -0.283164  6.150575
H    0.597213  0.532803  7.069903
H    -0.568797  0.935133  4.870006
H    0.973994  1.703457  5.025339
N    -3.740776  -0.799273  4.075672
C    -4.423535  -1.966574  3.531427
H    -4.295166  -0.146805  4.625858
H    -5.462574  -1.941605  3.872609
H    -3.981555  -2.908702  3.879405
H    -4.435099  -1.956620  2.431655
Ca    -1.449151  -1.966186  -1.310757
