34
Energy: -36752.7813357 eV PBE+vdW (tier 2 basis)
C    0.413518  0.630509  0.219670
C    0.018223  0.704088  1.654333
O    0.967143  0.813726  2.553107
H    1.075254  1.473018  -0.021011
H    -0.442270  0.641766  -0.460193
H    0.985759  -0.292536  0.048080
N    -1.216783  0.665632  2.067072
C    -2.485807  0.590674  1.333137
C    -3.480661  1.122292  2.414278
O    -3.106853  1.101905  3.597718
H    -1.473620  0.764776  3.084092
H    -2.457832  1.264856  0.464448
C    -2.795405  -0.859349  0.890739
C    -4.017034  -0.992017  -0.030385
C    -4.149956  -2.377943  -0.678854
C    -4.539980  -3.500211  0.290575
N    -4.656424  -4.762047  -0.408089
H    -2.908024  -1.477411  1.793667
H    -1.910363  -1.241427  0.357439
H    -3.942975  -0.243283  -0.836102
H    -4.939456  -0.767544  0.526946
H    -3.213618  -2.653684  -1.187966
H    -4.916508  -2.312461  -1.466164
H    -5.476957  -3.211662  0.813965
H    -3.777234  -3.627198  1.074115
H    -4.747270  -5.580679  0.187687
H    -5.348440  -4.780476  -1.154481
N    -4.671446  1.555046  1.990356
C    -5.724670  2.036800  2.883071
H    -4.862058  1.546601  0.993580
H    -6.014089  3.056793  2.604602
H    -5.340669  2.032769  3.906201
H    -6.603574  1.383324  2.822605
Ca    2.420829  1.050852  3.913949
