34
Energy: -36752.7262075 eV PBE+vdW (tier 2 basis)
C    -0.274107  -0.283289  -0.513349
C    0.079351  -0.058256  0.915396
O    1.307068  -0.344222  1.302801
H    0.534929  0.078122  -1.159566
H    -1.210265  0.205785  -0.796633
H    -0.383167  -1.363467  -0.693093
N    -0.748923  0.394797  1.806519
C    -2.151350  0.826117  1.706667
C    -2.296670  1.631718  3.029801
O    -1.421924  1.469933  3.902224
H    -0.470263  0.585196  2.811359
H    -2.264781  1.502697  0.847364
C    -3.136347  -0.358352  1.558957
C    -3.020057  -1.482753  2.604360
C    -3.777481  -1.305459  3.931488
C    -5.307681  -1.359917  3.816880
N    -5.889974  -0.094181  3.346362
H    -2.982899  -0.776787  0.553219
H    -4.156259  0.049680  1.566650
H    -1.958090  -1.681782  2.824966
H    -3.388133  -2.404003  2.128019
H    -3.478244  -0.380200  4.447566
H    -3.466048  -2.122933  4.597927
H    -5.721978  -1.659114  4.796015
H    -5.596774  -2.148503  3.106974
H    -6.843469  -0.228614  3.009365
H    -5.937725  0.585756  4.106470
N    -3.330872  2.465872  3.169451
C    -4.379396  2.782521  2.200222
H    -3.354566  2.944218  4.067285
H    -4.859360  3.714677  2.511980
H    -5.134441  1.985522  2.159762
H    -3.959440  2.947595  1.200358
Ca    3.173641  -0.714327  1.879540
