34
Energy: -36752.7960882 eV PBE+vdW (tier 2 basis)
C    -1.678601  0.332219  -2.053908
C    -0.938878  1.074292  -0.994544
O    0.194586  1.650278  -1.317222
H    -2.704391  0.088730  -1.763898
H    -1.149741  -0.607099  -2.274135
H    -1.693430  0.923366  -2.977685
N    -1.350746  1.178782  0.236651
C    -2.580712  0.718019  0.891110
C    -2.571159  1.586259  2.191055
O    -1.543606  2.230940  2.453835
H    -0.840895  1.761731  0.954369
H    -3.447478  0.991255  0.271160
C    -2.595611  -0.797405  1.186859
C    -1.487756  -1.279378  2.130819
C    -1.470304  -2.800242  2.337418
C    -2.670437  -3.353839  3.117740
N    -2.544417  -4.782626  3.305746
H    -2.542865  -1.342884  0.231509
H    -3.588077  -1.032176  1.599321
H    -1.582078  -0.773689  3.105193
H    -0.508612  -0.974807  1.728989
H    -0.550020  -3.061404  2.882090
H    -1.409583  -3.320097  1.368675
H    -3.609089  -3.178364  2.570975
H    -2.758738  -2.800730  4.077778
H    -3.390072  -5.258480  3.607978
H    -1.743667  -5.078992  3.859499
N    -3.674724  1.556206  2.942973
C    -3.820403  2.287643  4.201008
H    -4.468798  1.013602  2.618157
H    -4.033073  1.590728  5.020359
H    -4.638358  3.013786  4.123785
H    -2.885081  2.814539  4.405450
Ca    1.874518  2.609541  -1.844322
