34
Energy: -36752.6870687 eV PBE+vdW (tier 2 basis)
C    -0.876660  1.072719  0.356764
C    -0.548773  0.781559  1.790596
O    0.630128  0.703581  2.187293
H    -0.311217  1.953491  0.030163
H    -1.944217  1.229348  0.168308
H    -0.530030  0.227498  -0.254311
N    -1.601506  0.616039  2.647405
C    -1.544657  0.021530  3.990836
C    -0.754533  0.849570  5.004881
O    -1.259000  1.028896  6.197117
H    -2.529501  0.699770  2.247002
H    -2.582020  0.024246  4.351677
C    -1.030877  -1.443261  4.003933
C    -1.928463  -2.394375  3.202752
C    -1.470142  -3.859397  3.245903
C    -0.195197  -4.150790  2.443416
N    0.158893  -5.549551  2.531095
H    -0.985119  -1.776365  5.053765
H    0.000742  -1.456218  3.626530
H    -1.981015  -2.060337  2.154533
H    -2.956064  -2.336244  3.595744
H    -2.285122  -4.482658  2.847160
H    -1.318694  -4.185499  4.286413
H    0.657113  -3.570650  2.828435
H    -0.349283  -3.815532  1.394863
H    -0.540201  -6.201804  2.182367
H    1.086443  -5.790325  2.192611
N    0.422051  1.301540  4.683712
C    1.303524  2.063484  5.557971
H    0.701423  1.061979  3.661110
H    2.197858  2.337132  4.991712
H    1.610740  1.461835  6.424552
H    0.814560  2.985407  5.901575
Ca    -1.937051  1.413095  8.050304
