34
Energy: -36753.1019178 eV PBE+vdW (tier 2 basis)
C    -0.582191  1.248701  0.975738
C    -0.245003  0.918266  2.388728
O    0.809541  1.490982  2.874582
H    0.292794  1.037131  0.346312
H    -0.779071  2.325660  0.890566
H    -1.444254  0.687076  0.606930
N    -1.022975  0.091546  3.064683
C    -0.791009  -0.629643  4.325786
C    -0.305110  0.179886  5.515131
O    -0.726775  -0.227961  6.711189
H    -1.827715  -0.394548  2.523892
H    -1.785005  -1.006559  4.607021
C    0.145373  -1.852282  4.111917
C    -0.217291  -2.738420  2.911377
C    -1.635646  -3.358836  2.895287
C    -2.547730  -2.867198  1.767987
N    -3.014459  -1.464167  1.964556
H    0.124562  -2.447195  5.038206
H    1.175535  -1.485279  3.989523
H    0.531011  -3.541646  2.889569
H    -0.050472  -2.173358  1.982096
H    -2.143685  -3.221007  3.865586
H    -1.547331  -4.447226  2.780083
H    -3.403352  -3.551043  1.663709
H    -1.999025  -2.899922  0.816583
H    -3.781922  -1.459761  2.641955
H    -3.436935  -1.127416  1.095942
N    0.523744  1.156042  5.378357
C    0.995425  1.845635  6.556963
H    0.836105  1.389963  3.931082
H    1.675434  2.659541  6.282400
H    1.581867  1.171892  7.220925
H    0.161716  2.323136  7.118245
Ca    -0.600005  0.077229  8.671692
