34
Energy: -36752.7037358 eV PBE+vdW (tier 2 basis)
C    0.329242  -0.582799  0.036909
C    0.194193  -0.206667  1.481585
O    1.171739  -0.218630  2.254526
H    1.250187  -0.149633  -0.367677
H    -0.525751  -0.280036  -0.577885
H    0.429980  -1.676523  -0.023512
N    -1.053161  0.146843  1.914338
C    -1.508088  0.206947  3.310445
C    -0.834578  1.307543  4.131707
O    -1.573237  2.040934  4.924998
H    -1.790371  0.144577  1.218134
H    -2.569325  0.484545  3.256393
C    -1.400086  -1.131373  4.092878
C    -2.282608  -2.278081  3.579734
C    -1.788705  -3.019111  2.328435
C    -2.477587  -4.383376  2.153418
N    -2.165344  -5.285739  3.247136
H    -1.683167  -0.908763  5.134930
H    -0.345821  -1.442717  4.123076
H    -3.315103  -1.921867  3.424514
H    -2.340103  -3.020801  4.389893
H    -0.698822  -3.175933  2.395542
H    -1.963341  -2.437237  1.411979
H    -2.188923  -4.797870  1.168555
H    -3.568594  -4.248863  2.125079
H    -1.216357  -5.654696  3.233109
H    -2.831728  -6.043049  3.374183
N    0.456847  1.445730  4.078782
C    1.237806  2.410972  4.840407
H    0.928968  0.746800  3.388804
H    2.283432  2.328345  4.531692
H    1.176323  2.201188  5.917403
H    0.896849  3.436241  4.641807
Ca    -2.591889  3.221430  6.184525
