34
Energy: -36754.3069929 eV PBE+vdW (tier 2 basis)
C    -0.470902  -0.195414  -0.661555
C    -0.087231  -0.074546  0.774784
O    1.122781  0.173961  1.098914
H    -0.332649  0.756492  -1.193610
H    -1.490425  -0.559782  -0.813170
H    0.231589  -0.907292  -1.120468
N    -1.006962  -0.245214  1.750687
C    -2.288027  0.477446  1.724393
C    -1.994202  1.874703  2.346597
O    -0.820538  2.388694  2.138907
H    -0.601210  -0.361782  2.681257
H    -2.509891  0.678470  0.663845
C    -3.466393  -0.292205  2.327889
C    -4.807117  0.073721  1.649526
C    -6.039841  -0.067075  2.555672
C    -6.396873  1.212309  3.307030
N    -5.267641  1.718602  4.142934
H    -3.501414  -0.129958  3.413726
H    -3.270598  -1.363713  2.192389
H    -4.922884  -0.563971  0.762483
H    -4.771519  1.106869  1.265448
H    -5.903222  -0.903432  3.260338
H    -6.914062  -0.337703  1.948479
H    -7.294141  1.047138  3.921307
H    -6.641008  2.006028  2.586339
H    -5.578212  2.569819  4.619783
H    -5.088845  1.051726  4.900330
N    -2.906846  2.502083  3.035466
C    -2.679780  3.851156  3.556031
H    -3.877044  2.060911  3.369942
H    -1.962302  3.839030  4.387743
H    -3.633661  4.239789  3.923908
H    -2.304125  4.514821  2.769319
Ca    1.265252  2.180656  1.879698
