34
Energy: -36754.3539244 eV PBE+vdW (tier 2 basis)
C    0.711261  -0.765428  2.144975
C    0.596201  0.269366  3.212563
O    1.640630  0.806559  3.711909
H    0.910399  -0.291438  1.171055
H    -0.183292  -1.389279  2.058081
H    1.580955  -1.395039  2.371942
N    -0.616148  0.669234  3.654123
C    -1.708062  1.019217  2.743666
C    -1.252233  2.229975  1.882093
O    -0.137612  2.830246  2.144861
H    -0.582146  1.245094  4.497561
H    -1.868417  0.181694  2.051219
C    -3.007492  1.285824  3.537618
C    -3.903422  0.044686  3.690638
C    -4.979329  -0.147585  2.609591
C    -4.547973  -0.297253  1.146550
N    -4.274739  1.009508  0.468547
H    -3.566537  2.098251  3.056719
H    -2.722304  1.676066  4.527426
H    -4.421894  0.111672  4.656501
H    -3.274049  -0.857366  3.763369
H    -5.716358  0.670462  2.679350
H    -5.540549  -1.055135  2.872883
H    -5.340903  -0.833385  0.605393
H    -3.643898  -0.920274  1.059879
H    -4.222512  0.837551  -0.540302
H    -5.102259  1.603566  0.583275
N    -2.048104  2.567700  0.907849
C    -1.819556  3.690079  0.002043
H    -2.946210  1.943950  0.760154
H    -2.784438  4.013770  -0.400751
H    -1.175646  3.387897  -0.835119
H    -1.352056  4.527406  0.530026
Ca    1.752272  2.877059  3.095924
