34
Energy: -36752.6303598 eV PBE+vdW (tier 2 basis)
C    -2.368255  0.845929  0.542391
C    -1.595535  0.725503  1.810352
O    -0.910857  1.766830  2.219989
H    -1.676081  1.052013  -0.286092
H    -3.054314  1.700834  0.612885
H    -2.942034  -0.053617  0.305417
N    -1.562127  -0.353839  2.538248
C    -2.209398  -1.665468  2.380206
C    -2.170041  -2.180694  3.853214
O    -1.268101  -1.723084  4.575817
H    -1.024246  -0.404611  3.440560
H    -3.234971  -1.536876  2.011901
C    -1.367879  -2.549463  1.425221
C    -1.877972  -3.981530  1.223105
C    -1.002455  -4.806248  0.266764
C    -1.141394  -4.435772  -1.214054
N    -0.271969  -5.255503  -2.030258
H    -0.340210  -2.579928  1.819487
H    -1.318040  -2.024497  0.458725
H    -2.915985  -3.967746  0.852924
H    -1.895857  -4.498303  2.192410
H    -1.274785  -5.865913  0.386968
H    0.056248  -4.730089  0.558134
H    -0.859049  -3.385110  -1.387369
H    -2.210376  -4.522204  -1.505880
H    -0.420225  -6.259009  -1.944552
H    -0.207865  -4.982927  -3.007423
N    -3.066226  -3.074359  4.289882
C    -4.244138  -3.633306  3.634594
H    -2.903464  -3.358092  5.255384
H    -4.464333  -3.102802  2.704503
H    -4.101095  -4.696463  3.403726
H    -5.109996  -3.530331  4.299179
Ca    0.107267  3.358264  2.893730
