34
Energy: -36754.2262326 eV PBE+vdW (tier 2 basis)
C    -1.893712  -2.780124  1.131192
C    -1.548883  -1.661866  2.051428
O    -0.705412  -0.769056  1.703853
H    -0.981697  -3.208766  0.699094
H    -2.484032  -2.364486  0.298983
H    -2.482481  -3.567384  1.613091
N    -2.160925  -1.581198  3.237218
C    -2.114024  -0.410525  4.131404
C    -0.753266  -0.360617  4.861679
O    0.178177  0.327316  4.308991
H    -2.869043  -2.282914  3.443356
H    -2.084387  0.479157  3.481875
C    -3.387832  -0.299642  4.990514
C    -4.567802  0.365176  4.261665
C    -5.067655  -0.357828  3.007999
C    -6.324585  0.271865  2.393581
N    -6.652382  -0.404742  1.138188
H    -3.144408  0.293078  5.884321
H    -3.683737  -1.295649  5.355221
H    -4.294627  1.403636  4.010660
H    -5.387623  0.445850  4.990908
H    -5.284641  -1.415579  3.245531
H    -4.306398  -0.362759  2.211114
H    -6.118802  1.328771  2.167131
H    -7.139774  0.265980  3.141506
H    -7.180705  -1.261062  1.308728
H    -7.247035  0.182213  0.554502
N    -0.496666  -0.982684  5.997034
C    -1.333864  -1.873860  6.807858
H    0.443902  -0.808262  6.354921
H    -0.666970  -2.521072  7.385379
H    -1.962167  -2.505848  6.175045
H    -1.958488  -1.301121  7.503801
Ca    0.755420  0.641029  2.283527
