34
Energy: -36754.3531665 eV PBE+vdW (tier 2 basis)
C    1.007518  1.318378  1.866378
C    0.702320  0.557677  3.112750
O    0.907737  1.087912  4.256571
H    2.009392  1.754217  1.990328
H    0.317114  2.165079  1.740236
H    0.996750  0.700377  0.964454
N    0.218903  -0.701995  3.053372
C    -0.914426  -1.055870  2.190409
C    -2.199251  -0.621180  2.966551
O    -2.084761  0.343623  3.826720
H    0.245529  -1.196284  3.947323
H    -0.864342  -0.391136  1.313158
C    -0.885623  -2.511076  1.707144
C    -1.537861  -2.674775  0.319371
C    -2.134424  -4.062557  0.059052
C    -3.201039  -4.487538  1.069742
N    -4.168200  -3.385504  1.338234
H    0.163893  -2.829166  1.660783
H    -1.366073  -3.155639  2.457344
H    -0.789506  -2.453357  -0.454525
H    -2.325339  -1.916730  0.183708
H    -1.345151  -4.828198  0.050201
H    -2.565049  -4.066690  -0.953464
H    -2.749156  -4.760674  2.034171
H    -3.712727  -5.388393  0.701792
H    -4.620448  -3.111961  0.459971
H    -4.925561  -3.751246  1.921691
N    -3.348162  -1.196275  2.740315
C    -4.570525  -0.745638  3.408702
H    -3.523466  -2.083241  2.087927
H    -5.417114  -1.270194  2.956370
H    -4.711575  0.333824  3.281489
H    -4.543923  -0.979714  4.481282
Ca    -0.984379  1.511501  5.200395
