34
Energy: -36754.9978354 eV PBE+vdW (tier 2 basis)
C    0.340539  -0.153766  1.100055
C    -0.230310  -0.077769  2.472948
O    0.495990  -0.207057  3.502182
H    1.252681  0.448358  1.017202
H    -0.370840  0.108810  0.311381
H    0.641685  -1.202698  0.941778
N    -1.567091  0.113672  2.652728
C    -2.357866  1.153126  1.988049
C    -1.516643  2.443964  1.906858
O    -0.587448  2.640308  2.757362
H    -1.879101  -0.115642  3.593459
H    -2.646790  0.822864  0.981408
C    -3.650171  1.432082  2.807068
C    -3.481539  2.177946  4.149198
C    -3.021366  1.349784  5.368531
C    -2.454444  2.165567  6.527517
N    -1.144497  2.833679  6.174152
H    -4.163375  0.468832  2.950145
H    -4.313307  2.023529  2.162270
H    -4.457467  2.614760  4.402358
H    -2.818522  3.044125  3.995814
H    -2.259195  0.589770  5.116660
H    -3.868274  0.759144  5.746601
H    -2.258004  1.500508  7.377032
H    -3.178405  2.919745  6.867918
H    -1.363528  3.742744  5.750217
H    -0.696820  3.092153  7.060851
N    -1.785114  3.361434  0.992480
C    -2.810639  3.359613  -0.054760
H    -1.208145  4.201161  1.056926
H    -3.693666  3.924054  0.271011
H    -3.107924  2.340189  -0.315093
H    -2.395678  3.837640  -0.948061
Ca    0.396006  1.772475  4.524123
