34
Energy: -36753.4935694 eV PBE+vdW (tier 2 basis)
C    -0.903118  1.308297  1.538230
C    -1.253528  1.004770  2.955482
O    -0.608459  1.560312  3.907236
H    -0.293239  2.216487  1.510680
H    -1.794388  1.435809  0.914984
H    -0.310259  0.487392  1.103499
N    -2.238999  0.134940  3.280462
C    -2.410835  -1.200418  2.684607
C    -1.108455  -2.001054  2.981190
O    -0.192137  -1.505170  3.726530
H    -2.486258  0.177578  4.269495
H    -3.201037  -1.672318  3.290974
C    -2.898226  -1.227330  1.215820
C    -3.775145  -2.442708  0.861214
C    -4.475484  -2.297081  -0.496197
C    -3.543686  -2.354690  -1.712875
N    -4.311763  -2.168339  -2.932370
H    -2.050436  -1.142359  0.523051
H    -3.515051  -0.327490  1.080277
H    -4.534593  -2.576602  1.647261
H    -3.190938  -3.383115  0.836776
H    -5.044766  -1.355380  -0.524690
H    -5.219671  -3.103193  -0.581475
H    -2.963483  -3.303425  -1.673327
H    -2.805122  -1.537564  -1.668834
H    -3.719475  -2.051956  -3.752230
H    -4.948309  -2.943891  -3.114275
N    -0.988708  -3.207735  2.472250
C    0.144687  -4.109843  2.699971
H    -1.751357  -3.535597  1.878054
H    1.066120  -3.677910  2.291787
H    -0.062950  -5.055304  2.192824
H    0.271696  -4.297486  3.772433
Ca    0.648666  0.107368  4.878792
