34
Energy: -36752.6997868 eV PBE+vdW (tier 2 basis)
C    -0.682142  0.324673  -0.156300
C    -0.098192  -0.167453  1.122145
O    0.799190  -1.128974  1.063530
H    0.125114  0.641217  -0.830546
H    -1.375886  1.157019  -0.013448
H    -1.217357  -0.497705  -0.651782
N    -0.418099  0.296299  2.293576
C    -1.353996  1.353523  2.705255
C    -0.790795  1.690803  4.120345
O    -0.157272  0.787129  4.694859
H    0.020330  -0.056965  3.184825
H    -1.283357  2.204914  2.015683
C    -2.793946  0.782802  2.763217
C    -3.880256  1.791766  3.150219
C    -5.308833  1.221478  3.112643
C    -5.670362  0.260672  4.251090
N    -5.015109  -1.043175  4.127681
H    -2.810618  -0.071147  3.455791
H    -3.024269  0.375310  1.765280
H    -3.837126  2.656668  2.469219
H    -3.690017  2.179293  4.162525
H    -5.499378  0.735102  2.141195
H    -6.009435  2.067206  3.160915
H    -6.772089  0.167361  4.285447
H    -5.369471  0.698316  5.214579
H    -5.087943  -1.592072  4.983273
H    -5.406499  -1.595741  3.364603
N    -0.997971  2.892020  4.672916
C    -1.592599  4.102288  4.114698
H    -0.614755  2.965093  5.614596
H    -0.909576  4.945479  4.271843
H    -2.551407  4.330218  4.596870
H    -1.761956  3.996227  3.040161
Ca    2.203092  -2.543518  0.998864
