34
Energy: -36754.3427984 eV PBE+vdW (tier 2 basis)
C    -1.323943  -0.778875  -0.308528
C    -0.456254  -0.995510  0.885022
O    0.697636  -1.527545  0.753777
H    -2.338558  -0.456457  -0.059834
H    -1.379377  -1.740224  -0.841233
H    -0.867760  -0.066783  -1.010673
N    -0.883785  -0.650665  2.119766
C    -1.427106  0.689566  2.390960
C    -0.193382  1.611674  2.633526
O    0.896548  1.340234  1.986221
H    -0.315888  -1.039063  2.874997
H    -1.856720  1.053972  1.444371
C    -2.520502  0.723340  3.453125
C    -2.089245  0.325987  4.873570
C    -2.974794  0.941732  5.971424
C    -3.209725  2.448978  5.838239
N    -1.951314  3.194733  5.545590
H    -3.341456  0.081802  3.104320
H    -2.930982  1.742235  3.442120
H    -1.045617  0.632284  5.052703
H    -2.102760  -0.767947  4.981688
H    -2.518213  0.720724  6.947438
H    -3.959014  0.451672  5.986045
H    -3.689012  2.819545  6.756095
H    -3.909476  2.667507  5.019835
H    -2.170973  4.193538  5.497293
H    -1.317969  3.103086  6.346137
N    -0.282129  2.642357  3.429319
C    0.820357  3.590926  3.593064
H    -1.092707  2.785603  4.163367
H    1.161422  3.960818  2.619789
H    1.667922  3.129169  4.117770
H    0.456602  4.434023  4.187506
Ca    2.225303  -0.045526  1.101167
