34
Energy: -36752.7750117 eV PBE+vdW (tier 2 basis)
C    -0.228587  -1.571915  0.218817
C    -0.097157  -0.991923  1.584817
O    1.000244  -1.247620  2.261454
H    -1.084297  -1.172776  -0.332089
H    -0.345038  -2.662810  0.297722
H    0.689529  -1.382647  -0.351758
N    -1.004069  -0.249730  2.149425
C    -2.283023  0.269223  1.647642
C    -2.539872  1.432259  2.656707
O    -1.826782  1.474845  3.675180
H    -0.864636  0.206605  3.094856
H    -2.140291  0.669972  0.633858
C    -3.409778  -0.789931  1.648276
C    -3.888784  -1.235904  3.031419
C    -4.988145  -2.301224  2.949165
C    -5.637607  -2.599498  4.307258
N    -6.362117  -1.444289  4.816730
H    -3.064957  -1.655580  1.060712
H    -4.253410  -0.372602  1.080593
H    -4.281135  -0.373805  3.592383
H    -3.043991  -1.627622  3.622467
H    -4.586293  -3.239284  2.536317
H    -5.772165  -1.972348  2.246466
H    -4.864933  -2.866109  5.043344
H    -6.285991  -3.489517  4.198605
H    -7.234148  -1.258148  4.323811
H    -6.540416  -1.475831  5.817728
N    -3.506370  2.321103  2.405993
C    -4.405302  2.409307  1.259261
H    -3.625648  3.011068  3.145401
H    -3.925386  2.029880  0.350751
H    -4.648680  3.462757  1.087312
H    -5.340080  1.859461  1.433467
Ca    2.714098  -1.539130  3.248816
