34
Energy: -36754.4909883 eV PBE+vdW (tier 2 basis)
C    -1.606764  0.786792  -0.080291
C    -1.744691  0.032577  1.203815
O    -0.929097  0.247894  2.148071
H    -1.641250  1.864266  0.128913
H    -2.372250  0.539707  -0.822833
H    -0.614945  0.576530  -0.504682
N    -2.745063  -0.857132  1.298422
C    -3.124793  -1.843147  2.340897
C    -3.468188  -1.199944  3.693680
O    -2.627678  -0.521523  4.357064
H    -3.316835  -0.922735  0.460712
H    -4.071183  -2.227813  1.942504
C    -2.188634  -3.104128  2.454137
C    -1.322793  -3.314683  3.706721
C    0.003642  -2.535170  3.742075
C    0.456562  -2.118123  5.156093
N    0.883497  -3.256154  5.915848
H    -1.569259  -3.131121  1.545897
H    -2.857891  -3.970274  2.374840
H    -1.099532  -4.386637  3.767958
H    -1.906772  -3.104839  4.615886
H    -0.041018  -1.678611  3.038381
H    0.815745  -3.132164  3.300810
H    -0.408478  -1.697826  5.724253
H    1.236982  -1.296284  5.068207
H    1.056855  -3.058499  6.899457
H    1.703903  -3.714122  5.520040
N    -4.683601  -1.439536  4.165621
C    -5.193680  -0.986163  5.460027
H    -5.326470  -1.965062  3.578574
H    -4.355761  -0.705301  6.101976
H    -5.760286  -1.800150  5.924500
H    -5.855276  -0.121358  5.322328
Ca    -0.598999  0.196734  4.253101
