34
Energy: -36754.6434569 eV PBE+vdW (tier 2 basis)
C    0.700000  -0.678117  -0.116608
C    0.417331  -0.520204  1.339876
O    1.405775  -0.512217  2.170367
H    1.215729  -1.633223  -0.286525
H    1.386483  0.115291  -0.441835
H    -0.206605  -0.648145  -0.726915
N    -0.832027  -0.386029  1.760716
C    -1.092050  -0.101347  3.174613
C    -0.622890  -1.245162  4.100227
O    0.350966  -0.981503  4.896362
H    -1.652005  -0.164790  1.020981
H    -0.403555  0.710815  3.463469
C    -2.486743  0.506195  3.454317
C    -3.813282  -0.250021  3.275238
C    -4.299386  -0.647300  1.867358
C    -4.135813  0.409130  0.768851
N    -2.831778  0.243235  0.057307
H    -2.509862  1.437420  2.866266
H    -2.446127  0.842677  4.501076
H    -4.568744  0.431109  3.695275
H    -3.844950  -1.127566  3.936061
H    -5.365376  -0.894892  1.958777
H    -3.828124  -1.578910  1.516050
H    -4.166007  1.424066  1.187739
H    -4.967097  0.344082  0.054235
H    -2.621769  1.089026  -0.479393
H    -2.935554  -0.498037  -0.641542
N    -1.125336  -2.468374  4.115346
C    -2.098537  -3.112155  3.236506
H    -0.711372  -3.066120  4.832759
H    -1.695593  -4.084831  2.930756
H    -2.263336  -2.505061  2.346312
H    -3.047843  -3.274563  3.759906
Ca    2.256964  -0.454694  4.087160
