34
Energy: -36752.6976096 eV PBE+vdW (tier 2 basis)
C    0.173378  -0.060808  0.678439
C    -0.120808  0.099471  2.129919
O    0.868108  -0.061342  2.982644
H    1.075775  0.507095  0.419021
H    -0.652273  0.262906  0.039202
H    0.380738  -1.119943  0.465642
N    -1.296726  0.384022  2.605691
C    -2.565492  0.688823  1.932312
C    -3.354566  1.376289  3.088439
O    -2.894826  1.268612  4.239769
H    -1.473837  0.543770  3.635824
H    -2.375835  1.409190  1.123574
C    -3.291921  -0.555455  1.359233
C    -4.003669  -1.476039  2.354728
C    -3.112267  -2.296359  3.293020
C    -3.909872  -3.367398  4.059336
N    -4.509060  -4.337446  3.159396
H    -2.565451  -1.130344  0.763933
H    -4.026439  -0.180129  0.633711
H    -4.607301  -2.183842  1.767943
H    -4.725944  -0.895887  2.951635
H    -2.617135  -1.653110  4.037761
H    -2.314126  -2.791545  2.711557
H    -4.719148  -2.881464  4.622569
H    -3.245764  -3.836030  4.810805
H    -3.862250  -5.034124  2.796171
H    -5.338380  -4.795883  3.527079
N    -4.483822  2.036262  2.812456
C    -5.137884  2.246401  1.523757
H    -4.947567  2.412535  3.637314
H    -5.691159  3.189927  1.565230
H    -5.843955  1.438131  1.290156
H    -4.402447  2.331392  0.716265
Ca    2.405505  -0.172107  4.251368
