34
Energy: -36752.831424 eV PBE+vdW (tier 2 basis)
C    0.003123  -0.892798  0.120491
C    0.231695  -0.362788  1.493282
O    1.470082  -0.306562  1.937153
H    0.644329  -0.356614  -0.591608
H    -1.038540  -0.805913  -0.199105
H    0.292769  -1.952911  0.086650
N    -0.716926  0.049772  2.280246
C    -2.168780  0.151817  2.090024
C    -2.529708  1.183244  3.206232
O    -1.702018  1.357817  4.116620
H    -0.527140  0.467277  3.232949
H    -2.389123  0.565462  1.094434
C    -2.855945  -1.221859  2.283420
C    -4.354753  -1.226621  1.956010
C    -5.005522  -2.620807  1.974091
C    -5.214071  -3.237229  3.361745
N    -3.961416  -3.659065  3.991841
H    -2.686029  -1.578181  3.309122
H    -2.349065  -1.941661  1.620741
H    -4.507914  -0.788979  0.954785
H    -4.899699  -0.586925  2.667419
H    -4.429131  -3.316205  1.341065
H    -5.992982  -2.537857  1.498133
H    -5.930113  -4.074411  3.261542
H    -5.693409  -2.501843  4.025018
H    -4.081014  -3.867016  4.982345
H    -3.568559  -4.486572  3.542721
N    -3.705871  1.807497  3.108465
C    -4.203178  2.763361  4.096694
H    -4.298343  1.597949  2.311501
H    -4.448440  3.712961  3.607232
H    -3.422848  2.928044  4.843785
H    -5.100369  2.369957  4.590277
Ca    3.341432  -0.151580  2.605497
