34
Energy: -36754.5063022 eV PBE+vdW (tier 2 basis)
C    0.599874  -0.108672  0.309361
C    0.393192  -0.108742  1.788830
O    1.348565  -0.431554  2.557634
H    -0.288336  0.182383  -0.260315
H    0.912913  -1.115424  -0.000827
H    1.426990  0.570587  0.062137
N    -0.815507  0.234895  2.256531
C    -1.371211  0.258385  3.634093
C    -0.727977  1.341810  4.507543
O    0.514863  1.301021  4.783461
H    -1.491851  0.475055  1.536922
H    -2.411943  0.553994  3.462963
C    -1.475543  -1.101365  4.370811
C    -0.259745  -1.767583  5.041566
C    -0.636215  -3.042267  5.830881
C    -1.217781  -2.788345  7.227634
N    -2.462773  -2.002180  7.185724
H    -1.913267  -1.811425  3.654151
H    -2.218407  -0.970983  5.175874
H    0.182091  -1.066960  5.787613
H    0.485985  -2.056537  4.273457
H    0.257346  -3.672539  5.945458
H    -1.340773  -3.635800  5.227177
H    -0.485819  -2.220506  7.824009
H    -1.329081  -3.764539  7.729839
H    -3.245210  -2.604973  6.920898
H    -2.689467  -1.665888  8.122413
N    -1.481940  2.299179  5.022781
C    -2.925228  2.522429  4.865339
H    -0.978601  2.948418  5.628421
H    -3.190209  2.680132  3.813079
H    -3.184146  3.430037  5.417189
H    -3.501762  1.688990  5.284943
Ca    2.062909  -0.153647  4.529676
