34
Energy: -36754.1962233 eV PBE+vdW (tier 2 basis)
C    0.039451  0.612626  -0.008023
C    -0.069182  0.286597  1.441888
O    0.977570  0.189793  2.164336
H    0.524001  1.594323  -0.111862
H    -0.927553  0.635898  -0.520568
H    0.694905  -0.118462  -0.500002
N    -1.279170  0.107807  1.984948
C    -1.530824  -0.058033  3.429498
C    -1.057916  -1.463030  3.870885
O    0.115817  -1.546421  4.383782
H    -2.089172  0.233049  1.381026
H    -0.835841  0.622017  3.946727
C    -2.951516  0.406370  3.798324
C    -3.144518  0.691234  5.295348
C    -2.976598  -0.509963  6.227522
C    -3.261969  -0.184356  7.699766
N    -2.941579  -1.339032  8.538507
H    -3.709848  -0.301825  3.441144
H    -3.116157  1.342493  3.241672
H    -4.153802  1.111899  5.414058
H    -2.454442  1.496779  5.597914
H    -1.949048  -0.909400  6.195117
H    -3.643079  -1.330613  5.910144
H    -4.304195  0.175433  7.795049
H    -2.616706  0.650742  8.011541
H    -2.824364  -1.057941  9.511273
H    -3.700733  -2.021170  8.531834
N    -1.752128  -2.571744  3.695883
C    -3.068923  -2.794888  3.093046
H    -1.291696  -3.401145  4.073909
H    -3.094444  -3.824128  2.721739
H    -3.235874  -2.123314  2.246999
H    -3.865723  -2.668872  3.836226
Ca    1.959002  -0.647575  3.848009
