34
Energy: -36755.5425531 eV PBE+vdW (tier 2 basis)
C    -0.129783  1.446118  -0.423526
C    -0.279909  0.684337  0.848914
O    -0.354832  1.282618  1.964151
H    0.778619  2.061409  -0.371505
H    -0.976924  2.139206  -0.521810
H    -0.082861  0.806059  -1.310404
N    -0.347664  -0.659567  0.802062
C    -0.600434  -1.473113  1.994004
C    0.721966  -1.722858  2.752129
O    1.090276  -0.860467  3.607431
H    -0.300757  -1.115556  -0.106035
H    -1.179471  -0.813665  2.656241
C    -1.501452  -2.680745  1.742828
C    -2.090561  -3.246407  3.051091
C    -2.798028  -2.200271  3.946855
C    -1.958327  -1.644529  5.121853
N    -1.917298  -0.128947  5.176533
H    -0.989834  -3.476076  1.177302
H    -2.325113  -2.339796  1.096985
H    -1.312862  -3.765786  3.632134
H    -2.808937  -4.025703  2.768839
H    -3.703429  -2.656852  4.363904
H    -3.171665  -1.369695  3.323009
H    -0.921550  -2.001581  5.070327
H    -2.363956  -2.017937  6.070303
H    -1.899860  0.130959  6.170351
H    -2.834011  0.214403  4.866792
N    1.432689  -2.802203  2.475909
C    2.724703  -3.145615  3.073621
H    1.048736  -3.453886  1.795449
H    3.001963  -2.373389  3.794229
H    3.487458  -3.209452  2.288359
H    2.649483  -4.115571  3.579262
Ca    0.019624  0.996559  4.086410
