34
Energy: -36754.4461962 eV PBE+vdW (tier 2 basis)
C    1.765630  3.221107  3.072244
C    1.251010  2.250478  4.080120
O    1.528669  2.400592  5.318066
H    1.360208  4.215399  3.310833
H    1.492043  2.961854  2.044584
H    2.857991  3.296328  3.151580
N    0.486633  1.237758  3.669475
C    -0.285719  0.310236  4.519768
C    0.654740  -0.750980  5.134386
O    1.390821  -0.426110  6.128062
H    0.264222  1.205961  2.675634
H    -0.662815  0.891730  5.377551
C    -1.486417  -0.250690  3.742956
C    -2.583565  0.761319  3.378159
C    -2.267087  1.792167  2.285551
C    -3.560517  2.343266  1.649659
N    -4.324369  1.261007  1.033052
H    -1.938974  -1.032794  4.371288
H    -1.135235  -0.745800  2.818311
H    -2.931974  1.270409  4.291366
H    -3.437934  0.175500  3.004997
H    -1.673796  1.318800  1.479433
H    -1.680986  2.642542  2.670291
H    -3.295315  3.160136  0.956578
H    -4.175717  2.796279  2.441075
H    -5.321721  1.464356  1.023361
H    -4.045698  1.107894  0.064594
N    0.668960  -1.966229  4.628823
C    1.483941  -3.088660  5.095319
H    0.032053  -2.146703  3.854209
H    0.829622  -3.938428  5.322266
H    2.030165  -2.793894  5.993303
H    2.190229  -3.382073  4.308903
Ca    2.080867  1.355725  7.058233
