34
Energy: -36755.0027775 eV PBE+vdW (tier 2 basis)
C    0.230118  0.408424  1.212288
C    -0.932683  0.005754  2.048731
O    -0.781194  -0.492707  3.202198
H    0.815984  -0.503593  1.015844
H    0.891689  1.083605  1.769662
H    -0.047626  0.851013  0.251713
N    -2.206642  0.162887  1.590950
C    -2.725803  1.345631  0.903869
C    -2.300097  2.595790  1.709263
O    -2.015950  2.468718  2.944907
H    -2.903230  -0.362675  2.118250
H    -2.328329  1.396164  -0.118381
C    -4.272717  1.264160  0.844469
C    -4.981106  1.202683  2.216100
C    -5.268760  -0.202098  2.797279
C    -5.348638  -0.243352  4.323765
N    -3.991138  -0.389081  4.980661
H    -4.540914  0.396373  0.224031
H    -4.623180  2.143584  0.289664
H    -5.945004  1.719161  2.121400
H    -4.425448  1.813001  2.947722
H    -4.556479  -0.975042  2.454880
H    -6.228781  -0.556536  2.397819
H    -5.986705  -1.076452  4.647051
H    -5.803084  0.678895  4.709370
H    -3.704064  -1.365936  4.831834
H    -4.164948  -0.355685  5.993678
N    -2.269178  3.787820  1.137567
C    -2.568402  4.164641  -0.246259
H    -2.030050  4.551628  1.771695
H    -2.487673  3.304946  -0.916635
H    -1.845827  4.922920  -0.565932
H    -3.579023  4.586773  -0.317794
Ca    -1.935534  0.903149  4.494985
