34
Energy: -36753.5529729 eV PBE+vdW (tier 2 basis)
C    -0.194652  0.280905  -0.473467
C    -0.157734  0.008261  0.988206
O    0.940367  -0.284131  1.570093
H    0.531497  1.055864  -0.752156
H    -1.190262  0.533849  -0.847254
H    0.137615  -0.641575  -0.977597
N    -1.286542  0.062003  1.731925
C    -2.228214  1.194185  1.703813
C    -1.390500  2.474833  1.899366
O    -0.280109  2.399987  2.547159
H    -1.194993  -0.359854  2.658293
H    -2.741524  1.228220  0.734299
C    -3.272964  0.934933  2.821400
C    -4.408810  1.942572  3.017746
C    -4.117597  3.138568  3.931040
C    -5.414846  3.864180  4.337647
N    -6.308888  2.949050  5.043601
H    -2.728289  0.812964  3.774504
H    -3.694398  -0.050529  2.570801
H    -5.238686  1.401036  3.497710
H    -4.810816  2.269925  2.045772
H    -3.430795  3.872591  3.480440
H    -3.619398  2.776341  4.846861
H    -5.930865  4.214004  3.430330
H    -5.150487  4.769210  4.912559
H    -6.103884  2.916847  6.041648
H    -7.283740  3.226838  4.950344
N    -1.762056  3.634763  1.394035
C    -2.942680  3.985972  0.601382
H    -1.142882  4.411944  1.631127
H    -3.675307  4.507191  1.229953
H    -3.409749  3.096049  0.174194
H    -2.628437  4.651212  -0.210208
Ca    1.473136  1.252565  2.988040
