34
Energy: -36754.45647 eV PBE+vdW (tier 2 basis)
C    0.094390  0.999003  0.503740
C    -0.300211  -0.033013  1.503287
O    0.576078  -0.804117  2.018196
H    0.806998  1.689707  0.977673
H    -0.753453  1.572016  0.114918
H    0.624047  0.519902  -0.330368
N    -1.583643  -0.136364  1.867947
C    -2.073949  -0.997299  2.956721
C    -2.169080  -2.460378  2.473678
O    -1.119135  -3.186331  2.516865
H    -2.248148  0.505695  1.440154
H    -1.283680  -1.005751  3.720906
C    -3.329512  -0.413977  3.616076
C    -3.757739  -1.176622  4.885438
C    -2.614777  -1.418495  5.875877
C    -3.035971  -2.119180  7.171963
N    -1.842950  -2.485332  7.939545
H    -4.165024  -0.349483  2.897187
H    -3.087517  0.626786  3.881396
H    -4.220411  -2.140401  4.618823
H    -4.554804  -0.591492  5.365160
H    -2.123343  -0.461398  6.123855
H    -1.835311  -2.065567  5.434431
H    -3.574869  -3.045211  6.921725
H    -3.750436  -1.478635  7.721251
H    -1.488610  -1.686290  8.467127
H    -2.065256  -3.201297  8.630689
N    -3.317746  -2.919504  2.022494
C    -3.570025  -4.271430  1.521144
H    -4.110949  -2.281411  2.050649
H    -4.397983  -4.716649  2.085088
H    -2.670875  -4.877759  1.646540
H    -3.844111  -4.225967  0.459984
Ca    0.960076  -2.760048  2.735498
