34
Energy: -36755.7301626 eV PBE+vdW (tier 2 basis)
C    -0.347563  0.443828  -0.284167
C    -0.676959  0.011015  1.110144
O    -0.120623  -1.013226  1.596885
H    0.735790  0.604533  -0.363593
H    -0.870174  1.351426  -0.602672
H    -0.599023  -0.374979  -0.972481
N    -1.569622  0.751517  1.791207
C    -2.185631  0.595724  3.135739
C    -1.153732  0.630093  4.275807
O    -0.276701  -0.270813  4.420464
H    -1.932865  1.544951  1.270684
H    -2.773876  1.518138  3.230960
C    -3.236833  -0.540149  3.235701
C    -2.807657  -2.019776  3.276794
C    -2.649674  -2.630055  4.680709
C    -2.014556  -4.021164  4.668806
N    -0.505402  -3.959460  4.572683
H    -3.902496  -0.383359  2.375281
H    -3.853110  -0.321576  4.121619
H    -1.915607  -2.171824  2.644537
H    -3.580406  -2.601047  2.753509
H    -3.647853  -2.713144  5.133800
H    -2.080438  -1.972645  5.358424
H    -2.375036  -4.597567  3.806543
H    -2.297252  -4.581711  5.569059
H    -0.180966  -4.876285  4.245276
H    -0.151959  -3.917516  5.536230
N    -1.259685  1.637406  5.133394
C    -0.420881  1.834598  6.315352
H    -1.970418  2.341865  4.953740
H    -1.058810  2.069753  7.174446
H    0.274761  2.666571  6.147471
H    0.144117  0.921152  6.513151
Ca    0.492141  -2.024274  3.400498
