34
Energy: -36754.1656148 eV PBE+vdW (tier 2 basis)
C    -0.032554  -0.356041  -0.154569
C    -0.106566  -0.386350  1.333204
O    0.951166  -0.533786  2.031017
H    0.600341  0.491177  -0.456593
H    -1.011257  -0.259190  -0.635278
H    0.462961  -1.266955  -0.516206
N    -1.293609  -0.245979  1.934206
C    -1.492218  -0.087571  3.386863
C    -1.266056  -1.439990  4.104188
O    -0.085872  -1.666752  4.554168
H    -2.107001  -0.099626  1.339391
H    -0.659805  0.534157  3.752324
C    -2.787669  0.674774  3.684380
C    -3.004248  0.929058  5.183411
C    -4.310369  1.675683  5.483663
C    -5.583719  0.849952  5.261542
N    -6.757041  1.662457  5.538608
H    -3.652326  0.160548  3.244245
H    -2.709835  1.642137  3.163969
H    -2.155765  1.516000  5.568999
H    -2.993914  -0.023379  5.741855
H    -4.374671  2.594447  4.881321
H    -4.282430  2.004150  6.533314
H    -5.510351  -0.083854  5.866127
H    -5.654703  0.535228  4.206534
H    -7.618811  1.200099  5.254289
H    -6.842937  1.880420  6.531342
N    -2.191099  -2.369299  4.254961
C    -3.593160  -2.407241  3.823813
H    -1.864285  -3.184868  4.775487
H    -3.912450  -3.453356  3.833876
H    -3.702218  -2.026830  2.804306
H    -4.231749  -1.836961  4.510821
Ca    1.859045  -1.246698  3.804678
