34
Energy: -36753.7529145 eV PBE+vdW (tier 2 basis)
C    0.107838  0.392990  -0.057532
C    -0.107135  0.047593  1.374020
O    0.880075  -0.248958  2.127598
H    0.828165  1.215022  -0.163674
H    -0.815278  0.621165  -0.596534
H    0.577127  -0.484918  -0.530254
N    -1.349376  0.043181  1.903905
C    -2.311234  1.143522  1.733748
C    -1.580421  2.445459  2.110809
O    -0.581592  2.386128  2.925595
H    -1.421437  -0.421090  2.811227
H    -2.665118  1.179326  0.695231
C    -3.503446  0.857409  2.678829
C    -4.732404  1.761193  2.539127
C    -5.939579  1.242304  3.342911
C    -6.608883  -0.012893  2.772712
N    -5.738738  -1.203102  2.862274
H    -3.136868  0.890318  3.720269
H    -3.833450  -0.181681  2.485875
H    -5.025504  1.825799  1.478155
H    -4.502660  2.785208  2.872296
H    -6.693162  2.041684  3.379162
H    -5.644532  1.065066  4.390832
H    -6.839488  0.151870  1.709405
H    -7.577949  -0.152879  3.280992
H    -5.749152  -1.571195  3.815648
H    -6.108484  -1.951684  2.275129
N    -1.962136  3.624050  1.655296
C    -2.979337  3.969050  0.658040
H    -1.445132  4.412227  2.048835
H    -3.817318  4.486367  1.139068
H    -3.355564  3.075957  0.155882
H    -2.526030  4.635799  -0.084605
Ca    1.096325  1.276439  3.641076
