34
Energy: -36754.5439674 eV PBE+vdW (tier 2 basis)
C    -0.282751  0.069812  0.747605
C    -0.998848  0.364300  2.035349
O    -0.434966  1.156592  2.876337
H    -0.882310  0.367404  -0.122408
H    -0.080468  -1.005789  0.640806
H    0.667165  0.610809  0.727893
N    -2.170295  -0.168662  2.455729
C    -2.649367  -1.476026  1.962061
C    -1.633744  -2.531039  2.478401
O    -0.978805  -2.256256  3.534084
H    -3.302947  1.168388  2.261657
H    -3.546015  -1.687738  2.574034
C    -3.120316  -1.599289  0.501967
C    -4.345185  -0.739345  0.132494
C    -4.128863  0.753553  -0.229480
C    -4.720154  1.774591  0.738476
N    -3.815480  2.053118  1.928266
H    -3.442695  -2.641907  0.351469
H    -2.301734  -1.430305  -0.209717
H    -5.099269  -0.825831  0.932048
H    -4.807923  -1.219373  -0.738562
H    -4.623049  0.950079  -1.190188
H    -3.067844  0.980496  -0.417376
H    -5.677551  1.428033  1.146363
H    -4.893774  2.740771  0.250727
H    -3.080391  2.722901  1.668806
H    -4.340672  2.473165  2.703836
N    -1.501901  -3.692032  1.858977
C    -0.657934  -4.801154  2.309281
H    -2.049039  -3.839321  1.015294
H    -1.286212  -5.659177  2.577669
H    -0.081898  -4.481778  3.180103
H    0.022529  -5.093748  1.501473
Ca    -0.929645  -0.269452  4.485469
