34
Energy: -36755.3192703 eV PBE+vdW (tier 2 basis)
C    -0.275953  -1.424870  -0.014311
C    -0.728032  -0.579352  1.126829
O    -0.205309  0.552752  1.351958
H    0.791981  -1.652187  0.109296
H    -0.370733  -0.849187  -0.945070
H    -0.834928  -2.361387  -0.109300
N    -1.718148  -1.031868  1.924845
C    -2.232047  -0.211862  3.019874
C    -1.303963  -0.276386  4.251990
O    -0.526192  0.715863  4.430857
H    -2.139959  -1.933249  1.717058
H    -2.066597  0.810055  2.662251
C    -3.759343  -0.269680  3.256933
C    -4.372568  1.092798  2.881848
C    -3.834931  2.258729  3.755330
C    -3.376715  3.517450  3.020700
N    -2.153880  3.318036  2.147531
H    -3.981983  -0.501697  4.306876
H    -4.211975  -1.072371  2.657405
H    -5.464444  1.034106  2.967657
H    -4.178402  1.274372  1.811054
H    -3.015938  1.916184  4.409025
H    -4.622362  2.575166  4.452891
H    -3.114999  4.288657  3.756018
H    -4.193862  3.922271  2.405777
H    -1.926100  4.247440  1.772348
H    -2.455341  2.806287  1.308745
N    -1.285485  -1.302800  5.085005
C    -2.061828  -2.541061  5.051911
H    -0.617592  -1.207540  5.852327
H    -2.695065  -2.608695  5.945105
H    -1.378286  -3.398425  5.036663
H    -2.699386  -2.581272  4.166169
Ca    -0.052160  2.161702  2.841312
