34
Energy: -36753.1584274 eV PBE+vdW (tier 2 basis)
C    -0.179453  1.120627  0.496382
C    -0.551336  -0.027527  1.384815
O    0.494272  -0.820380  1.735269
H    -1.046013  1.750819  0.278117
H    0.233285  0.752582  -0.453739
H    0.587449  1.744630  0.976250
N    -1.759343  -0.218525  1.757695
C    -2.161604  -1.321379  2.615145
C    -2.884191  -2.359953  1.721036
O    -3.247118  -2.067464  0.576114
H    -3.179658  0.416537  1.029733
H    -1.279437  -1.818426  3.050165
C    -3.047480  -0.807798  3.810256
C    -3.678985  0.592384  3.684040
C    -5.054004  0.719011  3.003130
C    -5.221387  0.134531  1.606658
N    -4.168178  0.625371  0.641777
H    -2.401719  -0.793847  4.697562
H    -3.830126  -1.548677  4.026914
H    -2.956513  1.277974  3.217628
H    -3.811415  0.975819  4.704873
H    -5.332309  1.784291  2.991433
H    -5.817850  0.227411  3.624598
H    -6.201356  0.395101  1.189048
H    -5.133574  -0.956131  1.595740
H    -4.233515  0.105228  -0.240728
H    -4.271680  1.627963  0.451211
N    -3.095533  -3.597032  2.234692
C    -2.815141  -4.116756  3.567099
H    -3.615489  -4.203231  1.603125
H    -1.958704  -3.603421  4.018292
H    -2.570715  -5.182264  3.491967
H    -3.674278  -4.008496  4.244493
Ca    2.205274  -1.729281  1.895070
