34
Energy: -36754.4202487 eV PBE+vdW (tier 2 basis)
C    -1.186431  -0.608298  0.126401
C    -0.830805  -0.531310  1.572169
O    0.248104  -1.061873  1.989979
H    -0.311254  -0.372653  -0.490170
H    -2.022945  0.040762  -0.152670
H    -1.466103  -1.652170  -0.089325
N    -1.680429  0.081334  2.406140
C    -1.736382  0.035326  3.885788
C    -0.640339  0.877994  4.543506
O    0.587093  0.539018  4.435690
H    -2.513512  0.459280  1.963312
H    -2.705598  0.487740  4.123998
C    -1.750342  -1.396795  4.470662
C    -2.822505  -2.287673  3.845466
C    -2.790501  -3.734393  4.346860
C    -3.577941  -4.661998  3.409277
N    -2.966312  -4.682226  2.069401
H    -1.897287  -1.300948  5.558095
H    -0.765233  -1.879542  4.343917
H    -2.688136  -2.333357  2.753514
H    -3.817330  -1.850934  4.032047
H    -3.189351  -3.808550  5.369007
H    -1.745938  -4.090101  4.392416
H    -4.607727  -4.288505  3.311376
H    -3.652301  -5.659501  3.872037
H    -2.236367  -5.394501  2.026550
H    -3.656298  -4.954378  1.369832
N    -0.961006  1.926339  5.281339
C    -2.289040  2.493986  5.553617
H    -0.166926  2.382937  5.732199
H    -2.145051  3.432090  6.096482
H    -2.886025  1.820753  6.180978
H    -2.821017  2.719508  4.622545
Ca    1.775095  -0.896401  3.421229
