34
Energy: -36754.3690167 eV PBE+vdW (tier 2 basis)
C    -0.220799  0.664107  -0.582629
C    -0.552515  1.511052  0.599076
O    -0.024119  2.663940  0.733765
H    -0.545423  1.194122  -1.490188
H    -0.695911  -0.321841  -0.557509
H    0.867607  0.542947  -0.658317
N    -1.419270  1.048847  1.504814
C    -2.011953  1.806057  2.624552
C    -0.997787  1.927923  3.783302
O    -0.043416  2.770924  3.681346
H    -1.812487  0.125403  1.334262
H    -2.164918  2.838509  2.269242
C    -3.377821  1.211292  2.991784
C    -4.435784  1.353544  1.887422
C    -5.797834  0.808213  2.327193
C    -6.885468  0.969532  1.257289
N    -8.165160  0.503382  1.771865
H    -3.740088  1.727943  3.893507
H    -3.268069  0.143659  3.258110
H    -4.111150  0.836006  0.969090
H    -4.531851  2.419428  1.620919
H    -6.136762  1.321512  3.239997
H    -5.702736  -0.259146  2.588823
H    -6.558292  0.464802  0.324437
H    -6.991737  2.037018  1.011539
H    -8.948808  0.855386  1.225747
H    -8.232265  -0.513569  1.788248
N    -1.148057  1.173038  4.851824
C    -0.291001  1.174933  6.038436
H    -1.949608  0.544438  4.861242
H    -0.911531  1.325303  6.929384
H    0.440389  1.981358  5.957603
H    0.225745  0.210733  6.121458
Ca    0.883878  3.935203  2.155364
