34
Energy: -36752.4441096 eV PBE+vdW (tier 2 basis)
C    0.023744  1.328806  0.300287
C    -0.090261  0.803996  1.691679
O    0.993149  0.792032  2.431649
H    -0.361431  2.358680  0.264549
H    -0.534420  0.707172  -0.403854
H    1.076022  1.344995  0.001436
N    -1.208231  0.423248  2.279015
C    -2.526823  0.071014  1.706159
C    -2.328093  -1.274025  0.938626
O    -1.315640  -1.410671  0.248636
H    -1.085105  0.144752  3.251752
H    -3.169324  -0.063107  2.584940
C    -3.139955  1.171695  0.811515
C    -4.645230  1.013166  0.548148
C    -5.551347  1.254917  1.757597
C    -7.043531  1.037042  1.445396
N    -7.333503  -0.339512  1.039862
H    -2.621561  1.186348  -0.154618
H    -2.955775  2.141550  1.299894
H    -4.842580  0.021973  0.113005
H    -4.905648  1.735521  -0.240326
H    -5.422189  2.287531  2.118456
H    -5.286077  0.592678  2.597507
H    -7.355727  1.752054  0.665609
H    -7.626286  1.275198  2.344040
H    -8.134346  -0.742241  1.519588
H    -7.461747  -0.455938  0.037557
N    -3.281867  -2.219934  1.048523
C    -4.462687  -2.281480  1.908963
H    -3.106982  -3.022789  0.447078
H    -4.733625  -3.335174  2.031050
H    -5.328821  -1.746101  1.490316
H    -4.245999  -1.885051  2.908621
Ca    2.892300  0.712649  3.074125
