34
Energy: -36752.8233404 eV PBE+vdW (tier 2 basis)
C    0.794659  -0.367222  0.375308
C    0.144328  -0.781119  1.641747
O    0.476710  -1.947721  2.181134
H    0.215817  0.400774  -0.175228
H    0.959721  -1.241115  -0.266004
H    1.783495  0.059001  0.610279
N    -0.723401  -0.060402  2.283821
C    -1.328213  1.242371  1.969500
C    -1.831406  1.659597  3.386387
O    -2.051413  0.732821  4.189136
H    -1.143892  -0.346507  3.209492
H    -0.575322  1.920033  1.549165
C    -2.506837  1.023780  0.984957
C    -3.224933  2.278431  0.474087
C    -2.446658  3.210128  -0.467693
C    -1.901984  2.566008  -1.747327
N    -0.569835  1.945122  -1.534555
H    -3.235230  0.370336  1.488355
H    -2.105309  0.462664  0.129430
H    -3.628660  2.854517  1.319486
H    -4.114291  1.917615  -0.065224
H    -1.613297  3.710868  0.052204
H    -3.130470  4.022170  -0.752977
H    -1.872021  3.324363  -2.546160
H    -2.588169  1.778950  -2.094438
H    -0.294654  1.465502  -2.395433
H    0.120602  2.693475  -1.427933
N    -2.036395  2.943484  3.699644
C    -1.706140  4.157385  2.961959
H    -2.427592  3.066122  4.632697
H    -0.994769  3.942213  2.160332
H    -1.237843  4.873219  3.647031
H    -2.600659  4.620600  2.526625
Ca    0.973766  -3.671933  2.992443
