34
Energy: -36752.7829808 eV PBE+vdW (tier 2 basis)
C    -0.278965  0.767129  -0.611878
C    -0.176073  0.787617  0.873588
O    1.002437  1.024753  1.410045
H    0.261573  1.623713  -1.033125
H    -1.314165  0.784137  -0.963603
H    0.201379  -0.145411  -0.995327
N    -1.177134  0.580130  1.675225
C    -2.598751  0.321049  1.414901
C    -3.205896  0.601161  2.824907
O    -2.413677  0.705882  3.779228
H    -1.093957  0.644305  2.730286
H    -2.977423  1.050491  0.684475
C    -2.866258  -1.119599  0.923139
C    -2.424751  -2.225177  1.884299
C    -2.788951  -3.622125  1.370231
C    -2.230039  -4.748301  2.247109
N    -0.769128  -4.799770  2.190761
H    -2.375162  -1.247391  -0.054189
H    -3.943334  -1.201505  0.718732
H    -2.888781  -2.072401  2.871941
H    -1.335998  -2.184430  2.046152
H    -2.419861  -3.753391  0.338873
H    -3.882940  -3.730287  1.316739
H    -2.695753  -5.701657  1.936917
H    -2.522905  -4.585641  3.294562
H    -0.431659  -5.192531  1.312064
H    -0.370943  -5.344109  2.953943
N    -4.531422  0.701255  2.964583
C    -5.577746  0.649125  1.947178
H    -4.828686  0.839654  3.928842
H    -6.381744  1.333859  2.236767
H    -5.998144  -0.360845  1.850181
H    -5.198971  0.977665  0.973784
Ca    2.753296  1.437350  2.267650
