34
Energy: -36753.7947109 eV PBE+vdW (tier 2 basis)
C    -1.152714  -0.514698  -0.660481
C    -0.645162  -0.094522  0.660196
O    0.550385  0.371304  0.771942
H    -2.081580  0.055975  -0.951458
H    -1.465488  -1.566510  -0.672780
H    -0.374386  -0.359651  -1.412872
N    -1.390551  -0.118437  1.800111
C    -2.176303  -1.244230  2.321418
C    -1.168914  -2.326203  2.790194
O    0.054228  -2.274857  2.404298
H    -0.958898  0.439514  2.537290
H    -2.681949  -0.850417  3.216893
C    -3.265941  -1.795226  1.374341
C    -4.192027  -0.687444  0.856144
C    -4.955305  -1.060643  -0.424228
C    -5.166579  0.163255  -1.325049
N    -3.879483  0.629445  -1.887325
H    -3.842341  -2.552469  1.921580
H    -2.799632  -2.336840  0.540686
H    -3.592045  0.208398  0.644262
H    -4.897107  -0.395842  1.648582
H    -5.925893  -1.515784  -0.185087
H    -4.396920  -1.820173  -0.996468
H    -5.604069  0.982640  -0.737712
H    -5.894682  -0.081882  -2.113269
H    -3.700962  0.162337  -2.778113
H    -3.921092  1.626461  -2.100217
N    -1.548959  -3.298221  3.599089
C    -2.853755  -3.536425  4.224457
H    -0.818005  -3.976117  3.818505
H    -3.426088  -2.608280  4.306557
H    -2.682246  -3.927895  5.232606
H    -3.427163  -4.275284  3.650793
Ca    1.737517  -1.136048  1.694508
