34
Energy: -36753.9462532 eV PBE+vdW (tier 2 basis)
C    -0.277804  -0.098157  0.350225
C    -0.262343  -0.166876  1.821142
O    0.832508  -0.015436  2.480072
H    0.731669  0.097774  -0.021648
H    -0.993921  0.702020  -0.015375
H    -0.656919  -1.026181  -0.101719
N    -1.387643  -0.382210  2.551855
C    -2.411715  -1.386842  2.250943
C    -1.708147  -2.777220  2.244835
O    -0.487449  -2.891685  2.608535
H    -1.259080  -0.191483  3.544376
H    -3.070582  -1.387852  3.134479
C    -3.298643  -1.090948  1.022290
C    -3.904801  0.318434  1.067936
C    -4.502457  0.783712  -0.267579
C    -3.508926  0.940724  -1.423867
N    -2.336793  1.760322  -1.050877
H    -4.116887  -1.828127  1.000098
H    -2.727728  -1.244997  0.098085
H    -3.133562  1.034501  1.383088
H    -4.685747  0.350986  1.842184
H    -4.998850  1.750001  -0.090045
H    -5.300906  0.099289  -0.591597
H    -4.054910  1.358151  -2.285501
H    -3.132624  -0.040880  -1.755256
H    -1.791759  1.980008  -1.887122
H    -2.640987  2.663946  -0.679107
N    -2.409174  -3.835028  1.891695
C    -1.909908  -5.214506  1.902407
H    -3.370596  -3.683138  1.596238
H    -2.727767  -5.878004  1.610898
H    -1.566245  -5.486169  2.907091
H    -1.084226  -5.326961  1.189943
Ca    1.372997  -1.953457  3.185577
