34
Energy: -36752.7551153 eV PBE+vdW (tier 2 basis)
C    0.542288  -0.326727  0.060475
C    0.229400  -0.115857  1.501066
O    1.219045  -0.185597  2.365980
H    1.362226  0.339726  -0.238384
H    -0.317437  -0.151318  -0.591208
H    0.888485  -1.359618  -0.088645
N    -0.963316  0.134720  1.954964
C    -2.255093  0.282000  1.268418
C    -3.056631  1.092661  2.329342
O    -2.693383  1.010891  3.513314
H    -1.152103  0.307423  2.974724
H    -2.125663  0.870252  0.348223
C    -2.852230  -1.111226  0.957871
C    -4.240511  -1.109801  0.285900
C    -5.463099  -1.217786  1.214028
C    -5.619664  -2.561932  1.937310
N    -4.670183  -2.720144  3.043237
H    -2.900720  -1.695336  1.889978
H    -2.133099  -1.617624  0.296694
H    -4.268949  -1.962885  -0.407982
H    -4.348339  -0.224942  -0.364668
H    -6.362389  -1.065253  0.600023
H    -5.473836  -0.409327  1.961666
H    -5.455090  -3.388014  1.229877
H    -6.667987  -2.651821  2.278076
H    -4.889202  -2.102182  3.825357
H    -4.650580  -3.676534  3.395220
N    -4.076298  1.834037  1.884530
C    -4.962845  2.599349  2.757710
H    -4.286311  1.817572  0.891633
H    -5.081972  3.615152  2.365015
H    -4.517476  2.641934  3.755032
H    -5.949665  2.122035  2.822575
Ca    2.748846  -0.257851  3.642539
