34
Energy: -36754.1793327 eV PBE+vdW (tier 2 basis)
C    1.379973  1.249547  1.280853
C    1.126965  0.086955  2.176962
O    2.116801  -0.541393  2.686423
H    2.190004  1.833522  1.742006
H    0.504817  1.887425  1.144436
H    1.762295  0.922191  0.302737
N    -0.121174  -0.296590  2.553184
C    -1.231236  -0.732590  1.685678
C    -0.973886  -2.218333  1.314795
O    0.208066  -2.725807  1.424318
H    -0.078680  -0.869618  3.398101
H    -2.124061  -0.724949  2.324596
C    -1.529517  0.122321  0.439613
C    -2.432796  1.331400  0.741651
C    -3.941722  1.074445  0.584642
C    -4.604688  -0.010054  1.442941
N    -4.413402  -1.400378  0.916800
H    -2.023969  -0.526702  -0.293965
H    -0.593644  0.423873  -0.044403
H    -2.166856  2.148347  0.056636
H    -2.220388  1.712912  1.753645
H    -4.167017  0.874792  -0.476783
H    -4.456378  2.018907  0.810583
H    -5.679313  0.214720  1.507572
H    -4.225410  0.017133  2.476347
H    -5.046015  -2.017976  1.434995
H    -4.770751  -1.423141  -0.043863
N    -2.026554  -2.872914  0.907564
C    -2.049071  -4.263010  0.467141
H    -2.957066  -2.304488  0.899470
H    -2.662705  -4.859072  1.154715
H    -1.036566  -4.672905  0.434562
H    -2.495108  -4.318673  -0.533426
Ca    2.183956  -2.639185  2.168960
