34
Energy: -36754.9059401 eV PBE+vdW (tier 2 basis)
C    0.190695  1.389511  -0.310127
C    0.174217  0.983821  1.127950
O    1.108838  1.372634  1.903274
H    -0.686415  1.051522  -0.871332
H    1.094537  0.969759  -0.775641
H    0.272918  2.481179  -0.388046
N    -0.830628  0.214598  1.557765
C    -1.007524  -0.516756  2.826814
C    -1.196000  0.328868  4.091071
O    -0.515789  1.393095  4.325249
H    -1.521090  -0.011500  0.847046
H    -1.964109  -1.033615  2.688843
C    0.061151  -1.613446  3.063742
C    -0.180966  -2.881419  2.232993
C    -1.554344  -3.560234  2.398814
C    -2.013339  -3.873217  3.833019
N    -2.907126  -2.816291  4.402677
H    0.045044  -1.867810  4.133359
H    1.063983  -1.212149  2.857934
H    0.605911  -3.599141  2.507497
H    -0.020025  -2.668388  1.164839
H    -1.507533  -4.503754  1.838745
H    -2.346546  -2.984990  1.888023
H    -1.149097  -3.975992  4.504859
H    -2.528552  -4.844247  3.841703
H    -3.781511  -2.816161  3.867981
H    -3.190841  -3.118771  5.339914
N    -2.042700  -0.180629  4.952005
C    -2.310186  0.369866  6.276476
H    -2.439132  -1.155153  4.713409
H    -3.363905  0.199359  6.521174
H    -2.105913  1.443875  6.291693
H    -1.689033  -0.128341  7.033901
Ca    1.265010  2.339914  3.769378
