34
Energy: -36753.7736615 eV PBE+vdW (tier 2 basis)
C    1.071579  2.781297  1.106346
C    0.787409  1.731408  2.123781
O    1.522937  1.616165  3.161871
H    0.835979  3.780820  1.502238
H    0.536823  2.627895  0.165023
H    2.154059  2.774593  0.915495
N    -0.257802  0.889019  1.977009
C    -1.604055  1.337077  1.615480
C    -2.083495  2.296545  2.736056
O    -1.417119  2.415477  3.826589
H    -0.244558  0.088128  2.611997
H    -1.560354  1.902816  0.673554
C    -2.513304  0.096939  1.423120
C    -3.942654  0.346489  0.936614
C    -4.078340  1.145477  -0.365129
C    -5.463094  0.944644  -1.012342
N    -5.664186  -0.468145  -1.325316
H    -2.537193  -0.469797  2.369198
H    -1.988885  -0.532469  0.688104
H    -4.563727  0.783299  1.736103
H    -4.389437  -0.640509  0.737577
H    -3.305540  0.819553  -1.082330
H    -3.914829  2.233960  -0.229316
H    -5.550276  1.619071  -1.881642
H    -6.242047  1.253752  -0.299042
H    -6.652839  -0.710182  -1.345700
H    -5.283003  -0.707669  -2.240100
N    -3.189882  2.978678  2.536737
C    -3.805933  3.891477  3.504585
H    -3.672427  2.824358  1.650541
H    -3.104207  4.688203  3.776889
H    -4.108115  3.345876  4.406496
H    -4.689523  4.337121  3.041128
Ca    0.404293  2.142121  4.923734
