34
Energy: -36754.973827 eV PBE+vdW (tier 2 basis)
C    0.196021  0.405838  1.767723
C    -1.002761  0.273567  2.641947
O    -0.902108  0.083769  3.888614
H    0.631977  1.410885  1.878073
H    -0.017950  0.221336  0.710561
H    0.956128  -0.302154  2.121873
N    -2.256916  0.389079  2.121509
C    -2.673301  1.353618  1.110282
C    -2.250284  2.762900  1.588467
O    -2.029630  2.954252  2.828422
H    -2.999799  0.049208  2.732172
H    -2.188996  1.119349  0.152269
C    -4.208882  1.284868  0.920806
C    -5.096547  1.832300  2.070012
C    -5.794126  0.824986  3.006393
C    -5.017424  0.102392  4.106752
N    -4.346669  1.033115  5.094113
H    -4.460710  0.239092  0.688315
H    -4.437615  1.844799  0.005687
H    -5.909773  2.394416  1.593095
H    -4.555385  2.594571  2.653380
H    -6.280818  0.045659  2.400376
H    -6.626535  1.356986  3.494620
H    -4.255756  -0.594129  3.717939
H    -5.725918  -0.541688  4.646033
H    -5.002389  1.806846  5.261664
H    -4.336337  0.537693  5.994364
N    -2.152701  3.764611  0.730998
C    -2.367604  3.770448  -0.718417
H    -1.922139  4.663027  1.157945
H    -2.231983  2.771366  -1.141584
H    -1.633379  4.441556  -1.175961
H    -3.375355  4.134101  -0.956482
Ca    -2.032792  1.815977  4.713018
