34
Energy: -36752.6166902 eV PBE+vdW (tier 2 basis)
C    0.987311  -0.308625  -0.124003
C    0.801455  -0.105484  1.350781
O    1.745269  -0.298710  2.144421
H    1.283292  -1.352482  -0.295304
H    1.821843  0.316171  -0.466308
H    0.096880  -0.088277  -0.722130
N    -0.430924  0.312048  1.758023
C    -1.017811  0.396855  3.106626
C    -0.195004  1.136888  4.156791
O    -0.862899  1.808159  5.064158
H    -1.109646  0.438991  1.014236
H    -1.904684  1.032522  2.973778
C    -1.539126  -0.954802  3.683089
C    -0.535982  -2.099532  3.901587
C    -0.384751  -3.063967  2.717804
C    0.504609  -4.270840  3.049282
N    -0.062678  -5.079593  4.115319
H    -2.346851  -1.286691  3.013095
H    -2.036387  -0.704557  4.634837
H    -0.880349  -2.693269  4.760482
H    0.452805  -1.711697  4.192646
H    0.041549  -2.564756  1.837216
H    -1.381405  -3.424542  2.413171
H    1.496550  -3.925045  3.374885
H    0.666432  -4.850975  2.120397
H    0.604257  -5.696012  4.573105
H    -0.889550  -5.608508  3.842877
N    1.098871  1.055974  4.187180
C    1.957251  1.697531  5.174107
H    1.516021  0.435498  3.374436
H    2.998500  1.520076  4.891378
H    1.790494  1.271980  6.173449
H    1.783728  2.781893  5.200464
Ca    -1.812962  2.851898  6.483894
