34
Energy: -36754.324414 eV PBE+vdW (tier 2 basis)
C    1.252840  2.529861  2.216279
C    0.083619  1.981811  2.961485
O    -0.827934  2.762998  3.394469
H    1.742490  3.308890  2.815090
H    0.883166  3.017138  1.302014
H    1.987931  1.767048  1.940240
N    -0.000899  0.663383  3.158104
C    -1.160885  -0.075054  3.695342
C    -1.223509  0.071407  5.230733
O    -1.665342  1.162644  5.728533
H    0.752684  0.093213  2.778942
H    -2.065599  0.433521  3.321710
C    -1.155351  -1.512000  3.158452
C    -1.368040  -1.589925  1.636559
C    -1.470302  -3.022355  1.097489
C    -0.178531  -3.843251  1.192812
N    -0.334285  -5.097560  0.473165
H    -1.967176  -2.064469  3.655862
H    -0.210522  -2.015235  3.431653
H    -0.552951  -1.066989  1.108178
H    -2.292830  -1.045481  1.386597
H    -1.759165  -2.978196  0.038452
H    -2.289015  -3.552126  1.612768
H    0.118186  -3.968086  2.259047
H    0.637178  -3.282098  0.708167
H    0.552608  -5.582071  0.348308
H    -0.972872  -5.738680  0.942924
N    -0.835071  -0.932616  5.989122
C    -0.844473  -0.965577  7.452362
H    -0.519751  -1.773860  5.508745
H    0.183813  -1.049832  7.825033
H    -1.418839  -1.836417  7.789267
H    -1.303250  -0.051429  7.833887
Ca    -2.051921  3.149392  5.067210
