34
Energy: -36755.0526389 eV PBE+vdW (tier 2 basis)
C    1.256846  -0.213986  1.314191
C    0.097940  0.614480  1.785680
O    0.309120  1.331395  2.856954
H    1.618946  -0.849725  2.132240
H    2.088198  0.449199  1.037639
H    1.008617  -0.854704  0.463772
N    -1.033215  0.597129  1.120988
C    -2.130099  1.492637  1.520275
C    -2.854579  0.950607  2.766695
O    -2.406305  1.219445  3.930703
H    -1.128030  -0.038393  -0.253853
H    -1.711937  2.461817  1.849202
C    -3.057728  1.774564  0.327646
C    -2.376756  2.554122  -0.828241
C    -2.182639  1.803371  -2.156531
C    -1.012873  0.830342  -2.252190
N    -1.174012  -0.369830  -1.355218
H    -3.482777  0.832057  -0.059608
H    -3.912492  2.357766  0.696115
H    -1.406861  2.952421  -0.490929
H    -2.992796  3.434999  -1.046268
H    -2.009189  2.547483  -2.947201
H    -3.117557  1.294938  -2.446878
H    -0.071008  1.310786  -1.954605
H    -0.898036  0.471426  -3.282280
H    -2.061808  -0.847389  -1.545114
H    -0.431040  -1.053911  -1.532811
N    -3.935941  0.204329  2.620631
C    -4.709308  -0.385053  3.714470
H    -4.260212  0.035870  1.672730
H    -5.761238  -0.432514  3.417211
H    -4.610128  0.237248  4.607762
H    -4.352121  -1.399202  3.935811
Ca    -0.499983  1.858275  4.670013
