34
Energy: -36752.4981164 eV PBE+vdW (tier 2 basis)
C    0.278894  -0.941130  0.348417
C    0.020792  0.179102  1.300963
O    0.884163  1.163862  1.366011
H    1.241700  -1.414860  0.585672
H    0.340495  -0.549308  -0.676547
H    -0.504807  -1.704216  0.385185
N    -1.043666  0.162121  2.049681
C    -1.542557  1.121551  3.045555
C    -2.478063  0.205282  3.888476
O    -3.014379  -0.739254  3.292040
H    -1.730916  -0.623911  2.002127
H    -0.700491  1.508075  3.634429
C    -2.285955  2.261996  2.301417
C    -3.066969  3.277924  3.153725
C    -4.490995  2.880203  3.585135
C    -5.506030  2.705910  2.448886
N    -5.269206  1.499229  1.658387
H    -2.980290  1.797530  1.584037
H    -1.521319  2.796381  1.714147
H    -3.146242  4.197119  2.553293
H    -2.482609  3.568124  4.040915
H    -4.869415  3.673878  4.245264
H    -4.486957  1.966658  4.198352
H    -5.463365  3.570023  1.768681
H    -6.520191  2.715540  2.892631
H    -5.373255  0.639759  2.198835
H    -5.867396  1.443851  0.835382
N    -2.655316  0.431453  5.199849
C    -2.129034  1.483850  6.059292
H    -3.294913  -0.234588  5.631535
H    -2.881373  2.261775  6.247605
H    -1.247635  1.951763  5.611009
H    -1.829018  1.047194  7.018583
Ca    2.408753  2.429750  1.065270
