34
Energy: -36755.4523209 eV PBE+vdW (tier 2 basis)
C    -0.961174  1.688931  2.080358
C    -1.372511  0.257313  2.138587
O    -0.663732  -0.648297  1.606655
H    0.041582  1.788468  2.518081
H    -1.651315  2.361516  2.599692
H    -0.878580  1.996371  1.028827
N    -2.511591  -0.070245  2.776882
C    -2.957443  -1.455612  2.940812
C    -3.689782  -1.955790  1.680207
O    -2.988846  -2.548128  0.801763
H    -3.057049  0.674142  3.204936
H    -2.036515  -2.047238  2.942327
C    -3.605413  -1.722785  4.301978
C    -2.549137  -1.860112  5.412266
C    -1.628756  -3.100060  5.356116
C    -0.425795  -3.121855  4.385148
N    -0.647021  -3.898526  3.090445
H    -4.188513  -2.653948  4.235098
H    -4.324541  -0.928482  4.559812
H    -3.086091  -1.898309  6.369486
H    -1.933484  -0.947460  5.463966
H    -2.231242  -4.014917  5.218737
H    -1.203400  -3.205496  6.363249
H    0.427154  -3.583650  4.895381
H    -0.113070  -2.099932  4.125924
H    -1.477224  -4.486918  3.227071
H    0.110927  -4.587914  3.033473
N    -4.989372  -1.755347  1.548711
C    -5.798652  -2.156781  0.395274
H    -5.475556  -1.299817  2.317904
H    -6.582236  -2.851296  0.720384
H    -5.155188  -2.644695  -0.339834
H    -6.266190  -1.271173  -0.051140
Ca    -0.790244  -2.700959  0.903425
