34
Energy: -36755.3879702 eV PBE+vdW (tier 2 basis)
C    -0.417755  1.667311  0.286019
C    -1.448728  0.743842  0.838218
O    -2.218418  1.105832  1.777582
H    -0.911842  2.584127  -0.063762
H    0.160100  1.231529  -0.535362
H    0.267027  1.964799  1.092074
N    -1.564836  -0.496466  0.319137
C    -2.622165  -1.397612  0.773613
C    -2.239445  -2.084273  2.106253
O    -2.760547  -1.608405  3.165739
H    -0.969986  -0.756200  -0.463366
H    -3.423668  -0.717530  1.076722
C    -3.272630  -2.280554  -0.297737
C    -4.651107  -2.775890  0.187997
C    -5.837491  -1.800209  0.022314
C    -5.808865  -0.421565  0.693673
N    -5.702563  -0.453956  2.209450
H    -2.638431  -3.132203  -0.570421
H    -3.389849  -1.674301  -1.209186
H    -4.572257  -3.127300  1.231863
H    -4.910611  -3.677115  -0.382475
H    -6.749327  -2.323835  0.349211
H    -5.984304  -1.610829  -1.052252
H    -6.733710  0.105130  0.427863
H    -4.992600  0.201588  0.297184
H    -5.793930  -1.431665  2.508406
H    -6.550538  -0.013197  2.580057
N    -1.398957  -3.103425  2.184910
C    -0.651008  -3.794976  1.133650
H    -1.257032  -3.445186  3.136837
H    -1.176585  -4.703384  0.812582
H    0.325594  -4.080302  1.538655
H    -0.482423  -3.143813  0.272683
Ca    -3.640287  0.396874  3.292417
