34
Energy: -36754.3733493 eV PBE+vdW (tier 2 basis)
C    -0.313120  0.787464  -0.604538
C    -0.640099  1.613937  0.592797
O    -0.122898  2.770871  0.737691
H    -0.649856  1.328412  -1.501129
H    -0.780358  -0.202454  -0.589803
H    0.775503  0.675803  -0.691785
N    -1.490136  1.129271  1.502512
C    -2.074457  1.863086  2.642219
C    -1.043664  1.976924  3.786580
O    -0.105290  2.838332  3.687498
H    -1.874000  0.203085  1.325026
H    -2.243935  2.899043  2.305175
C    -3.427099  1.244930  3.020355
C    -4.504916  1.395914  1.936794
C    -5.830506  0.752638  2.354929
C    -6.927065  0.886320  1.290589
N    -8.125560  0.177551  1.716873
H    -3.779463  1.735079  3.940535
H    -3.298957  0.172781  3.259175
H    -4.166539  0.941708  0.990177
H    -4.654105  2.467845  1.725814
H    -6.180306  1.209738  3.295550
H    -5.687465  -0.318547  2.565751
H    -6.579321  0.422329  0.354780
H    -7.087913  1.960965  1.066153
H    -8.642536  0.684981  2.434158
H    -8.763554  0.005592  0.942351
N    -1.162207  1.195093  4.839823
C    -0.283507  1.183344  6.010378
H    -1.952854  0.552770  4.848648
H    0.237054  0.219522  6.070245
H    -0.887399  1.319597  6.915038
H    0.444054  1.992959  5.927135
Ca    0.787466  4.033187  2.165041
