34
Energy: -36752.7075361 eV PBE+vdW (tier 2 basis)
C    0.325314  -0.031630  0.738614
C    -0.208083  0.364342  2.071857
O    0.649993  0.566915  3.046413
H    1.057706  0.714307  0.401275
H    -0.455196  -0.133887  -0.019543
H    0.855148  -0.990367  0.829612
N    -1.473793  0.523895  2.328156
C    -2.665204  0.395451  1.474972
C    -3.690190  1.244996  2.288872
O    -3.478970  1.343213  3.510875
H    -1.828505  0.819460  3.274605
H    -2.462705  0.819958  0.483308
C    -3.089087  -1.091466  1.377738
C    -4.263227  -1.372637  0.435479
C    -4.603999  -2.867746  0.326321
C    -5.297071  -3.457272  1.561846
N    -6.551982  -2.775798  1.843600
H    -3.316578  -1.437742  2.397241
H    -2.209822  -1.663692  1.039750
H    -4.027185  -0.988664  -0.568701
H    -5.163553  -0.848374  0.784869
H    -3.699411  -3.457564  0.111878
H    -5.262467  -3.007424  -0.544724
H    -4.658993  -3.366820  2.454051
H    -5.430581  -4.543610  1.394872
H    -7.259635  -2.914193  1.122901
H    -6.949480  -3.005501  2.751752
N    -4.738547  1.817101  1.686271
C    -5.083375  1.913498  0.271742
H    -5.355562  2.298298  2.339470
H    -5.290578  2.960785  0.021935
H    -5.971580  1.312287  0.040670
H    -4.258531  1.569634  -0.357572
Ca    1.959510  0.932269  4.512724
