34
Energy: -36754.3359348 eV PBE+vdW (tier 2 basis)
C    -0.301486  -1.093721  0.282870
C    -0.465242  -0.387011  1.584569
O    0.342800  0.541488  1.921508
H    0.710641  -1.514691  0.217615
H    -0.392468  -0.357318  -0.528764
H    -1.036703  -1.889590  0.126825
N    -1.473601  -0.727552  2.393150
C    -1.855792  -0.008004  3.621942
C    -0.853661  -0.310929  4.757846
O    0.147721  0.483392  4.875890
H    -2.112667  -1.449817  2.067064
H    -1.691410  1.062765  3.420263
C    -3.350289  -0.160823  3.920839
C    -4.207685  0.653809  2.943619
C    -5.704933  0.633289  3.286648
C    -6.035142  1.058948  4.723711
N    -5.292124  2.269926  5.108642
H    -3.523185  0.223576  4.936800
H    -3.652291  -1.218699  3.914811
H    -4.073610  0.292902  1.911302
H    -3.851933  1.695148  2.969131
H    -6.127375  -0.367357  3.108649
H    -6.215948  1.302429  2.577992
H    -5.752900  0.260411  5.428400
H    -7.131036  1.157139  4.809693
H    -5.486410  2.498968  6.084137
H    -5.629751  3.071585  4.571411
N    -0.962420  -1.319914  5.601499
C    -1.952454  -2.399785  5.681528
H    -0.229228  -1.335796  6.312231
H    -2.223628  -2.759455  4.685402
H    -2.849254  -2.070889  6.219708
H    -1.495031  -3.227121  6.232059
Ca    1.329007  1.570363  3.483751
