34
Energy: -36754.6564702 eV PBE+vdW (tier 2 basis)
C    0.945199  0.741360  1.022834
C    -0.291114  1.324162  1.623599
O    -0.191605  1.963995  2.734831
H    1.616254  1.554362  0.709986
H    0.734979  0.088834  0.172569
H    1.479731  0.170027  1.792673
N    -1.459723  1.173619  1.008135
C    -2.691364  1.798773  1.539320
C    -2.988432  1.287143  2.967583
O    -2.776365  2.041159  3.977155
H    -1.383902  0.922892  -0.046233
H    -2.486570  2.873938  1.663768
C    -3.943770  1.644134  0.628562
C    -3.709555  1.493470  -0.875741
C    -2.832742  2.558344  -1.563550
C    -1.835106  1.900967  -2.516498
N    -0.944534  0.957401  -1.767268
H    -4.574259  2.520923  0.835442
H    -4.538984  0.779637  0.953492
H    -4.699703  1.464263  -1.349753
H    -3.282610  0.494814  -1.055459
H    -2.276242  3.164220  -0.829550
H    -3.453851  3.272165  -2.120090
H    -1.232302  2.660195  -3.030303
H    -2.375826  1.347551  -3.295961
H    -0.961187  0.035834  -2.206751
H    0.022273  1.273002  -1.857554
N    -3.467568  0.066128  3.114775
C    -3.826199  -0.567022  4.384266
H    -3.623208  -0.476081  2.267581
H    -3.944646  0.200947  5.152174
H    -3.051428  -1.283690  4.686490
H    -4.773145  -1.102526  4.257937
Ca    -0.901493  2.917061  4.452542
