34
Energy: -36754.6025154 eV PBE+vdW (tier 2 basis)
C    0.247909  0.928245  0.795288
C    -0.103645  0.015406  1.935147
O    0.476512  -1.128889  1.988509
H    0.509291  1.937598  1.132414
H    -0.604465  1.024728  0.105660
H    1.089354  0.501919  0.242156
N    -1.047230  0.221727  2.887654
C    -2.205001  1.114515  2.680537
C    -3.151464  0.398872  1.680625
O    -3.048887  -0.860643  1.545796
H    -0.364516  0.673762  4.435931
H    -2.767073  1.053695  3.631250
C    -1.968883  2.618175  2.415090
C    -0.888459  3.281247  3.282784
C    -1.091119  3.239416  4.818077
C    0.007404  2.505809  5.576101
N    -0.106503  0.994431  5.436406
H    -2.920522  3.143827  2.598509
H    -1.716016  2.793878  1.360800
H    -0.824783  4.329213  2.964020
H    0.094732  2.853346  3.035278
H    -2.077285  2.832214  5.096071
H    -1.096110  4.263520  5.214137
H    -0.018317  2.721955  6.650737
H    1.000813  2.778890  5.199378
H    -0.839869  0.642589  6.063019
H    0.769759  0.534589  5.712721
N    -4.066308  1.099518  1.029750
C    -5.076758  0.542748  0.127531
H    -4.078774  2.105597  1.173731
H    -4.972425  0.995083  -0.865601
H    -6.078566  0.759611  0.517097
H    -4.936124  -0.537644  0.056413
Ca    -1.439790  -2.093145  2.409228
