34
Energy: -36754.4164906 eV PBE+vdW (tier 2 basis)
C    -0.644802  -2.110881  1.957155
C    -0.538600  -0.856346  2.755806
O    0.516985  -0.597773  3.423776
H    -0.075935  -2.015148  1.018901
H    -1.678458  -2.379234  1.720482
H    -0.173759  -2.921299  2.528033
N    -1.549593  0.038953  2.761874
C    -2.215530  0.490377  1.533231
C    -1.121527  1.031442  0.577058
O    0.036023  1.354833  1.063124
H    -1.448000  0.772395  3.466051
H    -2.716390  -0.359723  1.049214
C    -3.264443  1.559012  1.921263
C    -4.169365  2.071291  0.797351
C    -5.133544  1.026816  0.185216
C    -5.041818  0.908960  -1.333632
N    -3.761956  0.266840  -1.759259
H    -2.735292  2.412436  2.377698
H    -3.881398  1.108210  2.713990
H    -3.560430  2.537190  0.008573
H    -4.752897  2.898579  1.221793
H    -6.168165  1.289484  0.440707
H    -4.980412  0.029941  0.633710
H    -5.077723  1.907675  -1.789928
H    -5.903932  0.347903  -1.722080
H    -3.832164  -0.742775  -1.600998
H    -3.664661  0.360786  -2.774180
N    -1.412907  1.151490  -0.687237
C    -0.490295  1.715596  -1.670671
H    -2.395845  0.801932  -1.071012
H    -0.124658  2.697146  -1.347066
H    0.368411  1.050703  -1.832670
H    -1.027019  1.829939  -2.617044
Ca    1.548171  1.075058  2.513061
