34
Energy: -36752.7329267 eV PBE+vdW (tier 2 basis)
C    -1.164042  2.600461  0.638200
C    -1.000889  1.607402  1.737169
O    -0.159716  1.887816  2.703720
H    -0.243145  2.629309  0.037361
H    -1.306204  3.601485  1.064645
H    -2.001401  2.369019  -0.025348
N    -1.642435  0.475265  1.791183
C    -2.685681  -0.087997  0.924360
C    -3.305174  -1.164520  1.868300
O    -2.672065  -1.458478  2.896983
H    -1.556307  -0.187059  2.609027
H    -3.426950  0.690393  0.694590
C    -2.127621  -0.690246  -0.385556
C    -1.244889  -1.930810  -0.217818
C    -0.719992  -2.442193  -1.563339
C    0.109049  -3.725068  -1.432292
N    0.639013  -4.137661  -2.714195
H    -1.575025  0.099691  -0.917781
H    -2.985701  -0.928875  -1.029697
H    -1.816291  -2.728018  0.283804
H    -0.394359  -1.705122  0.446656
H    -0.100909  -1.673820  -2.051340
H    -1.569655  -2.629942  -2.240847
H    -0.513531  -4.511216  -0.955106
H    0.960420  -3.555387  -0.755745
H    -0.057345  -4.380462  -3.415590
H    1.370675  -4.842106  -2.673648
N    -4.467241  -1.738650  1.536764
C    -5.334193  -1.478141  0.391251
H    -4.766321  -2.458056  2.192632
H    -5.245999  -0.438946  0.056890
H    -6.373529  -1.638668  0.695877
H    -5.110366  -2.149374  -0.448884
Ca    1.036682  2.386125  4.234558
