34
Energy: -36753.6516878 eV PBE+vdW (tier 2 basis)
C    0.210718  -0.608638  2.014992
C    -0.434504  -0.654666  3.357280
O    0.256223  -0.889762  4.403162
H    0.781365  0.325317  1.893498
H    -0.501162  -0.704724  1.190132
H    0.942486  -1.426123  1.964997
N    -1.761219  -0.432757  3.494792
C    -2.455733  0.680744  2.845776
C    -1.834873  1.991934  3.408645
O    -1.015362  1.954251  4.391228
H    -2.129952  -0.671100  4.417641
H    -2.258510  0.646924  1.763604
C    -3.977330  0.542501  3.086892
C    -4.887600  1.479834  2.285320
C    -6.362183  1.073834  2.413685
C    -7.312542  2.011851  1.658191
N    -8.691950  1.605127  1.870972
H    -4.184593  0.649618  4.164709
H    -4.220018  -0.497566  2.821228
H    -4.595964  1.464938  1.220470
H    -4.789195  2.519487  2.640542
H    -6.661863  1.057975  3.472491
H    -6.489369  0.045753  2.037675
H    -7.013954  2.050408  0.589948
H    -7.201282  3.034439  2.050256
H    -9.358288  2.339121  1.641335
H    -8.946168  0.768117  1.348475
N    -2.166787  3.135824  2.846878
C    -1.691242  4.453892  3.281344
H    -2.833405  3.104095  2.078072
H    -0.601243  4.517091  3.182106
H    -1.975255  4.637737  4.324024
H    -2.152039  5.212113  2.643443
Ca    0.339602  0.860529  5.666351
