34
Energy: -36754.2639594 eV PBE+vdW (tier 2 basis)
C    -0.593869  1.534264  0.537614
C    -0.865713  0.219836  1.185855
O    -0.156623  -0.801320  0.896531
H    0.422124  1.853847  0.812912
H    -1.303017  2.316162  0.827719
H    -0.605005  1.417787  -0.553961
N    -1.849916  0.127816  2.085330
C    -2.133909  -1.036546  2.951180
C    -2.850160  -2.125747  2.122795
O    -2.140809  -2.919637  1.413761
H    -2.376493  0.976619  2.283631
H    -1.161932  -1.476647  3.225888
C    -2.821051  -0.564556  4.242719
C    -2.722986  -1.542169  5.424633
C    -3.449992  -2.885277  5.298000
C    -3.381330  -3.705467  6.610383
N    -4.061944  -4.980693  6.629287
H    -3.872167  -0.282197  4.052410
H    -2.321856  0.372812  4.534137
H    -3.116641  -1.010555  6.303772
H    -1.656989  -1.716963  5.646606
H    -3.021667  -3.501850  4.486978
H    -4.512710  -2.722068  5.045194
H    -3.790599  -3.089141  7.426183
H    -2.322916  -3.875609  6.865711
H    -5.071998  -4.912076  6.528120
H    -3.696505  -5.660538  5.966677
N    -4.163824  -2.188560  2.133477
C    -4.987111  -3.168478  1.426404
H    -4.644783  -1.558477  2.772703
H    -4.372356  -3.711873  0.706424
H    -5.800596  -2.649678  0.907150
H    -5.415481  -3.874558  2.149934
Ca    -0.210179  -2.875462  0.521843
