34
Energy: -36754.3272948 eV PBE+vdW (tier 2 basis)
C    0.285625  1.405047  0.617849
C    0.059536  0.778732  1.952256
O    0.978585  0.804652  2.838028
H    0.455114  2.481911  0.765432
H    -0.552937  1.268957  -0.072577
H    1.200281  0.999050  0.166752
N    -1.119040  0.205840  2.206224
C    -1.612040  -0.282693  3.506438
C    -1.000313  -1.660760  3.851023
O    0.236284  -1.716806  4.171866
H    -1.809013  0.210744  1.456500
H    -1.200946  0.389215  4.277758
C    -3.148768  -0.181536  3.552330
C    -3.934384  -0.734442  2.347655
C    -5.429314  -0.867741  2.662098
C    -6.266747  -1.321375  1.460503
N    -7.636543  -1.581412  1.883773
H    -3.400320  0.880939  3.680390
H    -3.485728  -0.663513  4.483185
H    -3.550081  -1.714349  2.008507
H    -3.819740  -0.063745  1.477021
H    -5.811046  0.097445  3.033028
H    -5.580758  -1.590515  3.479650
H    -5.854532  -2.264576  1.068021
H    -6.166701  -0.574250  0.645846
H    -8.155961  -0.717570  2.040317
H    -8.149170  -2.112742  1.181988
N    -1.764023  -2.732161  3.851392
C    -1.348067  -4.091282  4.199371
H    -2.738534  -2.599917  3.584816
H    -1.999532  -4.474460  4.993550
H    -0.312309  -4.079197  4.543720
H    -1.439188  -4.739652  3.319143
Ca    1.942995  -0.449731  4.228136
