34
Energy: -36753.498534 eV PBE+vdW (tier 2 basis)
C    -0.760726  1.045342  0.529879
C    -0.023460  0.369262  1.635851
O    1.218288  0.607935  1.814251
H    -1.762052  1.363785  0.836840
H    -0.878783  0.362914  -0.327332
H    -0.178728  1.909233  0.194091
N    -0.624772  -0.514673  2.467145
C    -1.492181  -1.622136  2.031319
C    -0.630239  -2.535924  1.109424
O    0.614047  -2.292918  0.927256
H    -0.044224  -0.743945  3.274469
H    -1.678925  -2.203877  2.948331
C    -2.875539  -1.212902  1.470157
C    -3.998463  -2.237717  1.710836
C    -5.383362  -1.692190  1.329410
C    -5.953038  -0.660260  2.312040
N    -7.196800  -0.117067  1.787538
H    -2.811791  -0.976005  0.398931
H    -3.147850  -0.283504  1.988346
H    -3.994052  -2.550478  2.768316
H    -3.840060  -3.157720  1.119525
H    -6.080610  -2.540788  1.266363
H    -5.356582  -1.246859  0.322773
H    -5.256546  0.185965  2.430600
H    -6.042622  -1.131612  3.312935
H    -7.942097  -0.812850  1.761292
H    -7.532423  0.673990  2.334136
N    -1.204822  -3.577347  0.548227
C    -0.524246  -4.557082  -0.304744
H    -2.201345  -3.706967  0.726582
H    -1.250570  -5.319300  -0.597455
H    0.296151  -5.034294  0.243841
H    -0.129880  -4.071904  -1.205362
Ca    2.383309  -1.101083  1.216930
