34
Energy: -36753.9511217 eV PBE+vdW (tier 2 basis)
C    0.615900  3.690222  2.649381
C    0.371612  2.694913  3.738816
O    0.703266  2.983395  4.936349
H    -0.022207  4.566057  2.841414
H    0.395671  3.309371  1.646826
H    1.654348  4.042140  2.686984
N    -0.187241  1.529458  3.401195
C    -0.831067  0.432957  4.155460
C    -0.187026  0.006560  5.470552
O    1.013340  0.303135  5.796209
H    -0.369673  1.438122  2.403269
H    -1.852012  0.773672  4.396369
C    -0.938683  -0.784441  3.192847
C    0.388051  -1.455972  2.830135
C    0.178923  -2.633893  1.872840
C    1.485000  -3.338984  1.486171
N    1.197574  -4.510194  0.671157
H    -1.460015  -0.430511  2.287635
H    -1.620955  -1.519676  3.638016
H    0.886380  -1.817639  3.745882
H    1.078803  -0.725807  2.375273
H    -0.327618  -2.281405  0.958879
H    -0.491483  -3.379263  2.327464
H    1.991301  -3.685295  2.400650
H    2.167314  -2.603845  1.009474
H    0.928032  -4.264096  -0.280781
H    1.996084  -5.138936  0.610620
N    -0.900767  -0.744454  6.300055
C    -2.284676  -1.220754  6.209301
H    -0.372522  -1.074207  7.108179
H    -2.901581  -0.538421  5.617418
H    -2.695534  -1.266090  7.223149
H    -2.321698  -2.225275  5.769092
Ca    2.001716  2.094682  6.334224
