34
Energy: -36755.4572467 eV PBE+vdW (tier 2 basis)
C    0.299530  1.232408  -0.305797
C    -0.638424  1.565649  0.803996
O    -1.045861  2.751996  0.981616
H    -0.136852  1.569989  -1.255604
H    0.532773  0.164900  -0.372629
H    1.232023  1.797370  -0.167903
N    -1.060565  0.581417  1.620348
C    -2.019604  0.807887  2.702424
C    -1.340561  1.423228  3.942715
O    -1.380820  2.688344  4.051587
H    -0.728832  -0.364689  1.448662
H    -2.651502  1.630908  2.351378
C    -2.985251  -0.365157  2.926388
C    -4.232148  -0.239513  2.028073
C    -4.964889  1.116187  2.186826
C    -4.633210  2.185308  1.120286
N    -4.363386  3.548439  1.723305
H    -3.311454  -0.352147  3.976774
H    -2.483735  -1.333037  2.771140
H    -4.914162  -1.057427  2.290359
H    -3.966806  -0.404754  0.972668
H    -4.760836  1.522249  3.193354
H    -6.047157  0.939711  2.171774
H    -5.461224  2.265738  0.404041
H    -3.747558  1.907569  0.532347
H    -4.604570  4.242625  1.004707
H    -5.074052  3.707386  2.447418
N    -0.751735  0.642064  4.830893
C    -0.061853  1.098402  6.040102
H    -0.798019  -0.362957  4.677642
H    -0.116567  2.187775  6.092609
H    0.987022  0.780471  6.007502
H    -0.542602  0.661301  6.923208
Ca    -2.015114  4.051360  2.433790
