34
Energy: -36754.776138 eV PBE+vdW (tier 2 basis)
C    -0.218019  -1.823811  1.088489
C    -1.031752  -1.172824  2.160686
O    -1.903212  -1.854575  2.797054
H    -0.872255  -2.349636  0.382101
H    0.415687  -2.589084  1.561546
H    0.423848  -1.126093  0.540949
N    -0.812338  0.118425  2.421113
C    -1.216687  0.962051  3.562724
C    -2.731957  1.191363  3.728755
O    -3.601003  0.458315  3.126041
H    -0.113256  0.559832  1.827825
H    -0.918200  0.425592  4.481839
C    -0.401425  2.278458  3.459573
C    0.926319  2.255993  4.224950
C    0.798733  2.308329  5.755660
C    0.064135  3.537749  6.306204
N    -1.411891  3.326738  6.421856
H    -1.013149  3.119372  3.800109
H    -0.228744  2.486436  2.391382
H    1.515468  3.123411  3.892990
H    1.519357  1.372582  3.937766
H    1.815018  2.296831  6.172131
H    0.323505  1.393582  6.152366
H    0.223869  4.403207  5.647655
H    0.483524  3.809412  7.285221
H    -2.343664  2.619454  5.208399
H    -1.586631  2.741139  7.244242
N    -3.087828  2.115142  4.585912
C    -4.485266  2.400794  4.902517
H    -1.846754  4.225302  6.651596
H    -5.072578  2.524517  3.986131
H    -4.522340  3.330761  5.477514
H    -4.930819  1.598773  5.508051
Ca    -3.997696  -1.581536  2.892653
