34
Energy: -36753.655734 eV PBE+vdW (tier 2 basis)
C    -1.042284  0.121930  -1.106791
C    -0.542998  -0.413656  0.191350
O    -0.182405  -1.638391  0.277181
H    -0.711989  1.149554  -1.285463
H    -2.144195  0.118983  -1.125124
H    -0.694425  -0.533389  -1.911988
N    -0.458430  0.347207  1.307090
C    -1.527280  1.218514  1.823405
C    -2.720266  0.296983  2.199681
O    -2.647441  -0.974669  2.045799
H    0.083202  -0.107916  2.042868
H    -1.130683  1.614312  2.771715
C    -1.896457  2.435283  0.943103
C    -2.414760  3.667958  1.703566
C    -1.489693  4.217037  2.800072
C    -0.035664  4.448039  2.355529
N    0.017843  5.091093  1.039812
H    -2.620901  2.148077  0.169337
H    -0.977046  2.757829  0.433245
H    -3.430795  3.519593  2.113873
H    -2.551740  4.438886  0.933553
H    -1.486917  3.571515  3.695852
H    -1.921082  5.168258  3.146042
H    0.494410  3.483781  2.267157
H    0.484531  4.999117  3.159102
H    -0.357009  6.040582  1.086147
H    0.984686  5.190571  0.730098
N    -3.798602  0.855855  2.704154
C    -4.997553  0.134925  3.143156
H    -3.799415  1.874274  2.771886
H    -5.691419  0.857899  3.579148
H    -4.735172  -0.612461  3.900549
H    -5.481742  -0.359180  2.292293
Ca    -1.601740  -2.745513  1.444339
