34
Energy: -36754.502129 eV PBE+vdW (tier 2 basis)
C    0.022557  -0.800828  -0.287179
C    -0.595400  -0.849877  1.071261
O    -0.284280  -1.776645  1.878579
H    -0.306353  0.051755  -0.889914
H    -0.221788  -1.731641  -0.818150
H    1.115661  -0.771691  -0.184047
N    -1.483742  0.107357  1.396800
C    -2.296771  0.217931  2.629731
C    -1.392734  0.576948  3.823837
O    -0.664138  -0.312199  4.366951
H    -1.667323  0.801100  0.677283
H    -2.971075  1.062260  2.449243
C    -3.153723  -1.045644  2.871183
C    -3.771220  -1.184021  4.270087
C    -4.297711  -2.595894  4.554353
C    -3.261559  -3.726255  4.423476
N    -3.685072  -4.912106  5.059323
H    -2.546822  -1.931319  2.630926
H    -3.943389  -1.052359  2.106487
H    -3.033802  -0.925731  5.047527
H    -4.594288  -0.465764  4.389855
H    -5.139729  -2.843633  3.892380
H    -4.701219  -2.614058  5.576864
H    -2.249539  -3.291940  4.844076
H    -3.058879  -3.954398  3.364589
H    -3.207263  -5.774550  4.822790
H    -3.908134  -4.850401  6.048168
N    -1.381456  1.813968  4.294087
C    -2.130587  2.988007  3.826573
H    -0.754830  1.954183  5.087634
H    -1.868578  3.241655  2.792570
H    -1.854820  3.833762  4.462172
H    -3.212111  2.832292  3.918867
Ca    -0.243839  -2.375532  3.942752
