34
Energy: -36754.4162816 eV PBE+vdW (tier 2 basis)
C    0.190895  -0.309620  0.153739
C    0.017655  -0.338867  1.632962
O    1.021041  -0.181045  2.407700
H    0.398831  0.731528  -0.141275
H    -0.697126  -0.648134  -0.389884
H    1.060364  -0.909185  -0.139765
N    -1.209816  -0.495851  2.133886
C    -1.623392  -0.273928  3.533780
C    -1.243418  -1.505206  4.386180
O    -0.025006  -1.654851  4.741711
H    -1.968899  -0.571813  1.459140
H    -1.006110  0.550046  3.928788
C    -3.101386  0.145649  3.597473
C    -3.406205  1.573173  3.105054
C    -3.157039  1.852966  1.619685
C    -3.688978  3.216167  1.155054
N    -3.307573  3.444120  -0.238423
H    -3.417605  0.077288  4.649173
H    -3.716236  -0.577769  3.030890
H    -2.841956  2.291547  3.721744
H    -4.466072  1.759795  3.334098
H    -3.631831  1.066936  1.002310
H    -2.083349  1.847249  1.377930
H    -3.228622  4.004192  1.769350
H    -4.777731  3.268102  1.344289
H    -3.971698  3.009634  -0.879659
H    -3.309186  4.439062  -0.458506
N    -2.177703  -2.368170  4.726293
C    -1.987619  -3.578288  5.527659
H    -3.126827  -2.162213  4.418848
H    -2.678513  -3.558519  6.378493
H    -0.958398  -3.617237  5.889410
H    -2.200845  -4.462738  4.914674
Ca    1.883419  -0.888450  4.190652
