34
Energy: -36754.8079187 eV PBE+vdW (tier 2 basis)
C    -1.008911  -0.671073  0.195312
C    -0.753528  0.051183  1.476358
O    0.249011  0.854717  1.544290
H    -0.106024  -1.209655  -0.119294
H    -1.221141  0.075445  -0.583794
H    -1.850831  -1.363754  0.262376
N    -1.572346  -0.136217  2.504584
C    -1.507215  0.658525  3.743512
C    -0.418100  0.099556  4.687961
O    0.807538  0.320099  4.395953
H    -2.319788  -0.905586  2.394495
H    -1.090578  1.635287  3.452237
C    -2.909554  0.941612  4.356437
C    -4.058439  -0.010504  4.009495
C    -3.942637  -1.483086  4.459590
C    -4.347016  -2.443140  3.341894
N    -3.361046  -2.353048  2.223674
H    -3.198226  1.942392  4.008984
H    -2.803780  1.050985  5.446697
H    -4.216857  0.026051  2.921196
H    -4.970424  0.426008  4.437357
H    -4.562380  -1.666127  5.347612
H    -2.911706  -1.750806  4.750917
H    -5.337978  -2.165926  2.959112
H    -4.427647  -3.472160  3.717486
H    -2.727383  -3.153927  2.271420
H    -3.847755  -2.454339  1.331177
N    -0.753986  -0.559757  5.777590
C    0.166785  -1.114976  6.769317
H    -1.750122  -0.680549  5.950452
H    -0.071508  -0.702386  7.756777
H    1.191835  -0.855263  6.498234
H    0.058502  -2.206014  6.802740
Ca    1.889677  1.213201  2.785818
