34
Energy: -36752.8285587 eV PBE+vdW (tier 2 basis)
C    -0.250759  0.934319  0.168811
C    -0.367318  0.779539  1.646141
O    0.498382  1.406968  2.404792
H    -0.213126  2.001885  -0.084844
H    -1.074308  0.465398  -0.375809
H    0.694218  0.485477  -0.169466
N    -1.281659  0.055750  2.227478
C    -2.391095  -0.736364  1.682999
C    -3.310834  -0.854224  2.939988
O    -2.794752  -0.653734  4.050538
H    -1.368201  -0.002420  3.275288
H    -2.896016  -0.177599  0.881422
C    -1.891265  -2.107938  1.168799
C    -2.954921  -2.972381  0.481789
C    -2.343241  -4.221980  -0.162862
C    -3.391373  -5.107553  -0.850370
N    -2.774985  -6.257271  -1.475065
H    -1.444328  -2.653028  2.014223
H    -1.074934  -1.915742  0.454685
H    -3.471927  -2.380129  -0.293125
H    -3.719298  -3.281931  1.210578
H    -1.817698  -4.811873  0.605924
H    -1.586955  -3.935883  -0.909336
H    -3.908253  -4.535132  -1.634547
H    -4.167065  -5.393135  -0.108804
H    -2.358874  -6.933034  -0.838467
H    -3.335829  -6.720972  -2.184312
N    -4.592511  -1.170936  2.732693
C    -5.564214  -1.363074  3.808255
H    -4.912509  -1.290873  1.777162
H    -5.916250  -2.401868  3.823603
H    -6.420475  -0.694260  3.663025
H    -5.078114  -1.132511  4.759476
Ca    1.793782  2.405682  3.567293
