34
Energy: -36754.3760649 eV PBE+vdW (tier 2 basis)
C    -0.007852  0.448749  -0.096972
C    0.264854  -0.413904  1.082244
O    1.469091  -0.839103  1.301985
H    0.713545  1.277552  -0.095408
H    -1.023756  0.853023  -0.107164
H    0.167964  -0.117010  -1.023345
N    -0.665513  -0.786809  1.936812
C    -2.125820  -0.845616  1.879061
C    -2.472076  -1.452184  3.271088
O    -1.593211  -2.121752  3.856880
H    -0.375343  -1.327969  2.771242
H    -2.552087  0.161460  1.768469
C    -2.646253  -1.777029  0.751434
C    -2.258204  -3.262906  0.863420
C    -0.846218  -3.666424  0.357183
C    -0.098175  -4.649067  1.258734
N    0.496993  -3.988272  2.482984
H    -2.336416  -1.366159  -0.221183
H    -3.742517  -1.697734  0.763797
H    -2.994731  -3.835806  0.286310
H    -2.395889  -3.596883  1.902743
H    -0.218846  -2.778824  0.170762
H    -0.942450  -4.144041  -0.627169
H    0.725082  -5.127203  0.704188
H    -0.769207  -5.463291  1.568974
H    -0.253994  -3.464382  2.970918
H    0.736331  -4.732915  3.149333
N    -3.709036  -1.260865  3.722571
C    -4.227281  -1.815035  4.973741
H    -4.329640  -0.664071  3.182542
H    -5.077822  -2.475998  4.768513
H    -4.554222  -1.002013  5.632380
H    -3.430787  -2.380891  5.462633
Ca    2.384432  -2.614918  1.892337
