34
Energy: -36754.2841948 eV PBE+vdW (tier 2 basis)
C    -0.780110  -1.186065  0.644988
C    -0.494555  -0.265913  1.786344
O    0.595321  -0.370669  2.423290
H    -1.748566  -1.009331  0.166423
H    -0.742400  -2.221681  1.010796
H    0.017334  -1.085629  -0.103957
N    -1.422017  0.652315  2.101679
C    -1.477996  1.658931  3.191504
C    -0.378976  2.723286  3.059085
O    0.842966  2.424828  3.252825
H    -2.251976  0.631743  1.515347
H    -2.433801  2.160348  3.004588
C    -1.615202  1.093785  4.630940
C    -0.424728  0.479060  5.389325
C    -0.797150  0.012795  6.809612
C    -1.718963  -1.217535  6.855697
N    -1.993202  -1.558318  8.239208
H    -2.424340  0.351945  4.583398
H    -2.006763  1.918480  5.246736
H    0.365632  1.251663  5.513711
H    -0.042475  -0.406511  4.838959
H    -1.271815  0.837732  7.360875
H    0.128509  -0.221516  7.357655
H    -1.260731  -2.032666  6.251809
H    -2.682732  -0.984585  6.378869
H    -2.823683  -2.138655  8.335783
H    -1.219513  -2.050817  8.683593
N    -0.710323  3.974523  2.781614
C    -2.038368  4.548284  2.523729
H    0.081382  4.618431  2.751484
H    -2.514265  4.074218  1.657154
H    -1.903644  5.609151  2.295939
H    -2.684544  4.469381  3.406424
Ca    1.914453  0.637906  3.741869
