34
Energy: -36755.5498006 eV PBE+vdW (tier 2 basis)
C    -3.274054  0.438523  -1.172514
C    -2.852474  0.800024  0.214460
O    -1.845126  0.245478  0.740873
H    -2.430611  0.598404  -1.857333
H    -4.142022  1.001509  -1.530395
H    -3.506742  -0.635234  -1.199798
N    -3.580700  1.724277  0.873088
C    -3.418767  2.175226  2.273809
C    -2.132751  3.016790  2.412863
O    -0.998444  2.457180  2.477312
H    -4.368611  2.114144  0.363738
H    -4.275964  2.834284  2.465225
C    -3.481727  0.983726  3.252500
C    -3.032476  1.224254  4.704131
C    -2.526287  -0.090587  5.352777
C    -1.085970  -0.075251  5.855249
N    -0.058534  0.311740  4.804992
H    -2.898875  0.152830  2.824820
H    -4.512018  0.601296  3.231860
H    -3.863274  1.640916  5.286384
H    -2.241533  1.988549  4.739952
H    -2.648358  -0.924911  4.641495
H    -3.156836  -0.360979  6.210261
H    -0.823679  -1.078690  6.211283
H    -0.983696  0.603757  6.713077
H    0.149970  1.306434  4.949880
H    0.815409  -0.149719  5.080948
N    -2.272853  4.333569  2.461884
C    -1.179730  5.301156  2.562111
H    -3.216701  4.710102  2.419288
H    -1.321749  5.923957  3.453125
H    -1.174063  5.944216  1.673660
H    -0.231190  4.764751  2.631833
Ca    -0.365563  0.372280  2.338164
