34
Energy: -36754.4795321 eV PBE+vdW (tier 2 basis)
C    -3.482813  -0.623089  0.298790
C    -2.551182  0.250295  1.070422
O    -1.342501  -0.110989  1.246198
H    -4.483276  -0.195966  0.176881
H    -3.566379  -1.588147  0.819352
H    -3.053349  -0.832425  -0.689882
N    -3.016249  1.401948  1.565426
C    -2.362231  2.353982  2.494682
C    -1.217987  3.130030  1.827966
O    -0.114277  2.553466  1.552810
H    -3.998141  1.588807  1.380101
H    -3.157636  3.071745  2.737369
C    -1.915153  1.728848  3.833208
C    -3.062080  1.081022  4.607147
C    -2.663200  0.611463  6.009548
C    -3.896851  0.249175  6.851865
N    -4.781396  1.410634  6.986617
H    -1.470846  2.541218  4.429788
H    -1.104368  0.991882  3.676036
H    -3.473578  0.231053  4.039214
H    -3.882985  1.807866  4.733267
H    -2.108605  1.414977  6.522865
H    -1.986372  -0.256241  5.959961
H    -3.555297  -0.169883  7.814019
H    -4.459070  -0.551020  6.347391
H    -5.727629  1.122163  7.230658
H    -4.466645  2.023452  7.739493
N    -1.397299  4.420376  1.607720
C    -0.405716  5.342488  1.051220
H    -2.303350  4.815500  1.850151
H    -0.307560  6.208531  1.715799
H    -0.734103  5.685213  0.062111
H    0.555534  4.832062  0.964528
Ca    0.630591  0.563562  1.515276
