34
Energy: -36752.6803043 eV PBE+vdW (tier 2 basis)
C    -1.127928  0.224535  0.123754
C    -0.731068  0.244647  1.569049
O    0.447606  0.049547  1.925985
H    -0.368426  0.743928  -0.470283
H    -2.113996  0.662104  -0.067908
H    -1.143009  -0.823040  -0.212543
N    -1.722779  0.477264  2.479236
C    -1.668602  0.196831  3.921228
C    -0.667798  1.066670  4.682996
O    -1.030146  1.580603  5.831449
H    -2.650846  0.641492  2.104782
H    -2.657999  0.478857  4.306043
C    -1.416051  -1.290856  4.289941
C    -2.543437  -2.265080  3.909487
C    -2.632603  -2.719954  2.442446
C    -1.381289  -3.423368  1.898597
N    -1.012630  -4.568168  2.713965
H    -1.284844  -1.326901  5.383493
H    -0.454533  -1.609594  3.864564
H    -3.514916  -1.843732  4.215139
H    -2.395829  -3.161736  4.527291
H    -2.882951  -1.887935  1.768849
H    -3.485435  -3.412709  2.367254
H    -0.518734  -2.739598  1.878098
H    -1.576736  -3.695462  0.842078
H    -0.102075  -4.961699  2.487330
H    -1.710670  -5.310904  2.721549
N    0.535061  1.220356  4.215308
C    1.604887  1.973390  4.855984
H    0.686068  0.712898  3.263968
H    2.470243  1.978755  4.187722
H    1.901010  1.502593  5.803756
H    1.299367  3.012844  5.037233
Ca    -1.481523  2.404182  7.600546
