34
Energy: -36754.2036471 eV PBE+vdW (tier 2 basis)
C    -0.511946  -0.019403  -0.103010
C    -0.474243  -0.008562  1.387746
O    0.504703  0.536842  2.000019
H    -1.373761  -0.558066  -0.509530
H    0.413987  -0.459677  -0.495185
H    -0.543548  1.022108  -0.455346
N    -1.482540  -0.566049  2.060799
C    -1.760713  -0.465598  3.504313
C    -0.874818  -1.468640  4.287295
O    0.361126  -1.135038  4.408736
H    -2.248054  -0.958499  1.512414
H    -1.350265  0.501565  3.835603
C    -3.285935  -0.410971  3.726326
C    -4.156031  -1.300937  2.828125
C    -5.635103  -1.310324  3.248134
C    -6.289640  0.079709  3.248039
N    -5.984650  0.802365  2.005004
H    -3.579125  0.632312  3.540316
H    -3.488118  -0.584921  4.793294
H    -3.787903  -2.336884  2.785549
H    -4.136364  -0.896180  1.801835
H    -5.752450  -1.761102  4.246449
H    -6.176556  -1.969825  2.553481
H    -5.903804  0.680428  4.085693
H    -7.368183  -0.049566  3.442594
H    -6.518014  0.409500  1.226741
H    -6.287845  1.773467  2.080350
N    -1.255823  -2.594649  4.862271
C    -2.535147  -3.310306  4.935873
H    -0.478200  -3.063055  5.330947
H    -2.453838  -4.034258  5.751526
H    -2.729655  -3.853711  4.003891
H    -3.362402  -2.632450  5.153074
Ca    1.790409  0.227220  3.636621
