34
Energy: -36754.4674425 eV PBE+vdW (tier 2 basis)
C    1.100322  -0.345962  2.287320
C    -0.018373  0.652557  2.290810
O    0.172812  1.733401  3.043495
H    0.866498  -1.193484  1.638209
H    1.288201  -0.710448  3.306681
H    2.026936  0.137114  1.948075
N    -1.075885  0.414954  1.576828
C    -2.140187  1.411683  1.497213
C    -2.960799  1.376926  2.790344
O    -2.659888  2.141442  3.767958
H    -3.111490  1.375044  -3.701208
H    -1.734682  2.443135  1.455850
C    -2.960026  1.130575  0.218155
C    -2.085282  1.159828  -1.047746
C    -1.800766  2.555838  -1.629028
C    -2.901171  3.127589  -2.516074
N    -2.970469  2.384877  -3.848294
H    -3.808097  1.830816  0.149015
H    -3.382426  0.116918  0.288223
H    -2.544858  0.506117  -1.809878
H    -1.134968  0.666513  -0.800190
H    -0.852701  2.553435  -2.191026
H    -1.644416  3.285006  -0.820230
H    -2.728156  4.179454  -2.771989
H    -3.899514  3.036212  -2.069787
H    -3.740643  2.727374  -4.439058
H    -2.095429  2.497607  -4.379652
N    -3.945601  0.498267  2.908619
C    -4.729148  0.278678  4.122242
H    -4.108132  -0.123952  2.122720
H    -5.710600  -0.115812  3.843182
H    -4.856425  1.226679  4.652407
H    -4.229617  -0.442525  4.783064
Ca    -0.745020  2.835143  4.465749
