34
Energy: -36753.5469792 eV PBE+vdW (tier 2 basis)
C    0.018492  -0.591230  0.213769
C    -0.074327  -0.230405  1.656560
O    0.990297  -0.012811  2.330475
H    1.012307  -0.316526  -0.153818
H    -0.755839  -0.096401  -0.384066
H    -0.102345  -1.677865  0.077478
N    -1.260589  -0.121062  2.300781
C    -2.352012  -1.107578  2.252196
C    -1.792671  -2.437305  2.842630
O    -0.602086  -2.496018  3.308955
H    -1.166205  0.333477  3.209253
H    -3.093060  -0.735711  2.978019
C    -3.077018  -1.259930  0.901772
C    -3.631163  0.067813  0.366504
C    -4.312764  -0.073913  -0.999727
C    -3.351069  -0.323495  -2.168291
N    -4.095619  -0.472907  -3.406415
H    -3.926414  -1.945138  1.052926
H    -2.426651  -1.754429  0.168432
H    -2.823380  0.815055  0.302236
H    -4.351338  0.469164  1.096087
H    -4.872544  0.852608  -1.196826
H    -5.062986  -0.879114  -0.978220
H    -2.793960  -1.263243  -2.013694
H    -2.593514  0.493563  -2.183277
H    -3.509884  -0.772892  -4.183206
H    -4.566230  0.388313  -3.683149
N    -2.583129  -3.489560  2.878240
C    -2.223901  -4.791808  3.451390
H    -3.515041  -3.391423  2.481824
H    -3.087218  -5.455713  3.361638
H    -1.962981  -4.682034  4.510418
H    -1.377489  -5.227149  2.907411
Ca    1.313658  -1.607948  3.733264
