34
Energy: -36752.7906753 eV PBE+vdW (tier 2 basis)
C    0.156087  1.999233  0.882748
C    0.195503  1.088978  2.061239
O    1.184270  1.222934  2.916672
H    0.441526  3.013472  1.185451
H    -0.827346  2.026709  0.404604
H    0.889460  1.657651  0.136606
N    -0.688948  0.162179  2.289103
C    -1.913373  -0.209031  1.569561
C    -2.643619  -1.068182  2.648164
O    -2.016012  -1.379093  3.674105
H    -0.677478  -0.428997  3.164602
H    -2.507132  0.697329  1.375332
C    -1.646771  -0.942824  0.234768
C    -0.774736  -2.206363  0.289199
C    -1.420809  -3.493142  0.831974
C    -2.626989  -4.000900  0.031443
N    -2.298517  -4.198089  -1.370861
H    -1.183949  -0.218445  -0.451373
H    -2.623282  -1.167451  -0.219564
H    0.142959  -1.999873  0.863285
H    -0.445755  -2.400673  -0.740822
H    -1.717564  -3.389642  1.885183
H    -0.646698  -4.276664  0.828786
H    -3.459669  -3.281489  0.079158
H    -2.998852  -4.921686  0.522629
H    -1.604647  -4.927833  -1.528702
H    -3.107023  -4.371759  -1.963884
N    -3.906871  -1.413589  2.386809
C    -4.714547  -2.257496  3.265227
H    -4.326943  -1.093680  1.519949
H    -4.200834  -2.353833  4.225142
H    -4.847777  -3.254441  2.825175
H    -5.696778  -1.797885  3.420124
Ca    2.655867  1.500692  4.239688
