34
Energy: -36754.4864066 eV PBE+vdW (tier 2 basis)
C    -0.488939  2.103194  1.878370
C    -0.776732  0.656897  2.106125
O    0.140549  -0.207559  1.925497
H    -1.338513  2.758364  2.095708
H    -0.191099  2.238385  0.828543
H    0.369730  2.405278  2.492665
N    -2.005728  0.302095  2.497979
C    -2.590210  -1.054369  2.632027
C    -2.011862  -1.823761  3.828024
O    -0.823412  -2.282707  3.791295
H    -2.664699  1.068442  2.606394
H    -3.651539  -0.864770  2.838874
C    -2.524224  -1.902371  1.348079
C    -3.216797  -1.275442  0.133036
C    -4.726536  -1.028003  0.296515
C    -5.529791  -2.228264  0.821466
N    -5.123183  -3.471694  0.159553
H    -2.992439  -2.877080  1.557464
H    -1.474033  -2.117924  1.077374
H    -3.058594  -1.973457  -0.699139
H    -2.718549  -0.337331  -0.155946
H    -5.115809  -0.732696  -0.689171
H    -4.924814  -0.158880  0.946418
H    -6.604074  -1.988937  0.729157
H    -5.352186  -2.364647  1.903613
H    -5.353928  -3.439000  -0.835566
H    -5.645982  -4.262791  0.536327
N    -2.803323  -2.036906  4.864064
C    -2.458987  -2.802584  6.063351
H    -3.739775  -1.640546  4.826877
H    -3.223623  -3.569298  6.232879
H    -2.423658  -2.133027  6.931604
H    -1.485401  -3.276418  5.923159
Ca    0.852332  -2.104527  2.492355
