34
Energy: -36753.4777882 eV PBE+vdW (tier 2 basis)
C    -0.417788  0.728827  0.258961
C    -0.262197  0.331851  1.686441
O    0.902575  0.350659  2.214854
H    -1.422586  1.078246  0.014192
H    -0.159249  -0.108207  -0.408190
H    0.313673  1.522883  0.059380
N    -1.304640  -0.012021  2.484538
C    -2.317606  -1.047947  2.213211
C    -1.612169  -2.417040  2.400506
O    -0.330695  -2.489474  2.373053
H    -1.033961  0.008819  3.469470
H    -3.063925  -0.941661  3.015695
C    -3.058867  -0.947282  0.867915
C    -3.921041  0.320562  0.756874
C    -4.465444  0.555636  -0.656989
C    -5.480595  -0.486257  -1.141667
N    -5.875301  -0.190861  -2.511331
H    -3.698336  -1.835041  0.780124
H    -2.350196  -1.024754  0.031484
H    -3.336529  1.199248  1.070232
H    -4.753308  0.249882  1.476378
H    -3.640124  0.601857  -1.386420
H    -4.940046  1.548430  -0.677106
H    -6.322190  -0.528135  -0.418057
H    -5.024486  -1.489976  -1.148220
H    -6.433838  -0.938210  -2.919748
H    -6.420112  0.669055  -2.576532
N    -2.318367  -3.514173  2.599720
C    -3.770132  -3.680459  2.724204
H    -1.763615  -4.368275  2.672240
H    -4.251623  -2.742818  3.014377
H    -3.963748  -4.426701  3.502031
H    -4.197331  -4.036395  1.778124
Ca    1.618838  -1.628220  2.636399
