34
Energy: -36754.5826035 eV PBE+vdW (tier 2 basis)
C    -0.385975  0.394434  -0.179425
C    -0.689749  -0.015648  1.225533
O    0.049697  -0.860319  1.808478
H    -0.372342  -0.502189  -0.813998
H    0.625392  0.822362  -0.213819
H    -1.096081  1.117445  -0.593135
N    -1.758681  0.542001  1.821014
C    -2.340390  0.356908  3.177213
C    -1.344448  0.733323  4.289075
O    -0.336577  0.012013  4.552352
H    -2.266909  1.203271  1.240176
H    -3.130410  1.119095  3.205591
C    -3.104529  -0.978239  3.385713
C    -2.390455  -2.347135  3.371932
C    -1.857832  -2.865997  4.722349
C    -1.056268  -4.176802  4.631016
N    -1.822820  -5.267486  4.120470
H    -3.867420  -0.987413  2.594665
H    -3.665670  -0.875435  4.327650
H    -1.628873  -2.374775  2.568322
H    -3.131833  -3.082434  3.028864
H    -2.712892  -3.052901  5.388029
H    -1.274936  -2.101274  5.277244
H    -0.694568  -4.440762  5.633717
H    -0.086746  -3.999582  4.028967
H    -1.450523  -6.182334  4.362945
H    -2.030271  -5.241395  3.125531
N    -1.607482  1.835085  4.977286
C    -0.807107  2.351537  6.088464
H    -2.427281  2.376342  4.714117
H    -0.315637  3.285772  5.789448
H    -0.052452  1.611941  6.363746
H    -1.462762  2.549627  6.943933
Ca    0.553829  -1.757033  3.686537
