34
Energy: -36755.0660117 eV PBE+vdW (tier 2 basis)
C    -0.529436  -0.632467  -0.187899
C    -0.418606  -0.530911  1.297230
O    0.693838  -0.770584  1.873176
H    -0.179556  -1.618317  -0.519939
H    0.145046  0.111813  -0.636093
H    -1.544290  -0.461577  -0.561160
N    -1.496053  -0.172577  2.000505
C    -1.562483  0.184824  3.434793
C    -1.597134  -1.097214  4.295784
O    -0.512034  -1.794398  4.352663
H    -2.348864  -0.005583  1.470171
H    -0.612798  0.685478  3.686214
C    -2.724617  1.159213  3.630495
C    -2.801585  1.773127  5.037780
C    -4.208268  2.268529  5.411649
C    -5.325133  1.241051  5.209275
N    -4.949557  -0.103091  5.730981
H    -3.659754  0.633413  3.381828
H    -2.620824  1.961664  2.885499
H    -2.093658  2.610379  5.110668
H    -2.470589  1.041984  5.790161
H    -4.466605  3.165467  4.830185
H    -4.187352  2.591717  6.462838
H    -5.557763  1.117950  4.141965
H    -6.246469  1.613658  5.680558
H    -4.820655  -0.041296  6.745811
H    -5.743835  -0.736230  5.604677
N    -2.675853  -1.464785  4.935705
C    -2.711486  -2.690557  5.735011
H    -3.557166  -0.831164  5.076322
H    -2.476975  -3.564430  5.116227
H    -3.720936  -2.800699  6.141029
H    -1.993901  -2.642297  6.564485
Ca    1.412355  -1.884092  3.520405
