34
Energy: -36752.2529578 eV PBE+vdW (tier 2 basis)
C    0.664987  1.108796  0.962634
C    0.381886  -0.268408  1.453028
O    1.327716  -1.158295  1.491642
H    0.644637  1.813505  1.809037
H    -0.102355  1.455413  0.257061
H    1.647333  1.156080  0.486433
N    -0.826020  -0.602490  1.871592
C    -2.034661  0.252048  1.829679
C    -1.973714  1.474762  2.785289
O    -2.393073  2.554483  2.380280
H    -0.947061  -1.562590  2.198051
H    -2.097223  0.686869  0.823010
C    -3.289503  -0.601616  2.087188
C    -4.605618  0.147714  1.749510
C    -5.640449  0.174272  2.879808
C    -5.268239  1.054334  4.103507
N    -5.173088  2.470784  3.864077
H    -3.291000  -0.932422  3.138742
H    -3.217780  -1.511317  1.471851
H    -5.060085  -0.329591  0.871787
H    -4.380695  1.178130  1.438195
H    -5.829077  -0.846927  3.248524
H    -6.596198  0.535465  2.474324
H    -4.310388  0.708986  4.527945
H    -6.024556  0.888360  4.882730
H    -6.045285  2.977446  3.746305
H    -4.420803  2.809287  3.267828
N    -1.487737  1.269084  4.032657
C    -1.527557  2.320452  5.051635
H    -1.303205  0.320459  4.340453
H    -0.853136  2.049446  5.869179
H    -2.543747  2.457620  5.446467
H    -1.201692  3.266755  4.608020
Ca    3.015657  -2.280849  1.274408
