34
Energy: -36753.8297194 eV PBE+vdW (tier 2 basis)
C    0.180959  2.624360  0.678288
C    0.284432  1.334822  1.417741
O    1.317554  1.072438  2.125100
H    -0.043769  3.452571  1.368062
H    -0.570633  2.605075  -0.116188
H    1.166539  2.841323  0.244808
N    -0.710473  0.426566  1.370999
C    -2.120383  0.774540  1.527577
C    -2.309204  1.281665  2.988591
O    -1.324637  1.279844  3.809263
H    -0.460443  -0.500713  1.720563
H    -2.358519  1.604579  0.844599
C    -3.013597  -0.436004  1.189245
C    -2.799395  -0.942487  -0.236969
C    -3.668264  -2.156060  -0.582084
C    -3.180341  -2.845150  -1.864677
N    -1.811326  -3.348251  -1.687182
H    -4.066212  -0.147564  1.335019
H    -2.819584  -1.240562  1.919924
H    -1.750024  -1.246945  -0.384849
H    -2.996741  -0.125089  -0.950602
H    -4.722947  -1.863340  -0.695330
H    -3.633167  -2.886029  0.244455
H    -3.173222  -2.116971  -2.689235
H    -3.906712  -3.626217  -2.145574
H    -1.821885  -4.266940  -1.242696
H    -1.354393  -3.476550  -2.589062
N    -3.508141  1.698756  3.340834
C    -3.912372  2.190523  4.659635
H    -4.236439  1.660499  2.629305
H    -4.702681  1.545932  5.062802
H    -4.297808  3.212693  4.564898
H    -3.052719  2.180971  5.331939
Ca    0.773645  1.032649  4.201541
