34
Energy: -36755.5924535 eV PBE+vdW (tier 2 basis)
C    -2.921980  -0.493434  0.409289
C    -2.516824  0.517325  1.433033
O    -1.530372  0.297149  2.191128
H    -2.067069  -0.698118  -0.249134
H    -3.779150  -0.186544  -0.198485
H    -3.162727  -1.436572  0.919152
N    -3.238383  1.645956  1.525344
C    -3.082361  2.796008  2.444382
C    -1.734545  3.517771  2.211216
O    -0.672236  3.057882  2.723567
H    -4.011091  1.722709  0.870388
H    -3.891421  3.471580  2.139033
C    -3.262401  2.526887  3.960099
C    -4.247888  1.430172  4.400699
C    -3.596039  0.108198  4.847140
C    -2.576071  0.248947  5.995834
N    -1.154004  -0.040798  5.566279
H    -3.561881  3.495379  4.384685
H    -2.279026  2.342177  4.421611
H    -4.982228  1.223685  3.609353
H    -4.835785  1.822156  5.241621
H    -3.118241  -0.402060  3.998207
H    -4.398880  -0.566065  5.171647
H    -2.839031  -0.426063  6.820413
H    -2.582275  1.265095  6.412710
H    -0.574339  0.027526  6.412292
H    -1.118977  -1.043543  5.340832
N    -1.749043  4.626441  1.486715
C    -0.579428  5.450633  1.177260
H    -2.643263  4.937471  1.115366
H    -0.807883  6.498230  1.402735
H    -0.327392  5.358960  0.113351
H    0.264690  5.118190  1.785271
Ca    -0.150455  1.114670  3.616966
