34
Energy: -36752.9758526 eV PBE+vdW (tier 2 basis)
C    -0.661351  1.361553  -0.587420
C    -0.393993  1.325746  0.876966
O    0.795419  1.742356  1.296414
H    -0.196435  2.248642  -1.032787
H    -1.732659  1.362697  -0.810561
H    -0.214269  0.476966  -1.066003
N    -1.232207  0.916861  1.773971
C    -2.634837  0.482622  1.688286
C    -3.026437  0.537640  3.201598
O    -2.161755  0.990913  3.990432
H    -1.090727  1.050140  2.841047
H    -3.213238  1.274588  1.184810
C    -2.867381  -0.844334  0.946680
C    -2.285559  -2.126544  1.571429
C    -3.156425  -2.878502  2.596774
C    -4.581219  -3.207681  2.121021
N    -5.551465  -2.106195  2.385878
H    -2.471156  -0.724930  -0.071639
H    -3.953340  -0.941493  0.811893
H    -1.298346  -1.917804  2.015653
H    -2.087222  -2.820482  0.741114
H    -3.205184  -2.344185  3.556925
H    -2.643226  -3.824787  2.819059
H    -4.914830  -4.141687  2.595360
H    -4.574901  -3.404298  1.039066
H    -6.298033  -2.127578  1.689100
H    -6.022625  -2.288607  3.274901
N    -4.247241  0.157808  3.537260
C    -4.708244  0.213509  4.922476
H    -4.784253  -0.480246  2.898079
H    -4.314816  -0.628011  5.510949
H    -5.801942  0.176402  4.926852
H    -4.377044  1.145902  5.389742
Ca    2.498333  2.424154  2.012254
