34
Energy: -36752.678422 eV PBE+vdW (tier 2 basis)
C    -0.694374  0.018007  -0.319172
C    -0.719448  0.307264  1.152860
O    0.108447  1.078304  1.677960
H    0.279579  -0.422218  -0.572562
H    -0.765168  0.964219  -0.870284
H    -1.487103  -0.659605  -0.653562
N    -1.698512  -0.297648  1.885175
C    -1.779512  -0.391049  3.351044
C    -1.957407  0.954838  4.050574
O    -2.826579  1.045513  5.026697
H    -2.329971  -0.907688  1.377766
H    -2.704525  -0.951239  3.544779
C    -0.606851  -1.146902  4.031517
C    -0.408519  -2.592878  3.532331
C    0.601161  -2.796081  2.388963
C    2.073031  -2.573272  2.760586
N    2.393682  -1.171318  3.025548
H    -0.832617  -1.159250  5.110050
H    0.330893  -0.584281  3.913930
H    -1.379471  -3.023715  3.235781
H    -0.075705  -3.198110  4.388557
H    0.346701  -2.176181  1.515370
H    0.507816  -3.835426  2.042113
H    2.698936  -2.995254  1.951128
H    2.315028  -3.149926  3.665521
H    2.353851  -0.586409  2.190710
H    3.307646  -1.054612  3.460146
N    -1.198836  1.956571  3.717956
C    -1.215992  3.276791  4.333354
H    -0.514671  1.717305  2.907849
H    -0.537836  3.926427  3.773480
H    -0.868097  3.226629  5.374524
H    -2.223238  3.713293  4.299180
Ca    -4.110645  1.246089  6.546701
