34
Energy: -36755.4044007 eV PBE+vdW (tier 2 basis)
C    0.141774  0.512419  0.962771
C    -0.729382  -0.482602  1.650043
O    -0.357674  -1.685266  1.800823
H    -0.293432  1.516113  0.922008
H    0.347329  0.165109  -0.059062
H    1.108767  0.556936  1.482404
N    -1.926776  -0.084696  2.126754
C    -2.788255  -1.001340  2.873972
C    -3.605538  -1.879756  1.899477
O    -3.123991  -3.010240  1.579294
H    -2.200984  0.887496  2.009126
H    -2.077650  -1.706746  3.320363
C    -3.533370  -0.391989  4.080540
C    -3.189644  -1.204469  5.345689
C    -3.493314  -2.722800  5.224691
C    -2.361052  -3.679402  5.600069
N    -1.136874  -3.596995  4.707888
H    -4.620677  -0.384845  3.921454
H    -3.231551  0.655018  4.221162
H    -3.730820  -0.781202  6.200540
H    -2.123367  -1.035949  5.572398
H    -3.853229  -2.978794  4.215764
H    -4.335653  -2.975180  5.883005
H    -2.726399  -4.712178  5.537515
H    -2.051962  -3.509409  6.641922
H    -0.489350  -4.310307  5.066697
H    -0.650574  -2.721119  4.938373
N    -4.748527  -1.427466  1.414142
C    -5.598368  -2.129676  0.449407
H    -5.075372  -0.521862  1.743373
H    -5.699681  -1.524917  -0.459661
H    -6.591222  -2.291808  0.885295
H    -5.141397  -3.090672  0.204231
Ca    -1.132784  -3.692408  2.207534
