34
Energy: -36755.0873129 eV PBE+vdW (tier 2 basis)
C    -0.769432  1.999344  0.644343
C    -0.693527  0.556170  0.998607
O    0.254238  0.094623  1.700829
H    -0.663445  2.625754  1.538549
H    -1.671120  2.271466  0.088678
H    0.103451  2.218532  0.008252
N    -1.642071  -0.317048  0.559318
C    -3.082577  -0.101662  0.621520
C    -3.439640  0.431510  2.037006
O    -2.628935  0.281523  3.003823
H    -1.368186  -1.294985  0.652837
H    -3.388238  0.657729  -0.113431
C    -3.812782  -1.428895  0.253405
C    -3.289572  -2.728079  0.892562
C    -3.515228  -2.892599  2.409992
C    -2.485061  -3.758051  3.132808
N    -1.092196  -3.160014  3.133395
H    -3.748049  -1.526115  -0.838935
H    -4.880593  -1.305879  0.483467
H    -2.225191  -2.875790  0.631575
H    -3.780763  -3.558065  0.366123
H    -4.499662  -3.352331  2.576498
H    -3.572757  -1.919337  2.916585
H    -2.446085  -4.766587  2.696277
H    -2.780581  -3.874166  4.182914
H    -0.541210  -3.717651  3.797703
H    -0.651474  -3.392719  2.235262
N    -4.605376  1.038059  2.175548
C    -5.150000  1.580376  3.422009
H    -5.183096  1.137787  1.342724
H    -6.047648  1.019927  3.710725
H    -5.418322  2.632586  3.273037
H    -4.396533  1.501475  4.208202
Ca    -0.735167  -0.734737  3.504228
