34
Energy: -36754.5128884 eV PBE+vdW (tier 2 basis)
C    0.060392  -0.486922  0.200794
C    -0.009915  -0.269741  1.670954
O    0.998367  -0.527477  2.404546
H    -0.085037  -1.572289  0.046386
H    1.050116  -0.219872  -0.183370
H    -0.718040  0.046316  -0.355691
N    -1.168330  0.147527  2.201817
C    -1.634093  0.020244  3.603601
C    -1.007093  1.071630  4.527919
O    0.233345  1.022351  4.819313
H    -1.904860  0.330449  1.525486
H    -2.712105  0.223178  3.543694
C    -1.464959  -1.408492  4.171437
C    -2.078948  -2.480316  3.266844
C    -1.551273  -3.898462  3.511241
C    -1.729430  -4.770654  2.260130
N    -0.924604  -4.243028  1.138290
H    -1.908574  -1.422239  5.178269
H    -0.393932  -1.638050  4.312261
H    -1.846664  -2.252728  2.215985
H    -3.175076  -2.460937  3.366285
H    -2.046134  -4.369629  4.372005
H    -0.474204  -3.858874  3.754477
H    -2.786644  -4.760036  1.958151
H    -1.487691  -5.816058  2.509005
H    0.015829  -4.639753  1.174481
H    -1.316698  -4.562868  0.252334
N    -1.803033  1.988666  5.047669
C    -1.408509  3.029687  5.998323
H    -2.780681  1.974716  4.765233
H    -1.474486  4.013598  5.517431
H    -0.383908  2.849121  6.329377
H    -2.086485  3.005623  6.859103
Ca    1.954357  -0.068681  4.215223
