34
Energy: -36754.2571587 eV PBE+vdW (tier 2 basis)
C    -0.010212  -0.994877  0.133147
C    -0.223651  -0.501727  1.523128
O    0.689072  0.160358  2.120933
H    0.898446  -1.610520  0.096720
H    0.165823  -0.129554  -0.522141
H    -0.855306  -1.571628  -0.256072
N    -1.384448  -0.752901  2.136060
C    -1.800361  -0.187850  3.431561
C    -1.051845  -0.879121  4.591080
O    0.051913  -0.342846  4.970441
H    -2.094117  -1.255707  1.606420
H    -1.413204  0.842672  3.460101
C    -3.331108  -0.087085  3.516128
C    -3.913570  0.999813  2.603145
C    -3.464691  2.431896  2.911007
C    -4.402509  3.469611  2.262285
N    -5.761808  3.310464  2.773729
H    -3.595177  0.135323  4.561429
H    -3.791840  -1.056887  3.279231
H    -5.007710  0.973797  2.717532
H    -3.715564  0.763105  1.543999
H    -2.435889  2.628655  2.560331
H    -3.467651  2.595233  4.003196
H    -4.421772  3.303487  1.174911
H    -3.977443  4.477023  2.415908
H    -6.455681  3.644577  2.108026
H    -5.903471  3.833400  3.637220
N    -1.469182  -1.967435  5.210586
C    -2.639797  -2.820365  4.972805
H    -0.863249  -2.251899  5.981943
H    -3.533406  -2.405027  5.453379
H    -2.428256  -3.799947  5.411517
H    -2.817356  -2.955256  3.902493
Ca    1.622005  0.660983  3.951159
