34
Energy: -36752.8226188 eV PBE+vdW (tier 2 basis)
C    -0.945964  -0.486116  -0.299187
C    -1.068246  0.392175  0.898346
O    -0.785635  1.665772  0.764102
H    -1.401727  -1.469296  -0.153962
H    0.118976  -0.630414  -0.534625
H    -1.408372  0.003427  -1.165131
N    -1.435148  -0.035016  2.073100
C    -1.889078  -1.355615  2.523896
C    -2.600491  -0.987782  3.865621
O    -2.446398  0.160307  4.311498
H    -1.577534  0.617162  2.890347
H    -2.627733  -1.749050  1.809987
C    -0.745571  -2.375250  2.715535
C    0.278469  -2.019421  3.797292
C    1.364914  -3.091793  3.928624
C    2.372494  -2.790049  5.043777
N    3.411547  -3.796082  5.093971
H    -0.242334  -2.523321  1.747355
H    -1.211923  -3.345020  2.948623
H    -0.233034  -1.888858  4.764260
H    0.746908  -1.047719  3.568008
H    1.914211  -3.200297  2.980887
H    0.892317  -4.068543  4.125114
H    1.828053  -2.690643  6.006672
H    2.855077  -1.817654  4.862140
H    3.095514  -4.738527  5.312342
H    4.226149  -3.550481  5.650071
N    -3.314856  -1.952625  4.451360
C    -4.019576  -1.784050  5.721660
H    -3.391662  -2.851030  3.984890
H    -3.653091  -2.511064  6.456095
H    -5.097021  -1.928500  5.578352
H    -3.834494  -0.771409  6.088521
Ca    -0.469807  3.629553  0.503924
