34
Energy: -36754.3456509 eV PBE+vdW (tier 2 basis)
C    -0.353481  0.027240  -0.112406
C    -0.391605  -0.064886  1.376377
O    0.639055  -0.456357  2.013841
H    -0.148147  -0.973954  -0.518254
H    0.482906  0.670249  -0.417286
H    -1.281388  0.406901  -0.551891
N    -1.522704  0.269110  2.008427
C    -1.876592  0.120557  3.440164
C    -1.098744  1.091775  4.339826
O    0.143271  0.913587  4.568143
H    -2.285549  0.562697  1.404146
H    -2.937133  0.404584  3.481188
C    -1.778023  -1.326916  3.967621
C    -2.715230  -2.312156  3.262903
C    -2.558738  -3.735920  3.804495
C    -3.561460  -4.731574  3.200084
N    -3.368013  -6.050898  3.787993
H    -2.008075  -1.297377  5.043999
H    -0.741783  -1.701508  3.886302
H    -2.528914  -2.304228  2.176768
H    -3.755849  -1.974540  3.403016
H    -2.686959  -3.748231  4.897671
H    -1.534284  -4.097226  3.607694
H    -3.479940  -4.708176  2.094594
H    -4.580962  -4.396614  3.441917
H    -4.216946  -6.610900  3.745205
H    -2.635467  -6.578985  3.315857
N    -1.772590  2.073555  4.912439
C    -1.228807  3.051732  5.856487
H    -2.760801  2.159701  4.684859
H    -0.208516  2.769630  6.123688
H    -1.856012  3.070501  6.755151
H    -1.230128  4.048300  5.397677
Ca    1.717606  -0.296674  3.813303
