34
Energy: -36755.0511797 eV PBE+vdW (tier 2 basis)
C    0.823441  0.228443  0.498895
C    -0.135600  0.930269  1.404678
O    0.299070  1.372155  2.534251
H    1.386088  -0.522283  1.067037
H    1.555794  0.958805  0.124576
H    0.330957  -0.255691  -0.347837
N    -1.391957  1.094783  1.022980
C    -2.377312  1.889261  1.774288
C    -2.857944  1.102881  3.014478
O    -2.166705  1.138882  4.087726
H    -1.678179  0.808998  -0.007416
H    -1.866900  2.777824  2.184446
C    -3.514131  2.366506  0.856788
C    -3.148976  3.476004  -0.148150
C    -2.227698  3.137155  -1.333549
C    -2.637650  1.906429  -2.150987
N    -2.051647  0.646277  -1.592852
H    -4.307102  2.768112  1.504418
H    -3.953245  1.506297  0.322819
H    -2.726982  4.329541  0.405283
H    -4.103147  3.839317  -0.557500
H    -1.179221  3.028181  -1.012947
H    -2.231468  4.011309  -1.998717
H    -2.332656  2.030789  -3.198294
H    -3.731334  1.800391  -2.160728
H    -1.167137  0.463796  -2.073143
H    -2.645847  -0.150844  -1.832032
N    -3.976113  0.407413  2.941803
C    -4.564576  -0.389760  4.018575
H    -4.484017  0.444644  2.060640
H    -4.455067  -1.458862  3.796517
H    -5.630269  -0.149239  4.100624
H    -4.062307  -0.155321  4.959411
Ca    -0.130159  1.555537  4.561920
