34
Energy: -36755.4970955 eV PBE+vdW (tier 2 basis)
C    0.015970  -0.802509  0.853408
C    -0.481988  -0.856520  2.261582
O    0.036493  -1.654507  3.091934
H    -0.506017  -0.070718  0.228641
H    -0.087219  -1.798924  0.402174
H    1.089125  -0.568426  0.863068
N    -1.496534  -0.045110  2.603912
C    -2.187696  0.097990  3.904587
C    -1.205189  0.592547  4.990186
O    -0.476013  -0.240734  5.607454
H    -1.850356  0.549087  1.859988
H    -2.919761  0.889735  3.713052
C    -2.973620  -1.127216  4.435948
C    -3.624543  -2.075693  3.414022
C    -2.865777  -3.394151  3.174597
C    -2.637170  -4.243074  4.442312
N    -1.180413  -4.333555  4.841235
H    -3.741177  -0.704552  5.099529
H    -2.338648  -1.708839  5.122707
H    -3.781544  -1.567037  2.452330
H    -4.632227  -2.322258  3.774995
H    -1.899756  -3.209384  2.682378
H    -3.445086  -3.986760  2.455051
H    -3.025507  -5.258783  4.293004
H    -3.178026  -3.827500  5.303223
H    -0.711336  -4.876316  4.104454
H    -1.138919  -4.961067  5.654242
N    -1.139006  1.884322  5.278349
C    -1.895213  2.995335  4.688242
H    -0.475227  2.117404  6.017382
H    -1.741575  3.050038  3.604085
H    -1.521968  3.924416  5.127446
H    -2.965075  2.916954  4.917933
Ca    0.182006  -2.285760  5.141896
