34
Energy: -36755.0218046 eV PBE+vdW (tier 2 basis)
C    0.108452  -0.697139  0.840079
C    0.256943  0.444089  1.787323
O    1.397516  0.910347  2.085775
H    0.292255  -0.360145  -0.191440
H    -0.872326  -1.178886  0.893336
H    0.891106  -1.432214  1.069869
N    -0.838463  1.021317  2.347328
C    -2.040178  1.386557  1.610154
C    -1.618971  2.216932  0.359323
O    -0.448796  2.703786  0.265015
H    -0.618915  1.645789  3.122794
H    -2.539719  0.479152  1.238618
C    -3.042001  2.133664  2.544008
C    -2.446935  3.038828  3.639741
C    -1.491447  4.167073  3.172361
C    -0.141564  4.179441  3.908264
N    0.973859  4.667509  3.022076
H    -3.660199  1.371282  3.035811
H    -3.725607  2.716361  1.910584
H    -1.951052  2.414433  4.401782
H    -3.299927  3.470221  4.178616
H    -1.976379  5.144032  3.296177
H    -1.306955  4.082097  2.091682
H    0.142144  3.169693  4.247977
H    -0.202558  4.789815  4.819945
H    0.706869  5.589483  2.656146
H    1.782705  4.873625  3.621309
N    -2.526995  2.370343  -0.588707
C    -2.358231  3.125223  -1.831874
H    -3.432882  1.927510  -0.444856
H    -2.571982  2.472410  -2.686187
H    -1.330985  3.489130  -1.895957
H    -3.053156  3.973653  -1.847827
Ca    1.482037  2.977065  1.296592
