34
Energy: -36752.5580098 eV PBE+vdW (tier 2 basis)
C    0.071045  0.521685  0.208764
C    -0.055828  -0.011788  1.592288
O    1.044992  -0.410620  2.176702
H    -0.882054  0.777781  -0.250697
H    0.574262  -0.218232  -0.423676
H    0.696497  1.427370  0.252783
N    -1.146525  0.048959  2.345702
C    -2.534021  -0.070049  1.875284
C    -2.576817  -1.396074  1.040789
O    -1.530502  -1.845744  0.562469
H    -0.996465  -0.271605  3.301208
H    -3.122904  -0.195851  2.793772
C    -3.084622  1.170289  1.127357
C    -4.615669  1.316145  1.143168
C    -5.257539  1.427217  2.529646
C    -6.757769  1.747032  2.453615
N    -7.357432  1.769048  3.772851
H    -2.756491  1.161377  0.080065
H    -2.635432  2.056761  1.599425
H    -5.082180  0.499363  0.569024
H    -4.843673  2.225589  0.567158
H    -4.748448  2.213365  3.112218
H    -5.151108  0.496081  3.111204
H    -7.272926  0.976145  1.861680
H    -6.892930  2.701138  1.904688
H    -7.068180  2.548728  4.360095
H    -8.370813  1.684815  3.777300
N    -3.789777  -1.951122  0.901525
C    -4.048489  -3.150126  0.106718
H    -4.578243  -1.514422  1.367164
H    -4.475705  -3.938309  0.738196
H    -3.101795  -3.496186  -0.315591
H    -4.746980  -2.923348  -0.707924
Ca    2.820891  -1.281534  2.523899
