34
Energy: -36755.3791627 eV PBE+vdW (tier 2 basis)
C    -0.034407  1.036010  0.891779
C    -0.697461  0.830813  2.210514
O    -0.416421  1.562618  3.205911
H    -0.385963  0.347296  0.116829
H    1.051267  0.919329  1.013867
H    -0.206154  2.070387  0.563725
N    -1.617318  -0.148113  2.336794
C    -2.349535  -0.342554  3.585418
C    -1.527769  -1.113937  4.638560
O    -0.972345  -0.407306  5.541158
H    -1.853307  -0.702002  1.517478
H    -2.368354  0.660130  4.021909
C    -3.833253  -0.698772  3.437530
C    -4.698818  0.546195  3.115330
C    -4.265491  1.864882  3.788763
C    -4.108127  1.827250  5.320746
N    -2.949122  2.683064  5.778290
H    -4.156305  -1.145041  4.389427
H    -3.998968  -1.475936  2.679089
H    -5.736320  0.308839  3.386725
H    -4.711633  0.720892  2.030763
H    -4.997380  2.638070  3.518708
H    -3.320827  2.214978  3.336138
H    -3.915710  0.811755  5.693171
H    -5.034723  2.161647  5.805974
H    -3.080584  3.617488  5.371454
H    -3.073859  2.845191  6.785468
N    -1.389380  -2.428621  4.632291
C    -1.959231  -3.409505  3.706749
H    -0.831022  -2.796700  5.403879
H    -2.057972  -2.990520  2.701583
H    -2.938024  -3.758839  4.058859
H    -1.278948  -4.264931  3.650498
Ca    -0.648292  1.768878  5.373475
