34
Energy: -36753.90054 eV PBE+vdW (tier 2 basis)
C    -1.571037  0.032499  -0.932139
C    -0.565628  0.711280  -0.084919
O    0.487104  1.234736  -0.604463
H    -1.351875  0.239322  -1.984056
H    -2.622843  0.322036  -0.676876
H    -1.534878  -1.058985  -0.780723
N    -0.690628  0.786720  1.262134
C    -1.126630  -0.324230  2.116142
C    -0.163296  -1.517823  1.846283
O    0.895809  -1.355199  1.146251
H    -0.025667  1.427172  1.693507
H    -0.902262  0.006498  3.143882
C    -2.635669  -0.635402  2.061042
C    -3.480860  0.585722  2.453641
C    -4.977480  0.439310  2.124411
C    -5.384900  1.013816  0.766638
N    -4.712444  0.342262  -0.369660
H    -2.853621  -1.452604  2.767101
H    -2.917730  -0.999233  1.066209
H    -3.091449  1.478922  1.940965
H    -3.349984  0.769559  3.530578
H    -5.563790  0.966369  2.889307
H    -5.287423  -0.616566  2.198155
H    -5.107555  2.077613  0.728750
H    -6.483197  0.972199  0.680171
H    -4.959178  0.829471  -1.234094
H    -5.096598  -0.600190  -0.480821
N    -0.438530  -2.684681  2.390768
C    0.412572  -3.875972  2.298553
H    -1.302614  -2.760123  2.922342
H    -0.043395  -4.670676  2.894096
H    1.412514  -3.659382  2.691677
H    0.492587  -4.208208  1.256754
Ca    2.084575  -0.111464  -0.161438
