34
Energy: -36753.6335393 eV PBE+vdW (tier 2 basis)
C    -1.464753  -1.159959  2.631146
C    -2.749791  -1.193976  3.385947
O    -3.248141  -2.315862  3.744887
H    -0.819564  -0.336969  2.954118
H    -1.654369  -1.030095  1.553336
H    -0.951157  -2.116972  2.767788
N    -3.431010  -0.069508  3.705951
C    -3.741229  1.027766  2.774055
C    -4.624191  0.429649  1.645398
O    -4.997517  -0.797803  1.681673
H    -4.170547  -0.245746  4.386790
H    -4.394448  1.703731  3.348699
C    -2.534088  1.877903  2.303732
C    -2.863544  3.315627  1.869663
C    -3.676743  4.151218  2.861769
C    -3.541947  5.658776  2.568103
N    -2.140019  6.063567  2.661532
H    -1.986311  1.364708  1.502022
H    -1.861480  1.937658  3.171501
H    -3.321963  3.352423  0.862391
H    -1.900647  3.833558  1.733236
H    -3.310159  3.964857  3.886127
H    -4.748981  3.886582  2.857340
H    -4.219570  6.211665  3.240862
H    -3.891172  5.858682  1.543839
H    -1.952257  6.889614  2.096571
H    -1.883298  6.300076  3.619625
N    -5.006624  1.223947  0.670102
C    -5.877797  0.835291  -0.443088
H    -4.644552  2.179015  0.688488
H    -6.079303  1.723952  -1.046380
H    -6.825270  0.436969  -0.062659
H    -5.387656  0.080139  -1.069370
Ca    -5.002690  -2.741056  2.583287
