34
Energy: -36754.7954485 eV PBE+vdW (tier 2 basis)
C    0.526111  1.462339  -0.330135
C    0.443198  0.948439  1.069686
O    1.390311  1.188152  1.889215
H    1.403285  1.007956  -0.813695
H    0.697620  2.546425  -0.317214
H    -0.362845  1.243280  -0.930262
N    -0.629248  0.235015  1.424621
C    -0.888291  -0.540430  2.655929
C    -1.110302  0.303937  3.913432
O    -0.259477  1.181663  4.308741
H    -1.329052  0.121866  0.696226
H    -1.857419  -1.011925  2.457982
C    0.132968  -1.692641  2.891049
C    -0.429114  -3.054876  2.429395
C    -1.079565  -3.937282  3.516054
C    -2.051617  -3.313294  4.520868
N    -3.175334  -2.544335  3.914354
H    0.403490  -1.736119  3.957309
H    1.058920  -1.462376  2.348583
H    0.384556  -3.643720  1.985754
H    -1.134572  -2.881752  1.600648
H    -0.280051  -4.398234  4.115413
H    -1.578689  -4.775694  3.006779
H    -1.508705  -2.630957  5.197089
H    -2.431492  -4.124930  5.157663
H    -3.448379  -2.963424  3.021945
H    -4.006465  -2.638305  4.503400
N    -2.192173  -0.002562  4.586471
C    -2.578795  0.577626  5.866971
H    -2.733138  -0.854453  4.226513
H    -3.645396  0.827693  5.837047
H    -1.998178  1.481683  6.065719
H    -2.412218  -0.147936  6.674685
Ca    1.660057  1.892167  3.855763
