34
Energy: -36754.5339563 eV PBE+vdW (tier 2 basis)
C    0.267281  -0.666626  0.189185
C    0.181061  0.080018  1.476669
O    0.484934  1.319188  1.523449
H    -0.437507  -0.212525  -0.522872
H    0.034614  -1.731595  0.289325
H    1.271226  -0.550659  -0.239467
N    -0.230308  -0.558873  2.574694
C    -0.565803  0.059229  3.875049
C    0.728421  0.398688  4.645025
O    1.369943  1.461200  4.337525
H    -0.474502  -1.542245  2.473137
H    -1.038336  1.030957  3.657725
C    -1.593987  -0.804446  4.609180
C    -2.218635  -0.106878  5.823722
C    -3.346728  -0.922580  6.476022
C    -4.441774  -1.386739  5.505246
N    -4.842838  -0.303456  4.593911
H    -1.170143  -1.791067  4.874687
H    -2.403967  -0.999876  3.889667
H    -2.631069  0.852961  5.478420
H    -1.461466  0.128166  6.588288
H    -3.792954  -0.297656  7.264013
H    -2.936261  -1.804587  6.991225
H    -5.271569  -1.807199  6.099021
H    -4.069042  -2.218195  4.886276
H    -5.521387  -0.653275  3.916544
H    -5.331421  0.429597  5.112431
N    1.142181  -0.414126  5.593311
C    2.336902  -0.244170  6.420323
H    0.549917  -1.218879  5.792496
H    2.045236  -0.226093  7.477191
H    2.829715  0.694088  6.158631
H    3.021977  -1.084371  6.253479
Ca    1.445668  2.792892  2.681113
