34
Energy: -36754.2431324 eV PBE+vdW (tier 2 basis)
C    -1.261178  2.297526  -0.034089
C    -1.291045  2.179201  1.450785
O    -1.272300  3.224583  2.183759
H    -2.155460  2.849861  -0.358047
H    -1.236621  1.329049  -0.543589
H    -0.391288  2.893542  -0.340011
N    -1.353528  0.967304  2.008628
C    -1.575050  0.706103  3.442125
C    -0.296486  1.031891  4.246474
O    -0.205396  2.210600  4.746724
H    -1.429214  0.166862  1.383930
H    -2.296292  1.462070  3.792399
C    -2.219498  -0.671803  3.676983
C    -3.730225  -0.713373  3.415901
C    -4.192103  -0.522176  1.966479
C    -5.644747  -1.002316  1.773604
N    -5.754314  -2.425695  2.086686
H    -2.033613  -0.948984  4.725549
H    -1.715390  -1.435442  3.064707
H    -4.235822  0.015084  4.071751
H    -4.087193  -1.706186  3.730243
H    -3.548004  -1.111066  1.286783
H    -4.125486  0.530701  1.644448
H    -5.974296  -0.738250  0.753657
H    -6.295909  -0.444894  2.463247
H    -6.689121  -2.667913  2.408614
H    -5.564697  -3.006015  1.270388
N    0.693093  0.181303  4.444745
C    0.889296  -1.189438  3.959306
H    1.437407  0.553368  5.036909
H    1.964832  -1.390141  3.960367
H    0.520028  -1.300528  2.936528
H    0.394648  -1.913809  4.617323
Ca    -0.747134  4.132182  4.018678
