34
Energy: -36752.641054 eV PBE+vdW (tier 2 basis)
C    -0.975569  0.641056  0.770231
C    -0.295989  0.269682  2.041683
O    0.925252  0.708355  2.215966
H    -1.946316  0.163256  0.641712
H    -0.340373  0.382822  -0.083680
H    -1.124141  1.732867  0.778702
N    -0.903401  -0.269598  3.093427
C    -1.913557  -1.335506  3.010408
C    -1.307922  -2.398174  2.025895
O    -0.339324  -2.090323  1.317780
H    -0.315065  -0.313201  3.923569
H    -1.945252  -1.760928  4.023704
C    -3.349388  -0.904220  2.654804
C    -3.871509  0.234957  3.533988
C    -5.324236  0.635952  3.235047
C    -6.361757  -0.481503  3.400408
N    -6.255581  -1.133706  4.700014
H    -3.980573  -1.792804  2.802304
H    -3.440059  -0.654450  1.588022
H    -3.231921  1.122388  3.409646
H    -3.788922  -0.067045  4.589514
H    -5.408527  1.032261  2.211359
H    -5.587737  1.472620  3.900392
H    -6.230522  -1.253363  2.626365
H    -7.363090  -0.046400  3.218358
H    -6.432490  -0.499995  5.479539
H    -6.872255  -1.938945  4.792671
N    -1.912612  -3.591691  2.019176
C    -1.515318  -4.702561  1.155797
H    -2.681254  -3.749484  2.663088
H    -1.029974  -5.493238  1.741750
H    -0.815030  -4.327912  0.405041
H    -2.398496  -5.116425  0.656440
Ca    2.877853  1.010086  1.893750
