34
Energy: -36754.1424843 eV PBE+vdW (tier 2 basis)
C    -0.567267  0.687875  -0.109303
C    -0.407047  0.516342  1.362300
O    0.705196  0.782524  1.927094
H    0.202005  0.105455  -0.633620
H    -0.391430  1.744315  -0.359198
H    -1.556753  0.394702  -0.474418
N    -1.445918  0.089153  2.087848
C    -1.491248  0.033033  3.560318
C    -0.642580  -1.148709  4.082464
O    0.588262  -0.904062  4.350424
H    -2.322215  -0.079466  1.597432
H    -0.941441  0.916709  3.922972
C    -2.933279  0.163106  4.066958
C    -3.468527  1.598490  3.938938
C    -4.916154  1.741241  4.425715
C    -5.965805  1.110471  3.502832
N    -7.285815  1.218044  4.107113
H    -2.956638  -0.137797  5.125217
H    -3.590306  -0.538459  3.533398
H    -3.398802  1.940377  2.891812
H    -2.819293  2.268290  4.525018
H    -5.137171  2.814166  4.529381
H    -5.025352  1.311782  5.433534
H    -5.761604  0.034248  3.370452
H    -5.876023  1.571731  2.494979
H    -7.989055  0.707007  3.575958
H    -7.597730  2.187855  4.163675
N    -1.099545  -2.373084  4.267426
C    -2.421034  -2.956411  4.006830
H    -0.403720  -3.010002  4.659117
H    -2.290948  -4.038630  3.913788
H    -2.839555  -2.579819  3.069694
H    -3.110481  -2.754908  4.835292
Ca    2.072853  0.348860  3.482693
