34
Energy: -36752.713083 eV PBE+vdW (tier 2 basis)
C    -0.809117  -1.645520  2.748767
C    -0.858260  -0.931142  4.055200
O    -0.362831  -1.534247  5.109655
H    0.220881  -1.968715  2.547460
H    -1.161727  -1.034609  1.913890
H    -1.429346  -2.551406  2.807208
N    -1.364118  0.259420  4.210112
C    -1.955179  1.199217  3.248021
C    -1.788835  2.546106  4.017160
O    -1.669808  2.491080  5.250933
H    -1.351671  0.756617  5.136779
H    -1.368429  1.204541  2.318319
C    -3.431140  0.829752  2.958749
C    -4.139075  1.726014  1.920298
C    -4.991491  2.867436  2.497167
C    -6.344263  2.396611  3.047323
N    -7.078693  3.501168  3.628482
H    -3.978296  0.831390  3.913490
H    -3.433226  -0.211584  2.605387
H    -4.784230  1.084381  1.302284
H    -3.398314  2.130133  1.211457
H    -5.175056  3.605658  1.701305
H    -4.461364  3.402742  3.298055
H    -6.201473  1.641371  3.835836
H    -6.903190  1.890636  2.232460
H    -7.331796  4.237351  2.972161
H    -7.884976  3.232667  4.186748
N    -1.780764  3.668346  3.291824
C    -1.719538  5.006398  3.876539
H    -1.894124  3.594707  2.286111
H    -1.002586  5.618299  3.318775
H    -1.396257  4.918318  4.916956
H    -2.706217  5.487477  3.846671
Ca    0.457169  -2.447104  6.694718
