34
Energy: -36752.4196257 eV PBE+vdW (tier 2 basis)
C    -0.533941  -0.240118  -1.015422
C    -0.769476  -0.870912  0.310544
O    -0.127389  -1.965900  0.611445
H    -1.353499  0.415939  -1.323818
H    -0.385303  -1.014118  -1.776426
H    0.380429  0.369774  -0.952788
N    -1.610506  -0.379239  1.191873
C    -2.256048  0.943445  1.169158
C    -1.143072  2.029764  1.135089
O    0.008968  1.742287  1.476912
H    -1.639613  -0.855899  2.094281
H    -2.877479  1.005033  0.264558
C    -3.154226  1.079900  2.416127
C    -2.446944  0.798277  3.766541
C    -2.607301  1.911119  4.812380
C    -1.782230  3.180423  4.523674
N    -0.352484  2.924906  4.501505
H    -4.021420  0.417471  2.287973
H    -3.564893  2.097459  2.406710
H    -1.363789  0.639285  3.623953
H    -2.843925  -0.134354  4.192347
H    -2.294244  1.521961  5.790773
H    -3.668574  2.188807  4.906135
H    -1.997574  3.912217  5.311972
H    -2.123402  3.642578  3.577013
H    0.059307  2.706323  3.597626
H    0.216122  3.582659  5.024131
N    -1.501523  3.267409  0.735146
C    -2.808753  3.782946  0.337653
H    -0.738783  3.939871  0.789712
H    -3.408722  3.012920  -0.159285
H    -2.660397  4.597993  -0.378215
H    -3.373914  4.174658  1.195293
Ca    1.151464  -3.499352  0.876721
