34
Energy: -36755.3699547 eV PBE+vdW (tier 2 basis)
C    -0.381343  -0.971000  0.084436
C    -0.828916  -0.289690  1.332579
O    -0.296204  0.794641  1.713656
H    -0.473884  -0.270975  -0.757135
H    -0.944930  -1.882430  -0.139460
H    0.685442  -1.218602  0.173804
N    -1.823831  -0.839437  2.057090
C    -2.353862  -0.191101  3.255095
C    -1.430978  -0.385043  4.477579
O    -0.673239  0.596503  4.769547
H    -2.252593  -1.697293  1.719148
H    -2.221958  0.877439  3.060596
C    -3.869155  -0.358737  3.468425
C    -4.659114  0.803322  2.832488
C    -4.152125  2.201399  3.266399
C    -3.247251  2.911361  2.237491
N    -2.086526  3.627230  2.890299
H    -4.068972  -0.372194  4.549800
H    -4.224059  -1.325866  3.083877
H    -5.710974  0.684899  3.119351
H    -4.643377  0.721604  1.734917
H    -3.617539  2.113447  4.228975
H    -5.010797  2.849349  3.481044
H    -3.838132  3.626686  1.649945
H    -2.824805  2.199667  1.513778
H    -1.793892  4.375554  2.249620
H    -2.456530  4.141726  3.698495
N    -1.402593  -1.491913  5.199512
C    -2.184691  -2.718469  5.048815
H    -0.751457  -1.462838  5.986044
H    -1.520426  -3.579462  5.181223
H    -2.633151  -2.777660  4.054790
H    -2.978258  -2.762510  5.805460
Ca    -0.099862  2.201040  3.377035
