34
Energy: -36752.651133 eV PBE+vdW (tier 2 basis)
C    -0.721428  -2.109309  0.778872
C    -0.243778  -0.858033  1.431540
O    0.986938  -0.825983  1.882981
H    -1.739721  -2.027731  0.390514
H    -0.687233  -2.932953  1.505940
H    -0.043645  -2.373633  -0.044028
N    -0.979252  0.207462  1.577892
C    -2.363771  0.497623  1.174896
C    -2.341150  2.057298  1.164221
O    -1.510642  2.603903  1.909792
H    -0.614107  1.082886  2.028859
H    -2.559933  0.075093  0.181228
C    -3.349285  -0.062874  2.230413
C    -4.835742  0.107686  1.893983
C    -5.766895  -0.608743  2.883563
C    -5.852410  0.047095  4.266935
N    -6.753201  -0.687881  5.128190
H    -3.107508  0.411315  3.193309
H    -3.132366  -1.137000  2.346144
H    -5.028726  -0.294186  0.887726
H    -5.096768  1.176248  1.861528
H    -5.463794  -1.660355  3.003513
H    -6.776049  -0.631703  2.444407
H    -6.152717  1.109596  4.140868
H    -4.867508  0.063582  4.758553
H    -7.707892  -0.772274  4.785126
H    -6.743694  -0.409826  6.105862
N    -3.192306  2.748666  0.395479
C    -4.136664  2.294342  -0.620108
H    -3.103483  3.756852  0.516829
H    -5.173174  2.436216  -0.289211
H    -3.979485  2.868052  -1.541074
H    -3.987275  1.236102  -0.849613
Ca    2.889438  -0.769424  2.518135
