34
Energy: -36755.3749996 eV PBE+vdW (tier 2 basis)
C    0.952870  0.635946  0.905691
C    0.203706  0.674025  2.193474
O    0.543328  1.462265  3.125579
H    0.962160  1.644418  0.469938
H    0.533848  -0.068444  0.179922
H    1.999405  0.368215  1.106609
N    -0.857671  -0.143138  2.356941
C    -1.682836  -0.084271  3.562897
C    -1.035952  -0.909293  4.700165
O    -0.304359  -0.266358  5.520321
H    -1.136362  -0.738719  1.581365
H    -1.545048  0.944350  3.913440
C    -3.191082  -0.174585  3.311920
C    -4.027252  0.156198  4.571862
C    -3.451232  1.215109  5.537155
C    -3.058004  2.577343  4.937694
N    -1.806657  3.114910  5.594326
H    -3.498716  -1.147369  2.909398
H    -3.400880  0.558185  2.518029
H    -4.183623  -0.759213  5.160446
H    -5.027220  0.459428  4.234157
H    -2.576106  0.790793  6.054523
H    -4.189865  1.373697  6.334414
H    -3.877662  3.300002  5.048526
H    -2.849653  2.518436  3.860477
H    -2.016996  3.222153  6.594837
H    -1.689745  4.084304  5.273678
N    -1.188109  -2.216580  4.830440
C    -1.949416  -3.154766  4.002076
H    -0.693042  -2.612741  5.630719
H    -1.509438  -4.148918  4.125307
H    -1.886482  -2.889326  2.942780
H    -3.000171  -3.196815  4.315556
Ca    0.331680  1.827018  5.273422
