34
Energy: -36753.5927091 eV PBE+vdW (tier 2 basis)
C    0.098273  0.049100  -0.261592
C    0.018748  -0.220286  1.198806
O    1.076803  -0.296573  1.907860
H    0.685733  0.953604  -0.467195
H    -0.877135  0.103990  -0.751927
H    0.662113  -0.786323  -0.708310
N    -1.177179  -0.394188  1.806913
C    -2.312558  0.525536  1.643470
C    -1.788280  1.945348  1.956526
O    -0.761665  2.067560  2.726631
H    -1.108716  -0.789049  2.747045
H    -2.694525  0.473372  0.616071
C    -3.418306  0.076688  2.637019
C    -4.795253  0.725213  2.471781
C    -5.503587  0.366002  1.163079
C    -6.788585  1.165448  0.923274
N    -7.204583  1.032401  -0.471686
H    -3.043490  0.240105  3.661398
H    -3.512520  -1.011888  2.498214
H    -4.722894  1.818413  2.590121
H    -5.406835  0.394279  3.323849
H    -5.726727  -0.713075  1.152666
H    -4.857282  0.536812  0.284392
H    -6.589189  2.234074  1.107696
H    -7.550136  0.863354  1.667929
H    -7.558232  0.093474  -0.662215
H    -7.971173  1.670990  -0.683358
N    -2.353150  3.031861  1.469027
C    -3.445153  3.192539  0.503600
H    -1.937215  3.901858  1.807495
H    -4.309879  3.653464  0.995109
H    -3.750620  2.233565  0.081563
H    -3.101677  3.851566  -0.302271
Ca    1.133426  1.301820  3.359990
