34
Energy: -36754.5104593 eV PBE+vdW (tier 2 basis)
C    -0.517940  -0.568329  0.103202
C    -0.445875  -0.493335  1.591733
O    0.644016  -0.775962  2.188748
H    -1.483661  -0.252726  -0.304318
H    -0.323920  -1.607129  -0.201660
H    0.280577  0.044822  -0.334663
N    -1.539608  -0.131134  2.268625
C    -1.789221  -0.158816  3.729829
C    -1.023128  0.936980  4.481687
O    0.246588  0.886141  4.597089
H    -2.356849  0.067423  1.697699
H    -2.862163  0.059927  3.820641
C    -1.590368  -1.534329  4.390514
C    -2.451831  -2.624222  3.742011
C    -2.678889  -3.847137  4.643430
C    -3.257677  -3.515517  6.027266
N    -4.317081  -2.496403  5.938779
H    -1.891665  -1.406472  5.440163
H    -0.529112  -1.840981  4.398745
H    -2.006838  -2.949464  2.789849
H    -3.431440  -2.183930  3.502685
H    -1.744909  -4.414524  4.776233
H    -3.362784  -4.524038  4.109926
H    -2.467939  -3.111746  6.681218
H    -3.579907  -4.458635  6.500747
H    -5.130342  -2.878291  5.450376
H    -4.652129  -2.267330  6.875487
N    -1.731325  1.892977  5.054419
C    -1.200935  2.979321  5.879309
H    -2.740830  1.865917  4.926189
H    -1.726620  2.990744  6.841060
H    -1.360867  3.938964  5.372383
H    -0.132921  2.822539  6.042978
Ca    1.839610  -0.301284  3.849128
