34
Energy: -36754.2762851 eV PBE+vdW (tier 2 basis)
C    -0.701240  0.576422  -0.874269
C    -0.181045  0.095389  0.436872
O    1.078789  -0.075842  0.577456
H    -1.717576  0.967766  -0.825491
H    -0.648164  -0.217545  -1.633749
H    -0.019502  1.369721  -1.212976
N    -0.969829  -0.108611  1.523180
C    -2.131634  -1.018427  1.616853
C    -1.548460  -2.445468  1.804460
O    -0.374284  -2.719732  1.331350
H    -0.401898  -0.151388  2.371845
H    -2.654276  -0.747272  2.544870
C    -3.141212  -0.932531  0.454071
C    -4.457927  -1.689138  0.683437
C    -5.350460  -1.156454  1.829649
C    -5.774462  -2.223470  2.835609
N    -4.623320  -2.678769  3.671025
H    -2.679658  -1.300395  -0.473001
H    -3.369465  0.133139  0.307404
H    -4.253831  -2.760532  0.824109
H    -5.012079  -1.634604  -0.262451
H    -6.260276  -0.710300  1.407797
H    -4.859165  -0.328573  2.369702
H    -6.166513  -3.102681  2.306233
H    -6.587340  -1.842558  3.470443
H    -4.430085  -1.967640  4.382639
H    -4.905511  -3.505684  4.204682
N    -2.273329  -3.321762  2.441261
C    -1.864047  -4.711613  2.632271
H    -3.240205  -3.020686  2.900415
H    -2.717365  -5.267837  3.031572
H    -1.034558  -4.782629  3.348616
H    -1.555855  -5.163840  1.682559
Ca    1.599057  -2.147624  0.859066
