34
Energy: -36754.1773609 eV PBE+vdW (tier 2 basis)
C    -0.320021  -1.256758  -0.153187
C    -0.372345  -0.751750  1.247781
O    0.669214  -0.265957  1.800118
H    -0.039407  -0.424561  -0.815181
H    -1.268742  -1.681211  -0.496872
H    0.471287  -2.013069  -0.241562
N    -1.528751  -0.802576  1.920042
C    -1.768266  -0.187689  3.238364
C    -1.070598  -1.016213  4.343738
O    0.113718  -0.655158  4.677717
H    -2.340787  -1.172713  1.429835
H    -1.213557  0.763603  3.248236
C    -3.252872  0.151628  3.420173
C    -3.563758  0.845159  4.751842
C    -5.065150  1.085720  4.934898
C    -5.406577  1.803257  6.246250
N    -6.851363  1.876591  6.414733
H    -3.876675  -0.745779  3.302726
H    -3.524329  0.821038  2.589095
H    -3.020164  1.803294  4.800585
H    -3.190120  0.241900  5.597674
H    -5.609696  0.128434  4.916317
H    -5.449388  1.675036  4.086062
H    -4.892310  2.786369  6.266065
H    -5.001607  1.224394  7.091120
H    -7.110677  2.120782  7.368718
H    -7.277503  2.566790  5.796815
N    -1.602285  -2.071082  4.933890
C    -2.900258  -2.727127  4.737842
H    -1.002466  -2.477777  5.653233
H    -2.832622  -3.728174  5.173262
H    -3.131964  -2.832998  3.674135
H    -3.701366  -2.177091  5.246743
Ca    1.782962  0.069846  3.571248
