34
Energy: -36753.4944279 eV PBE+vdW (tier 2 basis)
C    0.181486  -0.030686  0.166823
C    -0.179825  -0.323611  1.580366
O    0.721414  -0.590457  2.441655
H    0.853488  0.836727  0.104434
H    -0.683589  0.111656  -0.486075
H    0.762690  -0.890151  -0.202728
N    -1.472055  -0.307624  1.982078
C    -2.399449  0.793706  1.681466
C    -1.711532  2.099299  2.144214
O    -0.819834  2.034876  3.069311
H    -1.624034  -0.722974  2.903290
H    -2.596819  0.829973  0.601995
C    -3.718018  0.511933  2.443367
C    -4.895095  1.450418  2.158764
C    -6.202278  0.965540  2.805063
C    -6.243524  1.067077  4.334310
N    -7.506859  0.545922  4.829866
H    -3.492572  0.499682  3.522860
H    -4.004491  -0.514787  2.166456
H    -5.050820  1.516260  1.071308
H    -4.673147  2.468553  2.517814
H    -6.409684  -0.074435  2.510439
H    -7.025597  1.566366  2.390138
H    -6.031919  2.118485  4.628797
H    -5.444932  0.452104  4.781255
H    -8.302565  1.117096  4.546589
H    -7.525815  0.463361  5.844357
N    -2.008634  3.272157  1.618796
C    -2.903003  3.618023  0.510049
H    -1.521877  4.058722  2.052841
H    -3.216319  2.726238  -0.036044
H    -2.365416  4.287276  -0.171293
H    -3.792322  4.133801  0.890551
Ca    0.807202  0.948736  3.960894
