34
Energy: -36753.5995509 eV PBE+vdW (tier 2 basis)
C    -0.143319  -0.484772  -0.498916
C    -0.041747  -0.342057  0.980533
O    1.094960  -0.352934  1.559715
H    -1.149138  -0.747737  -0.838635
H    0.564090  -1.265156  -0.810804
H    0.179221  0.441377  -0.999517
N    -1.149907  -0.181060  1.736737
C    -2.212162  0.771761  1.406493
C    -1.578454  2.186527  1.402470
O    -0.401619  2.358043  1.887167
H    -0.987758  -0.280966  2.740725
H    -2.593849  0.550793  0.398283
C    -3.359338  0.646111  2.427800
C    -4.099822  -0.695166  2.326089
C    -5.294847  -0.797984  3.282699
C    -4.925377  -0.920005  4.765673
N    -6.132195  -0.956646  5.576057
H    -4.071165  1.467362  2.268647
H    -2.946111  0.804308  3.438179
H    -3.402135  -1.528355  2.510572
H    -4.456271  -0.818729  1.291056
H    -5.882280  -1.682276  2.992578
H    -5.965932  0.065251  3.153409
H    -4.346645  -0.039618  5.091195
H    -4.258984  -1.800265  4.895917
H    -5.935792  -0.905777  6.573751
H    -6.688938  -1.794279  5.408042
N    -2.236973  3.218441  0.910736
C    -3.559188  3.261346  0.278075
H    -1.755130  4.114157  1.001812
H    -3.852618  2.274669  -0.089576
H    -3.512219  3.951496  -0.571078
H    -4.310952  3.625756  0.989679
Ca    1.534487  1.581632  2.416308
