34
Energy: -36754.1716527 eV PBE+vdW (tier 2 basis)
C    -0.220906  -0.472757  -0.216713
C    -0.252570  -0.366737  1.269518
O    0.798518  -0.048865  1.917903
H    0.563838  -1.179345  -0.518169
H    0.057218  0.506932  -0.631666
H    -1.176651  -0.785264  -0.649451
N    -1.399116  -0.600228  1.917695
C    -1.619937  -0.379359  3.358128
C    -0.915237  -1.475343  4.187229
O    0.280374  -1.226216  4.582375
H    -2.218442  -0.823456  1.356066
H    -1.063392  0.534067  3.622526
C    -3.102295  -0.101703  3.649779
C    -3.542502  1.296537  3.195552
C    -5.035203  1.533999  3.440831
C    -5.504406  2.928406  3.004153
N    -6.943731  3.049251  3.182948
H    -3.263599  -0.203314  4.733540
H    -3.736974  -0.863788  3.173042
H    -3.324432  1.434439  2.122557
H    -2.947121  2.055771  3.730170
H    -5.258299  1.395522  4.511843
H    -5.636314  0.786414  2.900578
H    -5.287246  3.062986  1.933371
H    -4.911765  3.696429  3.542723
H    -7.333560  3.823938  2.649993
H    -7.205923  3.181800  4.158946
N    -1.460811  -2.634190  4.510443
C    -2.765045  -3.210646  4.164183
H    -0.861172  -3.214277  5.099286
H    -2.685499  -4.296333  4.272623
H    -3.030348  -2.989279  3.126770
H    -3.548957  -2.846607  4.838897
Ca    1.940027  -0.235085  3.693300
