34
Energy: -36754.4884607 eV PBE+vdW (tier 2 basis)
C    -0.336390  0.325629  0.654777
C    -0.623725  -0.117651  2.047621
O    0.202080  -0.860978  2.664038
H    -1.006564  1.116084  0.301216
H    -0.455245  -0.556321  0.008244
H    0.704674  0.660957  0.578049
N    -1.762775  0.294117  2.624418
C    -2.375869  -0.154153  3.895792
C    -1.580110  0.339334  5.114345
O    -0.503092  -0.254019  5.454826
H    -2.349258  0.887497  2.044788
H    -3.358928  0.331087  3.908119
C    -2.608661  -1.674099  3.971214
C    -3.483369  -2.223735  2.836246
C    -3.179524  -3.692289  2.500849
C    -1.788249  -3.940486  1.909131
N    -1.522595  -3.074495  0.751277
H    -3.050779  -1.901703  4.952337
H    -1.637858  -2.201663  3.949731
H    -3.332425  -1.625603  1.927335
H    -4.541280  -2.121720  3.114328
H    -3.933378  -4.041454  1.779191
H    -3.308780  -4.327407  3.390477
H    -1.693825  -5.018121  1.691997
H    -1.000580  -3.731522  2.666277
H    -0.671078  -3.384569  0.279347
H    -2.266729  -3.199090  0.059781
N    -2.026468  1.351196  5.837621
C    -3.231236  2.167792  5.635900
H    -1.451522  1.574263  6.651348
H    -3.262728  2.583241  4.622605
H    -3.190364  3.002117  6.341437
H    -4.140618  1.589109  5.840106
Ca    0.842075  -1.615146  4.512160
