34
Energy: -36752.6482103 eV PBE+vdW (tier 2 basis)
C    0.126495  0.104742  0.071627
C    -0.039210  0.039509  1.550610
O    1.029884  -0.158565  2.285402
H    0.882082  0.861595  -0.178181
H    -0.802982  0.340369  -0.452825
H    0.500047  -0.862207  -0.294312
N    -1.184180  0.170141  2.158035
C    -2.544528  0.395118  1.640662
C    -3.230707  1.002296  2.900057
O    -2.770351  0.664351  4.002870
H    -1.266795  0.135010  3.203018
H    -2.512399  1.106925  0.806252
C    -3.146770  -0.961761  1.190033
C    -4.577720  -0.949540  0.628283
C    -5.693422  -1.133708  1.664536
C    -7.084727  -1.243519  1.023037
N    -7.192376  -2.413536  0.169335
H    -3.083277  -1.655954  2.042395
H    -2.465125  -1.354525  0.420414
H    -4.657038  -1.778403  -0.089240
H    -4.750437  -0.040584  0.030540
H    -5.715778  -0.314112  2.396567
H    -5.496194  -2.048178  2.248229
H    -7.284586  -0.356317  0.403479
H    -7.843649  -1.238452  1.829268
H    -7.224180  -3.299023  0.671204
H    -7.944476  -2.372355  -0.513657
N    -4.254682  1.858204  2.773505
C    -4.883509  2.412989  1.580527
H    -4.630831  2.158991  3.671656
H    -5.057155  3.484045  1.733804
H    -5.846374  1.927614  1.372565
H    -4.237722  2.298202  0.705514
Ca    2.674750  -0.427735  3.398104
