34
Energy: -36752.4321614 eV PBE+vdW (tier 2 basis)
C    -0.377995  -0.608391  -0.282226
C    0.020136  -0.479548  1.144964
O    1.285268  -0.509255  1.453717
H    -1.410684  -0.948540  -0.404165
H    0.295944  -1.303247  -0.795140
H    -0.289237  0.380039  -0.759480
N    -0.857844  -0.340335  2.112329
C    -2.296461  -0.016755  1.983073
C    -2.386112  1.286537  1.135003
O    -1.469902  2.105561  1.212917
H    -0.470128  -0.212708  3.047603
H    -2.793189  -0.864489  1.490770
C    -2.832728  0.128650  3.425161
C    -4.346425  0.333405  3.600381
C    -4.825842  1.787173  3.518866
C    -6.337211  1.910867  3.744355
N    -6.782776  3.279387  3.590516
H    -2.290829  0.960465  3.905636
H    -2.544506  -0.794777  3.951698
H    -4.608618  -0.063410  4.592050
H    -4.897536  -0.299366  2.887029
H    -4.581534  2.247108  2.551431
H    -4.295772  2.382710  4.280200
H    -6.589929  1.491631  4.740905
H    -6.881765  1.295497  3.011427
H    -7.790101  3.399954  3.521501
H    -6.384953  3.942587  4.252405
N    -3.448008  1.453208  0.313433
C    -4.625939  0.622800  0.091218
H    -3.438905  2.361163  -0.149023
H    -4.425355  -0.426022  0.331425
H    -4.902882  0.675269  -0.967697
H    -5.482540  0.961222  0.690267
Ca    3.282609  -0.257233  1.605306
