34
Energy: -36754.3535655 eV PBE+vdW (tier 2 basis)
C    -0.899665  1.936915  1.148926
C    -0.982632  0.480402  1.456392
O    -0.086382  -0.320625  1.030251
H    -1.751506  2.510289  1.528401
H    -0.816563  2.081215  0.063746
H    0.024732  2.333540  1.594024
N    -2.000946  0.028315  2.195367
C    -2.141649  -1.332985  2.752728
C    -2.596127  -2.308823  1.644338
O    -1.722760  -2.767826  0.833261
H    -2.681227  0.715998  2.513699
H    -1.132037  -1.671660  3.035830
C    -3.007051  -1.287466  4.018329
C    -2.998473  -2.584941  4.837754
C    -3.840927  -2.462704  6.111726
C    -3.814679  -3.730546  6.974841
N    -4.567729  -3.516021  8.202006
H    -4.042051  -0.985026  3.772263
H    -2.613697  -0.471914  4.645092
H    -1.957164  -2.826228  5.109005
H    -3.360614  -3.434440  4.234730
H    -4.885215  -2.227140  5.844811
H    -3.483199  -1.622267  6.725447
H    -2.773570  -3.951551  7.255126
H    -4.164690  -4.592711  6.368944
H    -5.575508  -3.549795  8.053267
H    -4.338481  -4.203158  8.917218
N    -3.868212  -2.635988  1.557264
C    -4.463160  -3.541122  0.573389
H    -4.490443  -2.245914  2.263100
H    -5.175482  -2.989024  -0.051950
H    -4.995570  -4.343496  1.097479
H    -3.675534  -3.968528  -0.050034
Ca    0.235209  -2.227772  0.182229
