34
Energy: -36754.2118853 eV PBE+vdW (tier 2 basis)
C    -0.306316  0.969475  -0.029848
C    -0.296454  0.816047  1.452045
O    0.666215  1.286261  2.145764
H    -0.307774  2.042135  -0.272177
H    -1.168693  0.494400  -0.508311
H    0.618959  0.550778  -0.447846
N    -1.312503  0.190561  2.056116
C    -1.497511  0.122362  3.519026
C    -0.448698  -0.835091  4.127158
O    0.600294  -0.302300  4.642211
H    -2.083522  -0.129936  1.473327
H    -1.210081  1.108454  3.916683
C    -2.978890  -0.076499  3.882288
C    -3.317067  0.231059  5.345826
C    -2.743463  -0.710312  6.409311
C    -3.455698  -0.523499  7.765449
N    -4.876327  -0.839305  7.638722
H    -3.326566  -1.082370  3.612578
H    -3.538014  0.625280  3.242569
H    -4.412221  0.189333  5.443346
H    -3.031593  1.272105  5.573772
H    -1.661094  -0.557497  6.560307
H    -2.880750  -1.759919  6.096565
H    -3.359130  0.527736  8.075125
H    -2.929131  -1.121982  8.528874
H    -5.062988  -1.824048  7.822629
H    -5.442783  -0.303530  8.292770
N    -0.542208  -2.151354  4.097071
C    -1.575565  -3.024958  3.533931
H    0.231593  -2.624964  4.565461
H    -1.103835  -3.980359  3.283868
H    -1.995677  -2.601028  2.618420
H    -2.374647  -3.205160  4.263428
Ca    1.848850  1.248888  3.902064
