34
Energy: -36753.5482597 eV PBE+vdW (tier 2 basis)
C    -0.338302  0.380178  1.839564
C    -1.461090  0.448804  2.811185
O    -1.236020  0.694955  4.047120
H    -0.425277  1.231742  1.145206
H    -0.372739  -0.524434  1.218345
H    0.619769  0.437594  2.362279
N    -2.747835  0.275588  2.425559
C    -3.234161  -0.828608  1.579188
C    -2.742846  -2.155692  2.234261
O    -2.284534  -2.155863  3.430066
H    -3.413607  0.576652  3.136441
H    -4.325338  -0.823189  1.737287
C    -3.025183  -0.712178  0.055757
C    -3.607153  0.565349  -0.578638
C    -2.714456  1.805735  -0.495413
C    -3.291876  3.023273  -1.233342
N    -2.399175  4.167700  -1.077072
H    -3.548446  -1.569867  -0.397248
H    -1.964360  -0.826746  -0.208866
H    -4.597862  0.775101  -0.142061
H    -3.796918  0.337608  -1.637796
H    -1.726105  1.572331  -0.927823
H    -2.547680  2.117840  0.545779
H    -4.264308  3.283723  -0.790052
H    -3.492029  2.747802  -2.286547
H    -1.644190  4.155524  -1.762336
H    -2.894953  5.048792  -1.199427
N    -2.849657  -3.278417  1.555575
C    -2.511161  -4.608842  2.073129
H    -3.198828  -3.216558  0.601945
H    -2.781798  -5.349964  1.317035
H    -3.070816  -4.811187  2.993342
H    -1.435488  -4.677823  2.274803
Ca    -1.551963  -1.105560  5.161502
