34
Energy: -36752.1410993 eV PBE+vdW (tier 2 basis)
C    -0.856665  -0.091464  -0.383713
C    -0.451343  -0.094614  1.053075
O    0.782918  -0.333983  1.368277
H    -0.276595  0.665898  -0.929169
H    -1.922334  0.118333  -0.523322
H    -0.629356  -1.068672  -0.832192
N    -1.351003  0.139998  1.985677
C    -1.147741  0.199230  3.444998
C    -2.330801  -0.524925  4.169512
O    -3.016340  0.081406  4.984151
H    -2.290293  0.357564  1.654666
H    -0.224218  -0.359376  3.653611
C    -0.999457  1.648775  3.934000
C    -2.087573  2.620278  3.445978
C    -2.212471  3.889187  4.299563
C    -2.721088  3.656010  5.741450
N    -3.970779  2.941307  5.792582
H    -0.006346  2.020188  3.636912
H    -0.998559  1.592106  5.030728
H    -3.067501  2.119849  3.435029
H    -1.875708  2.923898  2.408563
H    -2.910537  4.574698  3.799818
H    -1.244099  4.409892  4.361799
H    -2.848687  4.632454  6.223540
H    -1.943680  3.120904  6.322610
H    -4.675463  3.273751  6.441314
H    -3.929311  1.928079  5.705687
N    -2.547365  -1.830965  3.868300
C    -1.763248  -2.736940  3.042340
H    -3.335811  -2.228265  4.375447
H    -2.060484  -2.705545  1.983387
H    -1.915317  -3.759358  3.403157
H    -0.689522  -2.520969  3.123773
Ca    2.808986  -0.590039  1.391380
