34
Energy: -36754.0490028 eV PBE+vdW (tier 2 basis)
C    -0.221417  -0.780354  -0.140776
C    -0.259300  -0.549580  1.331876
O    0.747591  -0.042060  1.929268
H    0.650752  -1.396408  -0.396200
H    -0.083250  0.189096  -0.641450
H    -1.128377  -1.255567  -0.527962
N    -1.365364  -0.871581  2.008087
C    -1.661236  -0.550214  3.413382
C    -0.903096  -1.513546  4.362964
O    0.328513  -1.225614  4.589332
H    -2.144204  -1.258440  1.476575
H    -1.160147  0.407160  3.621702
C    -3.180787  -0.328667  3.624187
C    -4.150201  -1.037796  2.663576
C    -5.577832  -1.063854  3.220453
C    -6.596847  -1.690839  2.261898
N    -7.885173  -1.824189  2.930808
H    -3.355472  0.752770  3.547109
H    -3.424216  -0.580799  4.665293
H    -3.841421  -2.079012  2.454515
H    -4.154864  -0.518704  1.689831
H    -5.890016  -0.036376  3.468893
H    -5.603827  -1.628767  4.165780
H    -6.258303  -2.702453  1.986593
H    -6.621561  -1.102776  1.321434
H    -8.505293  -2.451924  2.421726
H    -8.367183  -0.928188  3.004886
N    -1.411868  -2.568335  4.971233
C    -2.740778  -3.186970  4.932331
H    -0.741662  -3.020471  5.596159
H    -2.618274  -4.246653  5.176031
H    -3.185573  -3.108196  3.939390
H    -3.404542  -2.729942  5.676928
Ca    1.915892  -0.146826  3.683448
