34
Energy: -36754.5052055 eV PBE+vdW (tier 2 basis)
C    -0.176505  -0.141085  0.040702
C    -0.144264  -0.234755  1.529630
O    0.922443  -0.609422  2.117046
H    0.027278  -1.138214  -0.375629
H    0.633441  0.517054  -0.301055
H    -1.130286  0.222403  -0.354714
N    -1.248624  0.079751  2.214671
C    -1.538029  -0.074753  3.661492
C    -0.726582  0.901314  4.528438
O    0.524437  0.729462  4.705589
H    -2.044575  0.361162  1.647767
H    -2.597338  0.202733  3.750366
C    -1.431960  -1.521407  4.172133
C    -1.944567  -1.660076  5.609003
C    -2.095162  -3.118027  6.070642
C    -2.967179  -3.986419  5.150666
N    -4.183402  -3.270776  4.740040
H    -0.402173  -1.911940  4.080430
H    -2.052083  -2.134605  3.503855
H    -2.932045  -1.177180  5.661325
H    -1.287009  -1.123995  6.312662
H    -2.529242  -3.100711  7.081494
H    -1.109175  -3.597004  6.179240
H    -3.156444  -4.945999  5.662349
H    -2.410603  -4.242994  4.235276
H    -4.702932  -3.825844  4.059418
H    -4.814268  -3.156780  5.536177
N    -1.379329  1.885230  5.118473
C    -0.802552  2.875054  6.029205
H    -2.378888  1.954447  4.940113
H    -1.378598  2.884254  6.961708
H    -0.848685  3.870466  5.570311
H    0.236237  2.612783  6.239121
Ca    2.073793  -0.454037  3.865202
