34
Energy: -36752.9332965 eV PBE+vdW (tier 2 basis)
C    -0.729655  -0.306547  0.051250
C    -0.388654  -0.668606  1.485251
O    0.958890  -0.778784  1.678671
H    -0.306910  0.680058  -0.174010
H    -1.811073  -0.248018  -0.105405
H    -0.321245  -1.055478  -0.637322
N    -1.021223  0.116336  2.501114
C    -2.307191  -0.509821  2.868335
C    -2.058616  -1.965840  2.483162
O    -1.004121  -2.105348  1.709467
H    -0.403628  0.172654  3.310288
H    -2.439122  -0.431891  3.956894
C    -3.521879  0.179286  2.192929
C    -4.894758  -0.077645  2.833668
C    -5.630157  -1.361550  2.376777
C    -6.110796  -2.265203  3.511196
N    -4.975871  -2.724748  4.369685
H    -3.560312  -0.065725  1.121631
H    -3.286625  1.250186  2.254898
H    -5.524374  0.791128  2.604112
H    -4.783686  -0.053707  3.930387
H    -4.992810  -1.947298  1.697804
H    -6.508963  -1.087048  1.778395
H    -6.588508  -3.157807  3.088218
H    -6.871906  -1.753903  4.119063
H    -4.817443  -2.057435  5.127732
H    -5.229498  -3.597623  4.837136
N    -2.764138  -2.986542  2.851616
C    -2.481631  -4.351985  2.408973
H    -3.658100  -2.849016  3.511487
H    -3.230944  -5.014748  2.851952
H    -1.484813  -4.672676  2.736412
H    -2.536434  -4.428779  1.315907
Ca    2.889338  -0.890316  1.537691
