34
Energy: -36754.5987147 eV PBE+vdW (tier 2 basis)
C    -2.530081  -1.503202  -0.382335
C    -1.869084  -1.198795  0.919722
O    -0.789589  -1.798289  1.246585
H    -1.839179  -1.228011  -1.192877
H    -3.474927  -0.968911  -0.524609
H    -2.704974  -2.583427  -0.467780
N    -2.414729  -0.286456  1.725890
C    -1.820347  0.316417  2.938359
C    -1.948355  -0.641334  4.142128
O    -1.254445  -1.716536  4.161143
H    -3.272714  0.154629  1.400044
H    -0.735617  0.403566  2.755423
C    -2.401028  1.713818  3.154223
C    -1.967208  2.744239  2.098322
C    -2.434893  4.172864  2.420355
C    -1.779064  4.822714  3.644145
N    -2.214481  4.203208  4.916742
H    -2.087543  2.112855  4.134334
H    -3.505444  1.658245  3.181695
H    -2.342403  2.462786  1.100818
H    -0.866366  2.735726  2.025016
H    -3.532052  4.191846  2.533529
H    -2.218938  4.803516  1.546410
H    -1.978139  5.906943  3.609423
H    -0.686404  4.707519  3.574916
H    -3.166221  4.509742  5.131828
H    -1.641234  4.564254  5.681118
N    -2.746429  -0.311859  5.134081
C    -2.963830  -1.076581  6.361375
H    -3.220483  0.587527  5.053895
H    -4.030261  -1.313149  6.457794
H    -2.652730  -0.475083  7.224090
H    -2.382275  -1.999679  6.324779
Ca    0.065312  -2.790333  2.894225
