34
Energy: -36753.5104336 eV PBE+vdW (tier 2 basis)
C    -0.255969  1.192212  0.480028
C    -0.838302  0.675078  1.750557
O    -0.053910  0.340638  2.704142
H    -0.942599  1.827922  -0.082632
H    0.068060  0.361210  -0.165826
H    0.648865  1.756557  0.740216
N    -2.173500  0.575169  1.973887
C    -3.154775  -0.124145  1.125521
C    -2.910094  -1.642337  1.321844
O    -1.792723  -2.057927  1.798759
H    -2.370093  0.450944  2.968701
H    -4.137852  0.117289  1.558062
C    -3.185761  0.279942  -0.361526
C    -3.619668  1.734684  -0.582957
C    -3.478625  2.156321  -2.047325
C    -3.942898  3.597289  -2.307193
N    -3.658839  3.975652  -3.682775
H    -3.895441  -0.386328  -0.870746
H    -2.215542  0.073293  -0.833696
H    -3.031213  2.411961  0.057580
H    -4.664575  1.851336  -0.251808
H    -4.053001  1.468620  -2.689917
H    -2.429137  2.073540  -2.372596
H    -3.385898  4.281319  -1.648929
H    -5.010407  3.690330  -2.022838
H    -4.311013  3.562813  -4.348257
H    -3.669597  4.984406  -3.817842
N    -3.847259  -2.519475  1.011622
C    -5.205068  -2.295306  0.505561
H    -3.574227  -3.494752  1.140259
H    -5.555899  -1.288832  0.748930
H    -5.872529  -3.020999  0.982225
H    -5.238727  -2.444270  -0.581177
Ca    -0.030051  -1.786677  2.995090
