34
Energy: -36754.349 eV PBE+vdW (tier 2 basis)
C    -0.074625  0.760999  -0.699624
C    -0.397442  1.500336  0.554252
O    0.177982  2.609368  0.814248
H    -0.352550  1.393688  -1.555517
H    -0.594417  -0.198811  -0.783516
H    1.008753  0.596487  -0.765401
N    -1.304655  0.991481  1.391862
C    -1.895871  1.660458  2.567761
C    -0.910385  1.623662  3.756489
O    0.087144  2.422820  3.755412
H    -1.735379  0.109325  1.121126
H    -1.997018  2.728718  2.312994
C    -3.292615  1.089398  2.838496
C    -4.310021  1.408590  1.729447
C    -5.713336  0.868203  2.032764
C    -5.847456  -0.656098  1.932622
N    -7.188294  -1.061684  2.328583
H    -3.661790  1.519226  3.782064
H    -3.228642  -0.003471  2.987112
H    -3.966282  1.006369  0.761342
H    -4.358464  2.502057  1.607443
H    -6.416291  1.331551  1.324396
H    -6.039274  1.188738  3.034324
H    -5.146385  -1.149129  2.627374
H    -5.547466  -0.973009  0.909701
H    -7.274658  -2.074870  2.390679
H    -7.891841  -0.740643  1.663030
N    -1.128026  0.783829  4.746496
C    -0.308672  0.633341  5.950016
H    -1.961222  0.201338  4.678263
H    0.111919  -0.379186  5.982670
H    -0.936663  0.787658  6.835392
H    0.497279  1.369408  5.936107
Ca    1.099490  3.687089  2.374368
