34
Energy: -36753.5415429 eV PBE+vdW (tier 2 basis)
C    0.001721  -0.151673  3.170991
C    -0.922937  -0.574263  4.261160
O    -0.461234  -0.833750  5.423678
H    -0.439874  0.617273  2.528988
H    0.263428  -1.011843  2.533723
H    0.927670  0.219934  3.621977
N    -2.256771  -0.702862  4.067406
C    -2.887823  -1.419740  2.946309
C    -2.418864  -2.903882  3.032535
O    -1.685042  -3.302749  4.001523
H    -2.767044  -0.797096  4.945816
H    -3.961996  -1.421901  3.191397
C    -2.743828  -0.780210  1.552155
C    -3.205116  0.683793  1.512532
C    -2.949001  1.358973  0.159439
C    -3.800931  0.830170  -1.000789
N    -3.436298  1.511697  -2.233213
H    -3.365949  -1.364950  0.857152
H    -1.713941  -0.877330  1.180602
H    -2.687055  1.252656  2.299681
H    -4.277056  0.733725  1.765557
H    -1.885859  1.274114  -0.117771
H    -3.144042  2.435634  0.277257
H    -4.873552  0.920617  -0.727602
H    -3.609615  -0.243936  -1.159693
H    -3.867846  1.090310  -3.053578
H    -3.688933  2.499601  -2.220346
N    -2.820988  -3.743761  2.101358
C    -2.512660  -5.178067  2.074061
H    -3.390641  -3.370241  1.345837
H    -1.430611  -5.333813  1.991893
H    -3.005066  -5.618140  1.203445
H    -2.886000  -5.664503  2.982651
Ca    -0.559058  -2.948838  5.807469
