34
Energy: -36754.3825913 eV PBE+vdW (tier 2 basis)
C    -0.047346  -0.723022  -0.052851
C    -0.128167  -0.331177  1.383432
O    0.902532  0.120005  1.985864
H    0.227789  0.164691  -0.640925
H    -0.984073  -1.133027  -0.443686
H    0.757579  -1.456897  -0.190550
N    -1.293355  -0.447721  2.026453
C    -1.605943  0.066230  3.375358
C    -0.993437  -0.848638  4.459427
O    0.238985  -0.644439  4.761662
H    -2.087057  -0.792797  1.489926
H    -1.040168  1.005651  3.489978
C    -3.093356  0.403635  3.488578
C    -3.471180  1.723586  2.802558
C    -4.955700  2.085985  2.972816
C    -5.409663  2.373586  4.408738
N    -5.470619  1.150664  5.241919
H    -3.390909  0.473556  4.544764
H    -3.700345  -0.416661  3.072917
H    -3.234155  1.682438  1.726430
H    -2.853865  2.536002  3.223040
H    -5.586155  1.291180  2.539460
H    -5.155170  2.981614  2.367585
H    -6.375201  2.905123  4.365597
H    -4.698333  3.066161  4.885054
H    -6.278496  0.591641  4.957670
H    -5.659735  1.413897  6.210667
N    -1.645968  -1.799891  5.099672
C    -3.028010  -2.285442  4.976585
H    -1.077545  -2.264261  5.809627
H    -3.089142  -3.230364  5.523213
H    -3.285557  -2.475109  3.930487
H    -3.737040  -1.570771  5.412812
Ca    1.961113  0.145296  3.811658
