34
Energy: -36753.6198301 eV PBE+vdW (tier 2 basis)
C    -0.763234  -1.528746  -0.900837
C    -0.176584  -0.631098  0.134405
O    1.069900  -0.342142  0.072535
H    -1.812230  -1.306146  -1.110697
H    -0.695213  -2.580570  -0.579921
H    -0.165817  -1.428017  -1.814227
N    -0.897347  -0.089826  1.143719
C    -1.798470  -0.825527  2.051505
C    -0.906852  -1.768419  2.903048
O    0.316453  -1.979887  2.562863
H    -0.378744  0.651619  1.617455
H    -2.207245  -0.059643  2.727805
C    -2.988576  -1.556034  1.403976
C    -3.930299  -0.654053  0.593862
C    -4.594485  0.507774  1.353360
C    -5.219292  0.169316  2.716394
N    -5.892483  -1.135610  2.711923
H    -3.592608  -1.998510  2.207925
H    -2.635366  -2.399227  0.795782
H    -4.706763  -1.324231  0.200628
H    -3.420204  -0.236126  -0.287384
H    -5.374037  0.914816  0.692426
H    -3.886207  1.340362  1.494131
H    -5.867437  1.013203  3.011200
H    -4.433740  0.130015  3.493422
H    -6.635504  -1.149262  2.009900
H    -6.365554  -1.289241  3.603523
N    -1.378951  -2.356954  3.984657
C    -2.697442  -2.240511  4.617625
H    -0.718205  -2.985200  4.443573
H    -3.151772  -1.269976  4.399965
H    -2.560095  -2.331386  5.699895
H    -3.365746  -3.038443  4.271099
Ca    2.133291  -1.428660  1.578080
