34
Energy: -36754.505174 eV PBE+vdW (tier 2 basis)
C    1.414503  0.221671  2.159177
C    0.141691  0.962073  2.392067
O    0.110482  1.950899  3.199390
H    1.830589  -0.113056  3.118243
H    2.144533  0.918323  1.721193
H    1.299642  -0.638454  1.491791
N    -0.958589  0.585621  1.736811
C    -2.243117  1.311602  1.685975
C    -3.038493  1.081161  2.985973
O    -2.710867  1.724684  4.041051
H    -0.865683  -0.199357  1.095055
H    -2.002859  2.387807  1.680350
C    -2.978857  0.982757  0.380618
C    -2.232452  1.473927  -0.865131
C    -3.028860  1.283977  -2.159625
C    -2.375011  2.016917  -3.339551
N    -2.293919  3.457937  -3.068370
H    -3.963994  1.472220  0.419539
H    -3.165176  -0.105413  0.310014
H    -1.259754  0.962843  -0.963939
H    -2.012492  2.549967  -0.767049
H    -4.051034  1.674999  -2.021035
H    -3.133978  0.215696  -2.403562
H    -2.927768  1.764437  -4.260588
H    -1.350804  1.639557  -3.480108
H    -1.605328  3.899444  -3.676440
H    -3.184270  3.912261  -3.275876
N    -4.051151  0.240570  2.993363
C    -4.888460  -0.047970  4.162484
H    -4.280880  -0.221248  2.116036
H    -4.295947  -0.539533  4.943320
H    -5.697688  -0.712860  3.851099
H    -5.312807  0.881005  4.560241
Ca    -1.036203  2.851538  4.718483
