34
Energy: -36754.4131559 eV PBE+vdW (tier 2 basis)
C    -0.129662  -0.023520  0.103109
C    -0.123007  -0.138438  1.591168
O    0.945841  -0.478970  2.193981
H    -1.087256  0.313477  -0.306360
H    0.115446  -1.007164  -0.323008
H    0.664108  0.666089  -0.213282
N    -1.254412  0.120763  2.256342
C    -1.576015  -0.075126  3.690824
C    -0.824955  0.911461  4.595216
O    0.431896  0.782277  4.786688
H    -2.048069  0.374518  1.673604
H    -2.645791  0.153758  3.754746
C    -1.419926  -1.524405  4.182538
C    -1.965209  -1.705601  5.602974
C    -2.053326  -3.174572  6.045105
C    -2.869562  -4.070335  5.100819
N    -4.118692  -3.412450  4.692709
H    -0.372831  -1.869266  4.114771
H    -1.996049  -2.151460  3.488335
H    -2.978631  -1.277725  5.631159
H    -1.355416  -1.145455  6.330461
H    -2.503437  -3.191123  7.049008
H    -1.047376  -3.607516  6.163473
H    -3.011754  -5.048170  5.592899
H    -2.292523  -4.279672  4.186100
H    -4.598501  -3.976943  3.991046
H    -4.764127  -3.355279  5.483270
N    -1.480873  1.870612  5.222101
C    -2.914354  2.191853  5.178123
H    -0.903521  2.440163  5.842376
H    -3.254431  2.344695  4.147935
H    -3.062630  3.126576  5.725570
H    -3.507599  1.407015  5.662583
Ca    2.064814  -0.286360  3.961778
