34
Energy: -36752.7728756 eV PBE+vdW (tier 2 basis)
C    -0.332815  -0.056387  -0.273928
C    -0.105140  0.385904  1.130204
O    1.132829  0.523382  1.543391
H    0.236370  0.587815  -0.956987
H    -1.387341  -0.039677  -0.560983
H    0.047487  -1.080536  -0.397892
N    -1.064931  0.645346  1.971831
C    -2.526710  0.602255  1.827998
C    -2.963858  1.531041  3.000660
O    -2.169809  1.684449  3.940961
H    -0.874278  0.988220  2.946673
H    -2.822638  1.031477  0.860098
C    -3.038064  -0.853606  1.960365
C    -4.563096  -1.047024  1.857400
C    -5.297475  -1.133067  3.201470
C    -6.795857  -1.430328  3.044413
N    -7.024650  -2.721906  2.419996
H    -2.668205  -1.259525  2.914410
H    -2.543201  -1.431962  1.166239
H    -4.755535  -1.981329  1.312544
H    -5.011284  -0.259979  1.225671
H    -5.187304  -0.207506  3.784858
H    -4.837593  -1.928624  3.810792
H    -7.267989  -0.663107  2.412700
H    -7.274143  -1.351837  4.039912
H    -6.809276  -3.519876  3.014923
H    -7.947342  -2.834669  2.007853
N    -4.167604  2.105778  2.906158
C    -4.745639  2.947162  3.951579
H    -4.732837  1.907799  2.086919
H    -5.138639  3.869339  3.509518
H    -3.962472  3.191632  4.673862
H    -5.558815  2.420216  4.468097
Ca    3.029641  0.763005  2.141707
