34
Energy: -36752.8187617 eV PBE+vdW (tier 2 basis)
C    -0.931893  2.791267  0.087006
C    -1.005609  1.903619  1.280320
O    -0.152213  2.116318  2.263684
H    -0.848167  3.837368  0.406829
H    -1.797542  2.682601  -0.572026
H    -0.026167  2.550610  -0.489360
N    -1.853467  0.930112  1.413624
C    -2.940670  0.454116  0.546749
C    -3.739118  -0.431530  1.553098
O    -3.204438  -0.675963  2.652255
H    -1.932616  0.342797  2.296980
H    -3.555177  1.308321  0.226480
C    -2.446927  -0.334946  -0.683901
C    -1.659614  -1.611667  -0.367610
C    -1.367625  -2.474220  -1.608069
C    -2.527351  -3.358670  -2.079720
N    -3.674279  -2.591318  -2.583820
H    -1.842944  0.338034  -1.312461
H    -3.326592  -0.598288  -1.285968
H    -2.211679  -2.221894  0.365440
H    -0.705439  -1.349585  0.117194
H    -0.526073  -3.143390  -1.379708
H    -1.021474  -1.838243  -2.440510
H    -2.882079  -3.973483  -1.238885
H    -2.136003  -4.064312  -2.835633
H    -3.450348  -2.124571  -3.464498
H    -4.471109  -3.201518  -2.767342
N    -4.939499  -0.900696  1.204823
C    -5.689132  -0.680141  -0.031555
H    -5.364035  -1.499202  1.910355
H    -5.602128  0.360694  -0.365525
H    -6.746558  -0.871757  0.173614
H    -5.351226  -1.350315  -0.834783
Ca    1.059825  2.450591  3.803416
