34
Energy: -36754.2530752 eV PBE+vdW (tier 2 basis)
C    -0.360850  0.066893  0.019752
C    -0.243456  -0.129730  1.489155
O    0.701860  -0.875013  1.964375
H    -0.688766  -0.866278  -0.461289
H    0.637047  0.292480  -0.379871
H    -1.049780  0.872651  -0.248632
N    -1.064511  0.433187  2.357697
C    -2.455051  0.871499  2.248909
C    -2.828096  1.144657  3.735832
O    -2.150912  0.602190  4.636050
H    -0.858277  0.304794  3.363654
H    -2.528281  1.805676  1.673457
C    -3.364494  -0.211884  1.591826
C    -3.085396  -1.677843  1.965378
C    -3.498306  -2.150793  3.380173
C    -2.483237  -3.038897  4.097013
N    -1.266988  -2.270662  4.602262
H    -3.268494  -0.108673  0.502422
H    -4.410640  0.041916  1.816839
H    -2.015965  -1.895002  1.793749
H    -3.602853  -2.298690  1.222027
H    -4.428190  -2.730220  3.304215
H    -3.740572  -1.304909  4.037526
H    -2.143431  -3.850138  3.430806
H    -2.962881  -3.526223  4.955152
H    -1.105926  -2.578076  5.568432
H    -1.563601  -1.280682  4.715261
N    -3.880009  1.931573  3.951412
C    -4.403573  2.267636  5.275896
H    -4.329085  2.363556  3.148336
H    -4.391039  3.355090  5.413317
H    -3.769734  1.799414  6.032665
H    -5.433280  1.904454  5.378322
Ca    0.758893  -2.450330  3.337155
