34
Energy: -36752.4488255 eV PBE+vdW (tier 2 basis)
C    -0.040218  0.714955  0.007353
C    0.219222  0.104404  1.338429
O    1.436176  0.099141  1.804670
H    -0.130851  1.804911  0.135020
H    -0.965075  0.352282  -0.450970
H    0.801154  0.512738  -0.664594
N    -0.732117  -0.436787  2.064474
C    -2.194642  -0.314199  1.871496
C    -2.513242  1.207895  1.806914
O    -1.810109  1.988316  2.449384
H    -0.447633  -0.785701  2.980343
H    -2.459761  -0.830528  0.938315
C    -2.846463  -1.044396  3.067268
C    -4.377598  -1.169446  3.073406
C    -5.137214  0.009315  3.695299
C    -6.647015  -0.254265  3.803942
N    -6.939033  -1.365215  4.689725
H    -2.515851  -0.539749  3.990864
H    -2.413713  -2.057421  3.077606
H    -4.630889  -2.066494  3.655593
H    -4.747331  -1.377000  2.056910
H    -4.991785  0.939712  3.128626
H    -4.735978  0.208770  4.702766
H    -7.060274  -0.496214  2.813430
H    -7.142641  0.681386  4.128814
H    -6.776867  -1.179565  5.677448
H    -7.848038  -1.799066  4.552881
N    -3.530634  1.622121  1.016411
C    -4.468425  0.869635  0.190954
H    -3.690554  2.625785  1.087738
H    -4.040374  -0.085332  -0.130016
H    -4.694396  1.452456  -0.708922
H    -5.410600  0.668904  0.719383
Ca    3.313694  0.518632  2.411660
