34
Energy: -36754.5837975 eV PBE+vdW (tier 2 basis)
C    -0.601282  2.292016  1.201352
C    -0.401617  1.602702  2.503999
O    0.467647  2.012092  3.346413
H    -1.483273  2.946587  1.330905
H    -0.832685  1.590165  0.390386
H    0.270507  2.896504  0.939091
N    -1.193290  0.567357  2.800213
C    -1.446920  0.029881  4.147055
C    -0.367867  -0.999701  4.534217
O    0.813831  -0.580219  4.786515
H    -1.895468  0.333420  2.100692
H    -1.298864  0.863379  4.852699
C    -2.908742  -0.435805  4.246631
C    -3.922794  0.632782  3.801622
C    -3.905059  1.950313  4.586115
C    -4.530830  3.096366  3.779646
N    -3.640105  3.508824  2.668338
H    -3.098574  -0.724403  5.291376
H    -3.065364  -1.335751  3.625841
H    -4.922961  0.182334  3.866677
H    -3.779824  0.863317  2.733163
H    -2.876172  2.256204  4.844648
H    -4.436495  1.828193  5.541198
H    -4.764677  3.933659  4.453964
H    -5.490224  2.762938  3.359519
H    -4.201332  3.802978  1.868562
H    -3.123513  4.344085  2.947899
N    -0.683359  -2.274553  4.617132
C    0.216423  -3.366225  4.991774
H    -1.650474  -2.520649  4.412516
H    -0.207591  -3.906341  5.846405
H    1.192600  -2.957703  5.259652
H    0.322433  -4.059243  4.148174
Ca    1.919752  1.231792  4.654888
