34
Energy: -36754.3125277 eV PBE+vdW (tier 2 basis)
C    1.151887  2.785453  2.137049
C    0.127899  2.222345  3.063318
O    -0.519603  2.991557  3.849884
H    0.650188  3.480327  1.447487
H    1.675009  2.021498  1.553047
H    1.882611  3.375251  2.705572
N    -0.107482  0.908297  3.046432
C    -1.199660  0.192963  3.729469
C    -0.884067  0.006683  5.230810
O    -0.966963  1.023642  6.001699
H    0.445173  0.344342  2.402530
H    -2.071810  0.867176  3.726233
C    -1.583707  -1.069192  2.929652
C    -0.463484  -2.023637  2.481020
C    -1.031135  -3.239405  1.737964
C    0.051597  -4.199908  1.229304
N    -0.561049  -5.276184  0.464537
H    -2.117753  -0.721419  2.033195
H    -2.339440  -1.615838  3.514367
H    0.165063  -2.374094  3.320515
H    0.238417  -1.509136  1.799305
H    -1.631539  -2.907995  0.877624
H    -1.721847  -3.784263  2.402911
H    0.672713  -4.537761  2.086035
H    0.727896  -3.652567  0.554613
H    -0.987440  -5.981901  1.064030
H    0.116167  -5.751737  -0.128613
N    -0.577877  -1.187347  5.690951
C    -0.296472  -1.530701  7.085188
H    -0.529132  -1.940216  5.005396
H    -0.936972  -2.368217  7.384796
H    -0.496988  -0.666538  7.721376
H    0.754138  -1.830241  7.186604
Ca    -1.179342  3.134767  5.845699
