34
Energy: -36752.5237587 eV PBE+vdW (tier 2 basis)
C    -0.323867  1.334027  -0.347854
C    -0.204030  0.878759  1.069012
O    0.982558  0.878154  1.632231
H    0.035777  2.368747  -0.437094
H    -1.355907  1.289806  -0.709532
H    0.301763  0.703028  -0.994640
N    -1.261854  0.489388  1.716898
C    -1.441802  0.003915  3.091820
C    -2.787935  -0.769115  2.945700
O    -3.560990  -0.362789  2.065161
H    -2.212211  0.471119  1.268792
H    -0.607945  -0.654672  3.367165
C    -1.528777  1.223879  4.047077
C    -1.886638  0.938745  5.516976
C    -3.387329  1.010617  5.831183
C    -3.710722  0.647008  7.288258
N    -3.582795  -0.790680  7.537701
H    -2.257011  1.928833  3.617893
H    -0.549930  1.726255  3.995445
H    -1.376171  1.695381  6.131485
H    -1.474247  -0.027332  5.842330
H    -3.968944  0.356276  5.164097
H    -3.745457  2.033499  5.639294
H    -4.724722  1.011993  7.525995
H    -3.022917  1.176718  7.962333
H    -3.314293  -1.005049  8.496115
H    -4.443011  -1.297053  7.330615
N    -3.057793  -1.823629  3.727321
C    -2.260557  -2.455370  4.773950
H    -3.976938  -2.223154  3.543469
H    -2.441437  -3.535473  4.743380
H    -2.526732  -2.070347  5.771328
H    -1.191022  -2.294641  4.600507
Ca    2.932893  1.086717  2.025077
