34
Energy: -36754.370927 eV PBE+vdW (tier 2 basis)
C    0.377167  1.531011  2.792210
C    -0.435593  0.280252  2.764406
O    -0.673762  -0.296737  1.654978
H    0.544234  1.923103  3.800467
H    -0.137691  2.294335  2.190998
H    1.345756  1.347349  2.308332
N    -0.900683  -0.206403  3.921144
C    -1.843675  -1.326223  4.154085
C    -1.208464  -2.691529  3.849043
O    -0.998962  -3.052226  2.644275
H    -0.658458  0.333665  4.747505
H    -2.046848  -1.281881  5.232795
C    -3.198767  -1.176990  3.431844
C    -3.969468  0.098809  3.779332
C    -5.261757  0.215316  2.966294
C    -6.064051  1.487809  3.269943
N    -7.202527  1.580554  2.363021
H    -3.799782  -2.063668  3.686844
H    -3.061816  -1.212642  2.335101
H    -3.340246  0.983678  3.590899
H    -4.197213  0.101541  4.857938
H    -5.897381  -0.666612  3.150685
H    -5.034074  0.214084  1.887439
H    -5.423309  2.366054  3.096419
H    -6.329518  1.501800  4.345873
H    -7.967450  0.972076  2.654681
H    -7.575905  2.527818  2.332536
N    -0.943257  -3.490498  4.867417
C    -0.402603  -4.848118  4.774623
H    -1.133539  -3.137648  5.802836
H    -1.038580  -5.527944  5.353056
H    0.613877  -4.870347  5.186938
H    -0.383426  -5.159981  3.728466
Ca    -1.048869  -2.143912  0.719504
