34
Energy: -36755.0272853 eV PBE+vdW (tier 2 basis)
C    0.435192  1.340463  0.862985
C    -0.253395  0.484598  1.867019
O    0.396879  -0.233780  2.682516
H    1.172498  1.991670  1.349110
H    -0.246121  1.929825  0.243098
H    1.005802  0.666944  0.203817
N    -1.613136  0.440298  1.925993
C    -2.498227  1.599345  1.906023
C    -1.951180  2.650724  2.903664
O    -1.117088  2.298870  3.800834
H    -1.968847  -0.337069  2.481989
H    -2.508776  2.046963  0.902721
C    -3.951533  1.135627  2.230506
C    -4.133896  0.145091  3.395515
C    -3.869677  0.690174  4.814833
C    -3.393632  -0.342664  5.834441
N    -2.027221  -0.917401  5.517462
H    -4.341897  0.672985  1.313907
H    -4.567395  2.028143  2.405558
H    -3.548058  -0.773603  3.207278
H    -5.169367  -0.218166  3.339315
H    -4.798352  1.128242  5.207093
H    -3.153035  1.522614  4.799295
H    -4.119191  -1.163766  5.927317
H    -3.316885  0.130651  6.821155
H    -1.736260  -1.439977  6.353023
H    -2.155469  -1.666171  4.826123
N    -2.342944  3.911707  2.822389
C    -3.270771  4.540956  1.878860
H    -1.944589  4.522324  3.537100
H    -3.378324  3.943026  0.970000
H    -2.873531  5.523517  1.602868
H    -4.256593  4.675978  2.342113
Ca    -0.179897  0.516874  4.689637
