34
Energy: -36754.3657419 eV PBE+vdW (tier 2 basis)
C    1.186050  2.002622  1.285865
C    0.315631  1.096599  2.090923
O    0.608688  -0.137032  2.193680
H    0.856699  3.046526  1.291153
H    1.205415  1.637994  0.248753
H    2.216331  1.944424  1.661829
N    -0.765035  1.614165  2.689949
C    -1.853336  0.920564  3.420697
C    -1.354928  0.333910  4.751217
O    -0.682536  -0.751233  4.756985
H    -0.910459  2.608820  2.537848
H    -2.574800  1.713028  3.647025
C    -2.597901  -0.136761  2.582127
C    -3.838803  -0.715721  3.267869
C    -4.975307  0.284981  3.509193
C    -6.311170  -0.435750  3.773297
N    -6.663662  -1.280527  2.632479
H    -1.912753  -0.955974  2.291457
H    -2.880188  0.343583  1.633430
H    -3.564332  -1.213673  4.213899
H    -4.250714  -1.501467  2.615489
H    -5.094589  0.928551  2.620737
H    -4.765813  0.957524  4.357352
H    -7.073831  0.319750  4.029652
H    -6.203580  -1.081683  4.657676
H    -7.299295  -2.027307  2.907221
H    -7.140537  -0.744740  1.907215
N    -1.641785  0.925234  5.897021
C    -2.391556  2.162639  6.144540
H    -1.305180  0.425694  6.721830
H    -2.108458  2.946602  5.435306
H    -2.140216  2.511509  7.150326
H    -3.472677  1.981849  6.096286
Ca    0.394934  -1.899004  3.329425
