34
Energy: -36754.8958892 eV PBE+vdW (tier 2 basis)
C    -1.955502  -0.649688  0.177941
C    -1.340098  -0.342690  1.505261
O    -0.068575  -0.159584  1.563000
H    -1.768625  0.185314  -0.511172
H    -3.033376  -0.823478  0.240544
H    -1.462217  -1.532121  -0.251365
N    -2.133810  -0.265830  2.560639
C    -1.777403  -0.172648  3.986042
C    -1.024460  1.097821  4.381879
O    0.197845  1.279033  4.059921
H    -3.147896  -0.670976  2.484399
H    -2.756498  -0.124635  4.478729
C    -1.077684  -1.439434  4.525127
C    -1.777350  -2.751485  4.134611
C    -3.266482  -2.905458  4.535219
C    -4.281868  -2.880382  3.387017
N    -4.530687  -1.519131  2.822954
H    -1.028276  -1.347170  5.621258
H    -0.034007  -1.478831  4.174725
H    -1.196703  -3.556412  4.603902
H    -1.670002  -2.916110  3.051532
H    -3.552579  -2.168281  5.305127
H    -3.389611  -3.877456  5.030700
H    -5.225686  -3.325938  3.733931
H    -3.918663  -3.512463  2.564676
H    -5.096173  -1.612525  1.974986
H    -5.127998  -0.996015  3.469637
N    -1.628868  2.010900  5.126345
C    -3.010426  2.034643  5.621500
H    -1.032474  2.793199  5.397931
H    -3.724640  1.907277  4.800444
H    -3.185498  3.014388  6.074522
H    -3.169834  1.267847  6.389846
Ca    1.554663  0.676786  2.544011
