34
Energy: -36754.5145483 eV PBE+vdW (tier 2 basis)
C    0.234214  -0.067671  0.139311
C    0.081616  -0.074360  1.621923
O    1.073054  -0.373384  2.362289
H    0.345698  -1.113805  -0.187701
H    1.154138  0.459040  -0.140763
H    -0.619809  0.372896  -0.385339
N    -1.115924  0.216330  2.144215
C    -1.597165  0.012819  3.531274
C    -1.010188  1.043650  4.506585
O    0.216734  0.986972  4.847734
H    -1.841395  0.432436  1.465886
H    -2.678968  0.190962  3.463343
C    -1.409890  -1.428830  4.053942
C    -1.966917  -2.492374  3.109339
C    -1.714801  -3.927669  3.579550
C    -1.917642  -4.929530  2.432972
N    -0.949072  -4.679360  1.351766
H    -1.893310  -1.480121  5.042081
H    -0.340460  -1.645407  4.235319
H    -1.499590  -2.401365  2.116467
H    -3.049004  -2.329950  2.974926
H    -2.368271  -4.188088  4.424922
H    -0.676876  -4.022972  3.945591
H    -2.930757  -4.808620  2.022477
H    -1.867469  -5.953190  2.838028
H    -0.086291  -5.196509  1.525031
H    -1.307912  -5.033920  0.465787
N    -1.827836  1.949386  5.012584
C    -1.472435  2.970718  5.999554
H    -2.793994  1.939559  4.692935
H    -2.178134  2.922349  6.836754
H    -1.529838  3.964945  5.539291
H    -0.457947  2.789053  6.359873
Ca    1.945441  -0.102990  4.252057
