34
Energy: -36753.8524436 eV PBE+vdW (tier 2 basis)
C    0.110209  -0.357989  0.167234
C    -0.165529  0.179472  1.513898
O    0.765010  0.781491  2.170366
H    -0.629459  0.009350  -0.605376
H    0.020218  -1.453406  0.138609
H    1.125749  -0.077466  -0.128057
N    -1.377477  0.095403  2.123306
C    -2.216000  -1.104907  2.208488
C    -1.441856  -2.145810  3.064528
O    -0.196781  -1.970205  3.320798
H    -1.428013  0.690888  2.949928
H    -3.095605  -0.797673  2.796614
C    -2.739715  -1.646163  0.860046
C    -3.548484  -0.585353  0.100989
C    -3.866952  -0.962948  -1.352678
C    -2.661468  -1.076160  -2.291409
N    -1.796573  0.119116  -2.233011
H    -3.375656  -2.517690  1.063320
H    -1.908900  -2.026704  0.254932
H    -3.006341  0.370283  0.114832
H    -4.492925  -0.406983  0.637506
H    -4.556526  -0.202021  -1.749479
H    -4.423628  -1.911498  -1.390410
H    -3.039540  -1.273631  -3.307845
H    -2.039603  -1.947778  -2.028524
H    -2.345183  0.964016  -2.412158
H    -1.101406  0.080567  -2.981039
N    -2.057164  -3.203732  3.560637
C    -3.472062  -3.582881  3.489536
H    -1.451780  -3.836861  4.084637
H    -4.106807  -2.707137  3.328456
H    -3.749499  -4.040323  4.444986
H    -3.636934  -4.313000  2.687379
Ca    1.503064  -0.661046  3.549572
