34
Energy: -36754.5451021 eV PBE+vdW (tier 2 basis)
C    1.156833  0.865685  0.825808
C    0.524212  0.716872  2.167747
O    1.129075  1.131335  3.213186
H    1.297686  1.938244  0.626566
H    0.563976  0.428451  0.016007
H    2.155753  0.410503  0.833659
N    -0.684245  0.157583  2.258256
C    -1.545734  0.103678  3.456637
C    -1.066322  -1.010918  4.409892
O    -0.019204  -0.813425  5.116984
H    -1.118464  -0.140744  1.386997
H    -1.387512  1.043819  4.011020
C    -3.019101  0.043775  3.047000
C    -3.493586  1.322670  2.343156
C    -5.003417  1.332964  2.056554
C    -5.888313  1.030810  3.273773
N    -5.429084  1.761190  4.466467
H    -3.611701  -0.062493  3.967977
H    -3.211863  -0.839002  2.409391
H    -2.953430  1.479436  1.396144
H    -3.246221  2.173001  2.996220
H    -5.247748  0.617089  1.257124
H    -5.255819  2.325624  1.654624
H    -5.849761  -0.044728  3.510345
H    -6.936463  1.235706  2.996001
H    -5.567912  2.765710  4.336503
H    -6.008178  1.511406  5.269051
N    -1.754429  -2.130238  4.483838
C    -1.454730  -3.276313  5.342523
H    -2.593043  -2.187139  3.907834
H    -2.314304  -3.475346  5.993529
H    -0.575145  -3.055695  5.950240
H    -1.265508  -4.159870  4.720791
Ca    1.572802  0.592851  5.200093
