34
Energy: -36754.6201933 eV PBE+vdW (tier 2 basis)
C    -0.661327  1.804684  0.135499
C    -0.871698  0.700126  1.117988
O    0.119988  -0.005248  1.496702
H    -1.571718  2.369291  -0.089605
H    -0.269415  1.371249  -0.795982
H    0.107768  2.491169  0.513076
N    -2.107829  0.477480  1.573904
C    -2.631903  -0.643395  2.384868
C    -2.183237  -0.552730  3.845210
O    -0.944192  -0.683883  4.148142
H    -2.821706  1.098250  1.202030
H    -3.725981  -0.540448  2.335343
C    -2.350591  -2.048841  1.816219
C    -2.659250  -2.219492  0.321148
C    -4.066416  -1.835489  -0.168937
C    -5.243418  -2.482247  0.571996
N    -5.641633  -1.700159  1.772385
H    -2.967909  -2.735481  2.414717
H    -1.305613  -2.356921  1.992427
H    -2.486598  -3.281203  0.089028
H    -1.913377  -1.669684  -0.274063
H    -4.118590  -2.120441  -1.229041
H    -4.204493  -0.740145  -0.165365
H    -4.969004  -3.494894  0.902196
H    -6.084128  -2.605949  -0.127700
H    -6.249986  -2.281966  2.353306
H    -6.244687  -0.930689  1.469057
N    -3.061770  -0.385697  4.815479
C    -4.516604  -0.215026  4.748314
H    -2.647922  -0.364267  5.749517
H    -4.774096  0.850722  4.800410
H    -4.956952  -0.724165  5.612062
H    -4.918632  -0.662868  3.832107
Ca    0.925442  -0.940267  3.199736
