34
Energy: -36753.1526788 eV PBE+vdW (tier 2 basis)
C    -0.628196  0.533661  0.254949
C    -0.293414  0.055144  1.624462
O    0.874839  -0.555219  1.793768
H    -0.745803  -0.327658  -0.418405
H    0.197334  1.143509  -0.135564
H    -1.549937  1.121210  0.233124
N    -1.052286  0.190425  2.661754
C    -2.374044  0.797296  2.848929
C    -2.381424  0.933827  4.406648
O    -1.503936  0.279424  5.024770
H    -0.788585  -0.095836  3.678640
H    -2.415252  1.788428  2.375999
C    -3.486407  -0.133193  2.303765
C    -4.912870  0.409195  2.439070
C    -5.223454  1.685348  1.626791
C    -6.013273  2.723433  2.424402
N    -5.168768  3.325724  3.488848
H    -3.404978  -1.098367  2.825734
H    -3.268892  -0.329408  1.241604
H    -5.135172  0.576285  3.501751
H    -5.592846  -0.395540  2.128608
H    -5.789291  1.425600  0.721917
H    -4.298071  2.163651  1.259974
H    -6.871088  2.237814  2.909971
H    -6.423406  3.488726  1.747897
H    -5.767652  3.776902  4.183608
H    -4.614314  4.086135  3.087816
N    -3.290314  1.710359  4.966156
C    -3.379991  1.861089  6.416905
H    -3.973173  2.256836  4.373742
H    -2.434845  2.234022  6.830289
H    -3.613638  0.902594  6.896629
H    -4.177225  2.576682  6.637720
Ca    2.579744  -1.462206  2.173853
