34
Energy: -36754.2773804 eV PBE+vdW (tier 2 basis)
C    -0.910930  -0.369304  -0.058316
C    -0.716974  -0.370980  1.421369
O    0.363124  -0.825183  1.917893
H    -1.858623  0.076939  -0.376221
H    -0.866261  -1.408243  -0.416017
H    -0.079005  0.165715  -0.535256
N    -1.699961  0.108231  2.193741
C    -1.840934  0.072742  3.668443
C    -0.856880  1.016377  4.368418
O    0.390024  0.737289  4.398535
H    -2.521055  0.435368  1.691976
H    -2.856799  0.444062  3.845309
C    -1.762608  -1.341135  4.284390
C    -2.799921  -2.325895  3.739778
C    -2.617597  -3.724392  4.336302
C    -3.629419  -4.751107  3.807975
N    -3.301233  -6.075909  4.320074
H    -1.885505  -1.226285  5.372795
H    -0.756042  -1.773141  4.140585
H    -2.722856  -2.386757  2.642122
H    -3.811454  -1.947415  3.960900
H    -2.693428  -3.672800  5.435082
H    -1.607706  -4.105320  4.112099
H    -3.562568  -4.788718  2.709777
H    -4.655082  -4.406151  4.047443
H    -3.613409  -6.198203  5.283236
H    -3.744658  -6.809065  3.769436
N    -1.297332  2.092004  4.998072
C    -2.670763  2.603009  5.106782
H    -0.573170  2.618311  5.489051
H    -2.621722  3.595376  5.563281
H    -3.283257  1.957868  5.748799
H    -3.133474  2.707825  4.119204
Ca    1.731850  -0.645068  3.508137
