34
Energy: -36754.3150597 eV PBE+vdW (tier 2 basis)
C    1.414951  1.413435  1.522474
C    0.350592  1.335164  2.564352
O    -0.109867  2.402923  3.094929
H    1.026271  1.990100  0.670596
H    1.741728  0.429638  1.170274
H    2.278132  1.967661  1.913805
N    -0.114183  0.137059  2.917383
C    -1.288544  -0.143143  3.765888
C    -0.956517  0.061286  5.261784
O    -0.848299  1.255241  5.707209
H    0.299388  -0.674204  2.445233
H    -2.034618  0.638505  3.547629
C    -1.893683  -1.500675  3.375906
C    -0.945168  -2.732237  3.421724
C    -0.814102  -3.474159  2.083843
C    -0.119294  -2.663234  0.982370
N    0.068937  -3.469619  -0.199673
H    -2.291016  -1.379788  2.358146
H    -2.779447  -1.662101  4.005588
H    -1.312863  -3.448825  4.171688
H    0.070246  -2.445069  3.753352
H    -1.802749  -3.792888  1.723572
H    -0.240292  -4.396586  2.256641
H    0.833144  -2.237666  1.412115
H    -0.745340  -1.801837  0.690838
H    0.730425  -4.231953  -0.060906
H    0.358428  -2.934181  -1.014723
N    -0.826868  -0.984664  6.050105
C    -0.552609  -0.952064  7.487181
H    -0.917270  -1.902191  5.614971
H    -1.292165  -1.571945  8.006834
H    -0.614475  0.076522  7.847634
H    0.449733  -1.353963  7.681539
Ca    -0.671607  3.231460  4.943695
