34
Energy: -36754.4078968 eV PBE+vdW (tier 2 basis)
C    -0.966468  -0.525355  -0.439720
C    -0.207075  -0.398108  0.838681
O    1.030701  -0.698263  0.871376
H    -2.009319  -0.201199  -0.364554
H    -0.941447  -1.578771  -0.754805
H    -0.461379  0.052526  -1.224952
N    -0.856318  0.031285  1.926455
C    -0.410437  0.094176  3.338269
C    0.678783  1.151350  3.580035
O    1.854938  1.003428  3.108053
H    -1.839463  0.247557  1.782145
H    -1.306235  0.421656  3.880537
C    -0.007392  -1.276543  3.922217
C    0.299029  -1.230860  5.427351
C    -0.860431  -0.739017  6.298096
C    -0.550069  -0.769998  7.800396
N    -1.566327  -0.016849  8.531282
H    0.853882  -1.690601  3.372492
H    -0.842716  -1.964616  3.725140
H    1.191660  -0.608348  5.613236
H    0.582320  -2.248491  5.733910
H    -1.761085  -1.342094  6.094487
H    -1.133686  0.304872  6.067617
H    0.419716  -0.278565  7.976388
H    -0.430267  -1.822209  8.123553
H    -2.438045  -0.543163  8.603845
H    -1.264808  0.168234  9.487394
N    0.365814  2.180200  4.344287
C    1.273165  3.247115  4.767308
H    -0.585382  2.220956  4.705716
H    1.219098  3.349605  5.857254
H    0.971132  4.194790  4.304228
H    2.293130  2.998238  4.467749
Ca    2.889313  -0.225861  1.724914
