34
Energy: -36753.5467621 eV PBE+vdW (tier 2 basis)
C    0.289305  -1.015723  1.010586
C    -0.063126  -1.076149  2.454993
O    0.798540  -1.437748  3.321439
H    -0.545910  -0.728161  0.366676
H    0.623277  -2.024214  0.718755
H    1.149111  -0.352786  0.842398
N    -1.306329  -0.746264  2.878330
C    -1.992967  0.492819  2.482199
C    -1.023224  1.660174  2.774817
O    -0.121526  1.505488  3.678351
H    -1.499663  -1.022592  3.843037
H    -2.236372  0.458909  1.412354
C    -3.298882  0.581341  3.312388
C    -4.248160  1.741911  3.011723
C    -5.530081  1.636639  3.847177
C    -6.510485  2.788319  3.588559
N    -7.666659  2.668893  4.462514
H    -3.023696  0.601383  4.381327
H    -3.822525  -0.371555  3.138715
H    -4.508058  1.746658  1.940973
H    -3.761257  2.705750  3.231853
H    -5.287741  1.625655  4.920904
H    -6.030546  0.678585  3.631039
H    -6.762209  2.815731  2.508078
H    -6.015410  3.744445  3.818073
H    -8.194905  3.535907  4.533042
H    -8.307000  1.930479  4.173995
N    -1.093696  2.806608  2.125248
C    -1.956107  3.214971  1.012848
H    -0.430748  3.512469  2.451062
H    -2.484972  2.358805  0.589749
H    -1.329480  3.670137  0.237430
H    -2.691009  3.951935  1.357373
Ca    1.272265  0.196059  4.663625
