34
Energy: -36753.0519034 eV PBE+vdW (tier 2 basis)
C    -1.477781  -1.840067  1.368375
C    -1.809333  -1.819244  2.819945
O    -1.900518  -2.984085  3.450983
H    -1.031647  -0.897322  1.036620
H    -2.395002  -2.006542  0.782976
H    -0.790506  -2.664849  1.149345
N    -2.020706  -0.747315  3.513300
C    -1.924502  0.681136  3.176765
C    -2.072260  1.307362  4.604134
O    -2.030387  0.510305  5.572177
H    -2.112026  -0.730638  4.592204
H    -0.893841  0.885308  2.841724
C    -2.911636  1.221044  2.138195
C    -4.395522  1.231279  2.554735
C    -5.168252  2.447962  2.016262
C    -4.995282  3.750152  2.805456
N    -3.603508  4.274672  2.801158
H    -2.781648  0.689963  1.184877
H    -2.574132  2.245237  1.934607
H    -4.485928  1.214948  3.652954
H    -4.881137  0.310107  2.201976
H    -6.242870  2.217091  2.022588
H    -4.912445  2.613955  0.956040
H    -5.271956  3.575381  3.856685
H    -5.708567  4.491852  2.411807
H    -3.333952  4.518372  1.844115
H    -3.589572  5.165173  3.304851
N    -2.205708  2.619996  4.698231
C    -2.313712  3.278019  5.998819
H    -2.507963  3.187451  3.866087
H    -2.175060  4.353499  5.853908
H    -1.539959  2.903647  6.676859
H    -3.295453  3.098036  6.458834
Ca    -1.965812  -4.653509  4.493750
