34
Energy: -36755.6258664 eV PBE+vdW (tier 2 basis)
C    1.283859  -0.582084  1.278111
C    0.601568  -0.194461  2.550525
O    1.264049  -0.074001  3.620589
H    0.608029  -0.656936  0.420190
H    1.790147  -1.545836  1.423596
H    2.066397  0.156662  1.056465
N    -0.726222  0.023610  2.510845
C    -1.625561  0.435863  3.611189
C    -1.028646  1.605240  4.418615
O    -0.392097  1.399275  5.497216
H    -1.173266  -0.122752  1.609918
H    -2.504824  0.842324  3.095735
C    -2.137833  -0.706015  4.526959
C    -1.196599  -1.889452  4.824518
C    -1.450111  -2.563684  6.179944
C    -1.004295  -1.772477  7.407593
N    0.492323  -1.563427  7.439010
H    -3.050149  -1.110755  4.069298
H    -2.467885  -0.228636  5.460770
H    -0.134345  -1.602067  4.746147
H    -1.302566  -2.640414  4.030001
H    -0.959726  -3.549804  6.189941
H    -2.523887  -2.775646  6.290631
H    -1.321217  -2.304937  8.314575
H    -1.473059  -0.778144  7.441866
H    0.730838  -1.263037  8.391856
H    0.931393  -2.489910  7.368032
N    -1.234231  2.844586  3.993807
C    -1.962490  3.294254  2.801874
H    -0.853258  3.568639  4.603075
H    -1.559403  2.832865  1.893262
H    -1.833406  4.376742  2.717781
H    -3.036560  3.085339  2.889616
Ca    1.301744  0.084646  5.800497
