34
Energy: -36754.2945182 eV PBE+vdW (tier 2 basis)
C    -1.968096  -1.383480  -0.583618
C    -0.991782  -1.816115  0.461245
O    -1.009883  -3.008754  0.910291
H    -2.460008  -2.263684  -1.007004
H    -1.476406  -0.812065  -1.378767
H    -2.739264  -0.734599  -0.138052
N    -0.092525  -0.941664  0.965286
C    -0.451710  0.424960  1.408171
C    -1.714524  0.330435  2.317481
O    -1.921561  -0.837971  2.894101
H    0.609845  -1.393471  1.549318
H    0.379401  0.701903  2.075878
C    -0.517635  1.485943  0.297391
C    -0.041116  2.864320  0.799747
C    -0.672081  4.069943  0.090786
C    -2.193930  4.150275  0.186118
N    -2.670836  3.937009  1.602269
H    0.120389  1.159887  -0.533984
H    -1.541826  1.536843  -0.095476
H    1.049862  2.931404  0.690598
H    -0.220877  2.943828  1.883748
H    -0.416255  4.071151  -0.978851
H    -0.232275  4.991379  0.501234
H    -2.693918  3.381837  -0.416395
H    -2.556702  5.126721  -0.155469
H    -2.194686  4.575884  2.250350
H    -3.675244  4.132415  1.676092
N    -2.467257  1.366114  2.489622
C    -3.587661  1.232421  3.425135
H    -2.495420  2.885743  1.932986
H    -4.069042  2.207845  3.563381
H    -3.258295  0.874758  4.410236
H    -4.348768  0.534068  3.046797
Ca    -1.812831  -2.906912  2.936169
