34
Energy: -36753.7673865 eV PBE+vdW (tier 2 basis)
C    -0.502122  -0.126276  -0.379166
C    -0.216576  -0.167177  1.081990
O    0.994915  -0.066285  1.488336
H    0.225139  0.560191  -0.832129
H    -1.521934  0.190350  -0.614604
H    -0.325985  -1.112891  -0.834976
N    -1.181278  -0.263647  2.030053
C    -2.236875  -1.288360  2.115842
C    -1.558013  -2.563660  2.678751
O    -0.282345  -2.699296  2.650563
H    -0.822848  -0.003899  2.950881
H    -2.951649  -0.921990  2.868625
C    -3.012496  -1.556795  0.812851
C    -4.408759  -2.167661  1.004786
C    -5.261587  -2.084312  -0.274641
C    -5.633289  -0.665809  -0.724686
N    -4.480311  0.075806  -1.284595
H    -2.421725  -2.187198  0.131248
H    -3.169657  -0.594082  0.298914
H    -4.935845  -1.633125  1.814231
H    -4.347494  -3.228266  1.302747
H    -6.193101  -2.639507  -0.096371
H    -4.753862  -2.613932  -1.097869
H    -6.010347  -0.094390  0.137109
H    -6.471308  -0.738067  -1.437668
H    -4.736903  1.055608  -1.416336
H    -4.270128  -0.277896  -2.220681
N    -2.327247  -3.512191  3.173734
C    -1.850059  -4.796060  3.697957
H    -3.331996  -3.348209  3.170613
H    -2.719034  -5.422749  3.913812
H    -1.281603  -4.643858  4.623627
H    -1.218150  -5.298600  2.957323
Ca    1.673288  -1.849794  2.465412
