34
Energy: -36752.6559092 eV PBE+vdW (tier 2 basis)
C    0.314670  -1.174582  0.374675
C    -0.162230  -0.030421  1.206950
O    0.492640  1.107092  1.148169
H    0.296490  -0.893064  -0.687575
H    -0.302745  -2.068000  0.510345
H    1.352295  -1.421301  0.639778
N    -1.202519  -0.173808  1.972575
C    -1.872866  0.752128  2.887685
C    -2.587601  -0.255287  3.845768
O    -2.777813  -1.402399  3.420005
H    -1.691639  -1.101167  2.082080
H    -1.127395  1.359531  3.423058
C    -2.875402  1.639951  2.110005
C    -3.575092  2.710004  2.956231
C    -4.560073  3.590811  2.166401
C    -5.902720  2.928581  1.827601
N    -5.780666  1.862205  0.834897
H    -3.627216  0.996340  1.630101
H    -2.322667  2.131639  1.292117
H    -2.817941  3.360120  3.427556
H    -4.130924  2.234567  3.778782
H    -4.085930  3.960518  1.241236
H    -4.778841  4.485226  2.766993
H    -6.603501  3.720154  1.502204
H    -6.335361  2.491988  2.739551
H    -6.589199  1.242667  0.821699
H    -5.636472  2.219861  -0.109055
N    -2.950284  0.188474  5.054655
C    -3.669004  -0.630805  6.030439
H    -2.737299  1.148431  5.303810
H    -3.144692  -0.609553  6.992453
H    -3.707463  -1.657761  5.658131
H    -4.691704  -0.257844  6.167543
Ca    1.828575  2.546745  0.769515
