34
Energy: -36753.8642322 eV PBE+vdW (tier 2 basis)
C    -0.798512  0.195247  -0.465289
C    -0.630790  -0.258822  0.944693
O    0.429282  -0.877808  1.305440
H    -0.222932  1.116463  -0.647178
H    -1.843744  0.371877  -0.736424
H    -0.372416  -0.574340  -1.121805
N    -1.578504  -0.011834  1.869738
C    -2.239006  1.282975  2.014703
C    -1.157992  2.290796  2.515488
O    0.053482  1.916806  2.697961
H    -1.471893  -0.526824  2.745990
H    -2.566382  1.624415  1.021264
C    -3.464156  1.178667  2.939837
C    -3.159010  0.808297  4.397826
C    -4.427460  0.605886  5.248761
C    -5.152910  -0.725648  5.025253
N    -5.656380  -0.866254  3.646535
H    -4.150024  0.424753  2.519686
H    -4.014784  2.131894  2.905363
H    -2.531220  1.586201  4.865083
H    -2.576824  -0.131880  4.447714
H    -5.121721  1.444832  5.074690
H    -4.150111  0.665410  6.310740
H    -5.942398  -0.820849  5.790686
H    -4.448107  -1.551791  5.207726
H    -5.935367  -1.832715  3.474374
H    -6.508309  -0.313702  3.528263
N    -1.535458  3.532760  2.735190
C    -0.678599  4.623941  3.205822
H    -2.522563  3.745031  2.601505
H    0.351869  4.447752  2.887420
H    -0.719098  4.694397  4.300544
H    -1.038470  5.562508  2.773308
Ca    1.561835  0.390615  2.616174
