34
Energy: -36754.3619766 eV PBE+vdW (tier 2 basis)
C    0.072656  -1.277251  0.263285
C    -0.171561  -0.861389  1.673508
O    0.769997  -0.352093  2.369628
H    -0.806639  -1.721828  -0.213613
H    0.386955  -0.395756  -0.313872
H    0.905569  -1.992222  0.230104
N    -1.388952  -1.017326  2.200046
C    -1.800320  -0.518112  3.519736
C    -1.153982  -1.362171  4.641252
O    -0.070491  -0.897638  5.160358
H    -2.125961  -1.399223  1.608893
H    -1.305582  0.455944  3.643633
C    -3.331186  -0.260329  3.613613
C    -4.245853  -0.969941  2.608785
C    -5.736588  -0.651803  2.840795
C    -6.262335  -0.956146  4.246272
N    -5.893012  -2.314354  4.689088
H    -3.474075  0.823489  3.505111
H    -3.647370  -0.500284  4.637215
H    -4.111511  -2.060230  2.651446
H    -4.007628  -0.648067  1.580592
H    -6.316054  -1.222589  2.099544
H    -5.931101  0.408350  2.619898
H    -7.351281  -0.780670  4.246461
H    -5.844614  -0.245363  4.975252
H    -6.248511  -2.472183  5.633901
H    -6.367564  -3.008687  4.106186
N    -1.627575  -2.510804  5.080330
C    -2.759804  -3.316711  4.611788
H    -1.081872  -2.904306  5.848068
H    -2.737945  -4.258216  5.167140
H    -2.644311  -3.546685  3.545964
H    -3.741055  -2.829406  4.781500
Ca    1.638370  -0.017281  4.272732
