34
Energy: -36753.8249107 eV PBE+vdW (tier 2 basis)
C    0.913320  1.353637  0.315155
C    0.555034  0.699971  1.602864
O    1.420368  0.565949  2.530112
H    0.083109  1.406598  -0.393904
H    1.716888  0.750046  -0.137061
H    1.341276  2.350924  0.482592
N    -0.698149  0.236399  1.814762
C    -1.906046  1.045907  1.577861
C    -1.683790  2.402667  2.271942
O    -0.920491  2.449701  3.314070
H    -0.778593  -0.375588  2.629338
H    -2.070823  1.183833  0.501461
C    -3.098924  0.271827  2.198989
C    -4.500025  0.847873  1.981701
C    -5.056787  0.699447  0.562349
C    -6.385773  1.447318  0.382335
N    -6.200919  2.913338  0.469697
H    -2.903837  0.178733  3.281180
H    -3.046630  -0.743832  1.775623
H    -4.543149  1.901985  2.296913
H    -5.167790  0.316520  2.676375
H    -5.210365  -0.366964  0.336758
H    -4.343929  1.071362  -0.193271
H    -7.090018  1.120530  1.160917
H    -6.834537  1.157276  -0.577952
H    -6.338577  3.341283  -0.445700
H    -6.904876  3.331766  1.076050
N    -2.249684  3.506285  1.829985
C    -3.057055  3.729062  0.626423
H    -2.094237  4.323279  2.422571
H    -2.710968  3.084588  -0.188333
H    -2.918147  4.772444  0.326467
H    -4.136891  3.534631  0.800733
Ca    0.861959  1.757485  4.249697
