34
Energy: -36754.5454722 eV PBE+vdW (tier 2 basis)
C    0.903029  -0.147172  1.599260
C    -0.234632  0.764337  1.958719
O    0.061439  1.741258  2.811178
H    0.587511  -0.902738  0.875000
H    1.280044  -0.652971  2.499001
H    1.740931  0.437560  1.195422
N    -1.401943  0.551124  1.431409
C    -2.503258  1.465245  1.730021
C    -3.038498  1.189349  3.142597
O    -2.563482  1.820054  4.146589
H    -1.690767  0.957654  -3.104250
H    -2.156336  2.517023  1.775364
C    -3.577230  1.339535  0.631217
C    -3.032216  1.438753  -0.801786
C    -2.380163  2.779630  -1.168188
C    -2.181557  2.977304  -2.665658
N    -1.289870  1.892384  -3.265812
H    -4.363384  2.092040  0.794781
H    -4.061806  0.353022  0.692955
H    -3.875164  1.245681  -1.484971
H    -2.310034  0.614081  -0.920814
H    -1.418556  2.907702  -0.645402
H    -3.016866  3.617596  -0.844614
H    -1.697774  3.931951  -2.903103
H    -3.128761  2.918034  -3.216775
H    -1.175978  2.015660  -4.281310
H    -0.352226  1.901688  -2.841427
N    -3.957667  0.254228  3.321270
C    -4.483955  -0.163837  4.619091
H    -4.278761  -0.246367  2.498283
H    -5.485369  -0.579762  4.475462
H    -4.541845  0.700132  5.287262
H    -3.840108  -0.930012  5.071301
Ca    -0.597749  2.579835  4.535928
