34
Energy: -36754.9736074 eV PBE+vdW (tier 2 basis)
C    1.153969  -0.138256  1.340104
C    0.524401  0.002027  2.687951
O    1.275868  0.325443  3.680864
H    1.559495  0.836404  1.033631
H    0.456897  -0.498321  0.580383
H    2.003980  -0.829499  1.405025
N    -0.778526  -0.198039  2.820371
C    -1.547582  0.074420  4.051089
C    -1.270629  -0.956939  5.171251
O    -0.204195  -0.860247  5.868312
H    -1.369295  -0.261090  1.896707
H    -1.173021  1.021121  4.477983
C    -3.029499  0.285279  3.695701
C    -3.796179  -0.897578  3.037645
C    -4.460474  -0.577189  1.684133
C    -3.576236  -0.848265  0.470655
N    -2.302192  -0.076405  0.507699
H    -3.064865  1.161578  3.034007
H    -3.543062  0.606505  4.612168
H    -4.584941  -1.231765  3.728064
H    -3.132471  -1.764844  2.876058
H    -4.816696  0.465451  1.680680
H    -5.361380  -1.194717  1.568672
H    -4.141474  -0.638265  -0.449665
H    -3.306208  -1.914043  0.443521
H    -2.513328  0.921461  0.407149
H    -1.761825  -0.310673  -0.329209
N    -2.152694  -1.897691  5.442709
C    -2.010531  -2.886819  6.513760
H    -2.984425  -1.945222  4.858199
H    -2.988854  -3.337718  6.699619
H    -1.653471  -2.399889  7.426933
H    -1.302119  -3.672368  6.221167
Ca    1.710004  0.044307  5.692143
