34
Energy: -36754.9162806 eV PBE+vdW (tier 2 basis)
C    -1.515309  -1.711238  0.346538
C    -1.497106  -1.159334  1.736082
O    -1.224646  0.090637  1.888300
H    -1.805774  -2.764515  0.310347
H    -0.521856  -1.584331  -0.105733
H    -2.217881  -1.128772  -0.264273
N    -1.761496  -1.973135  2.743178
C    -1.661896  -1.685202  4.183828
C    -2.580714  -0.554259  4.664964
O    -2.279767  0.674302  4.508891
H    -1.710277  -3.071366  2.563655
H    -2.039482  -2.603258  4.659741
C    -0.199761  -1.491542  4.653118
C    0.565305  -2.794918  4.946108
C    0.789689  -3.833032  3.824308
C    -0.289149  -4.916926  3.629450
N    -1.291344  -4.596942  2.567460
H    -0.202551  -0.895604  5.578260
H    0.343532  -0.902488  3.896273
H    0.088267  -3.294657  5.805156
H    1.552756  -2.482708  5.314191
H    1.715976  -4.363855  4.080461
H    1.007725  -3.338164  2.863420
H    -0.840521  -5.072108  4.567325
H    0.199695  -5.873149  3.397577
H    -2.076970  -5.249404  2.632132
H    -0.868985  -4.783965  1.653713
N    -3.682031  -0.903821  5.309481
C    -4.655287  0.020946  5.892148
H    -3.875160  -1.897883  5.401374
H    -5.503494  0.161441  5.209655
H    -4.173408  0.982980  6.082843
H    -5.021053  -0.399056  6.834552
Ca    -1.235027  1.805325  3.046480
