34
Energy: -36752.9866929 eV PBE+vdW (tier 2 basis)
C    -1.052315  -0.022317  -0.563055
C    -0.714487  0.625027  0.728843
O    0.471100  1.210089  0.852955
H    -0.998790  0.728371  -1.365201
H    -2.056816  -0.479181  -0.559919
H    -0.302130  -0.792816  -0.792554
N    -1.507391  0.668188  1.753733
C    -2.860434  0.137306  1.957004
C    -3.300984  0.960284  3.205323
O    -2.412031  1.540405  3.856018
H    -1.278465  1.188320  2.650085
H    -3.485705  0.353977  1.080004
C    -2.808348  -1.388884  2.206947
C    -4.157380  -2.082692  2.442165
C    -5.228521  -1.959719  1.345938
C    -4.836676  -2.470225  -0.045660
N    -4.097112  -1.452335  -0.834013
H    -2.153787  -1.573131  3.072083
H    -2.319563  -1.836711  1.330015
H    -4.580331  -1.758084  3.404513
H    -3.932213  -3.150824  2.582888
H    -5.594133  -0.920378  1.243434
H    -6.103700  -2.530458  1.687062
H    -5.744657  -2.809681  -0.569486
H    -4.188423  -3.353480  0.054932
H    -3.780377  -1.888249  -1.703636
H    -4.760894  -0.735544  -1.140004
N    -4.601938  0.985552  3.499915
C    -5.159793  1.668275  4.666057
H    -5.241306  0.481902  2.893210
H    -5.942836  2.367136  4.350151
H    -4.357649  2.218921  5.163490
H    -5.587370  0.939930  5.366178
Ca    2.222272  2.091044  1.033612
