34
Energy: -36755.5700895 eV PBE+vdW (tier 2 basis)
C    -0.720726  1.324808  0.693120
C    -1.591211  0.293710  1.343252
O    -2.349949  -0.420883  0.629160
H    -0.091851  1.882286  1.394707
H    -1.361517  2.031234  0.147678
H    -0.080029  0.834761  -0.051981
N    -1.514308  0.183142  2.680246
C    -2.232857  -0.616368  3.705266
C    -2.271516  -2.129653  3.438536
O    -2.795980  -2.642539  2.407925
H    -0.859524  0.838525  3.098297
H    -1.576652  -0.487386  4.574937
C    -3.618563  -0.033479  4.165016
C    -4.918257  -0.694377  3.687990
C    -5.335173  -0.381113  2.244942
C    -6.284945  -1.424282  1.628606
N    -5.906501  -1.705365  0.202327
H    -3.613008  1.038874  3.920246
H    -3.608210  -0.085243  5.261975
H    -5.715021  -0.367260  4.370519
H    -4.851179  -1.784061  3.830755
H    -4.430919  -0.282462  1.617653
H    -5.787054  0.619425  2.192233
H    -7.332989  -1.105361  1.704519
H    -6.209326  -2.377638  2.172813
H    -6.544014  -2.414258  -0.176475
H    -6.104607  -0.869856  -0.360431
N    -1.786449  -2.900184  4.404438
C    -1.819606  -4.363840  4.386705
H    -1.343518  -2.453272  5.202133
H    -1.684036  -4.727188  5.408979
H    -1.014432  -4.759756  3.754628
H    -2.784194  -4.708970  4.001458
Ca    -3.511018  -2.211071  0.398176
