34
Energy: -36752.6301635 eV PBE+vdW (tier 2 basis)
C    -0.019537  -1.291363  0.112997
C    -0.283730  -0.189250  1.084343
O    0.603596  0.768081  1.210142
H    0.096800  -0.875023  -0.897390
H    -0.826570  -2.030469  0.097005
H    0.918078  -1.800537  0.376363
N    -1.376255  -0.192748  1.791614
C    -1.882889  0.749508  2.796314
C    -2.882328  -0.153993  3.575967
O    -3.415773  -1.082909  2.956976
H    -2.079658  -0.961207  1.702381
H    -1.058597  1.079370  3.445388
C    -2.552754  1.950788  2.082040
C    -3.375642  2.906169  2.965952
C    -4.849903  2.530265  3.207673
C    -5.738433  2.479982  1.959182
N    -5.476679  1.303089  1.130512
H    -3.206134  1.553850  1.289385
H    -1.744354  2.513557  1.587440
H    -3.357367  3.892678  2.478602
H    -2.876297  3.062212  3.937616
H    -5.273665  3.282659  3.888077
H    -4.937323  1.572191  3.741236
H    -5.574806  3.374851  1.339541
H    -6.794101  2.525242  2.288511
H    -5.677336  0.426934  1.614219
H    -5.996419  1.317806  0.254014
N    -3.079889  0.128145  4.870637
C    -4.026344  -0.599906  5.713820
H    -2.604330  0.929801  5.270810
H    -3.567558  -0.807344  6.686416
H    -4.278318  -1.542192  5.219797
H    -4.944329  -0.016536  5.866644
Ca    2.165592  2.008918  1.035080
