34
Energy: -36754.3996418 eV PBE+vdW (tier 2 basis)
C    -0.093791  1.075624  0.428659
C    -0.184428  0.272210  1.683442
O    0.548033  -0.759685  1.826679
H    -0.732927  1.964329  0.429284
H    -0.377746  0.431966  -0.416690
H    0.948634  1.377214  0.261510
N    -1.045230  0.664415  2.630003
C    -1.474865  -0.019957  3.872940
C    -0.369496  -0.067335  4.935256
O    0.675065  -0.780551  4.748743
H    -1.575381  1.502188  2.404455
H    -2.281116  0.614747  4.256714
C    -2.088435  -1.418294  3.652837
C    -2.698401  -1.979908  4.938536
C    -3.520511  -3.254539  4.726826
C    -4.311766  -3.633171  5.988223
N    -5.199207  -2.534176  6.387141
H    -1.345469  -2.116429  3.229164
H    -2.864257  -1.309128  2.880604
H    -3.379500  -1.237404  5.386652
H    -1.910201  -2.173945  5.686887
H    -2.878098  -4.099070  4.431736
H    -4.227605  -3.096323  3.895499
H    -3.610528  -3.818347  6.816211
H    -4.833235  -4.587866  5.802517
H    -6.050653  -2.536110  5.823589
H    -5.502494  -2.650277  7.353342
N    -0.514722  0.582553  6.075077
C    -1.633421  1.418920  6.532746
H    0.245180  0.435497  6.741075
H    -1.889644  2.179400  5.787290
H    -1.312867  1.933530  7.442704
H    -2.511095  0.803959  6.767411
Ca    1.619436  -1.905149  3.223645
