34
Energy: -36752.8649049 eV PBE+vdW (tier 2 basis)
C    -1.016071  2.198215  0.224021
C    -0.898323  1.538024  1.554334
O    -0.023609  2.019031  2.409033
H    -0.126458  1.961501  -0.378365
H    -1.043325  3.287332  0.352656
H    -1.901746  1.877645  -0.331212
N    -1.608072  0.510169  1.918601
C    -2.700592  -0.201294  1.245244
C    -3.342594  -0.965054  2.448445
O    -2.737085  -0.956780  3.532819
H    -1.558886  0.101202  2.893198
H    -3.419330  0.530516  0.847427
C    -2.228467  -1.148047  0.120597
C    -1.355294  -2.318521  0.576925
C    -0.945346  -3.227115  -0.587890
C    -0.238419  -4.509934  -0.131029
N    -1.130000  -5.365708  0.638503
H    -1.709128  -0.550370  -0.645207
H    -3.131868  -1.530692  -0.379670
H    -1.892759  -2.925629  1.321371
H    -0.449669  -1.942788  1.082408
H    -0.283146  -2.688255  -1.282871
H    -1.838110  -3.503876  -1.173521
H    0.622801  -4.258970  0.505781
H    0.171570  -5.020929  -1.022819
H    -0.648782  -6.063973  1.200446
H    -1.845558  -5.821727  0.074327
N    -4.500025  -1.588619  2.217943
C    -5.211275  -2.378183  3.222424
H    -4.910425  -1.522848  1.291813
H    -6.236641  -2.006877  3.332538
H    -4.684238  -2.282772  4.175014
H    -5.238588  -3.434205  2.927006
Ca    1.225806  2.829345  3.743185
