34
Energy: -36754.2938312 eV PBE+vdW (tier 2 basis)
C    -0.189274  0.101695  -0.117215
C    -0.104333  0.105712  1.371314
O    0.910385  0.613905  1.956167
H    0.708740  -0.368682  -0.538510
H    -0.195675  1.144608  -0.466999
H    -1.080433  -0.406384  -0.499420
N    -1.108063  -0.416591  2.080190
C    -1.296855  -0.329084  3.541094
C    -0.376971  -1.331533  4.271873
O    0.863521  -1.042305  4.393972
H    -1.888250  -0.811037  1.557530
H    -0.913493  0.657294  3.848192
C    -2.801152  -0.355303  3.875280
C    -3.644606  -1.561260  3.409638
C    -5.135915  -1.216943  3.271940
C    -5.831554  -0.856039  4.590905
N    -7.226271  -0.531442  4.331621
H    -3.220496  0.555281  3.419742
H    -2.900923  -0.207416  4.959754
H    -3.566423  -2.408680  4.116569
H    -3.291310  -1.954771  2.440582
H    -5.648473  -2.081114  2.823416
H    -5.263842  -0.383448  2.563744
H    -5.366883  0.039997  5.032013
H    -5.670273  -1.682252  5.317856
H    -7.774367  -1.362068  4.107697
H    -7.666340  -0.090462  5.137385
N    -0.882642  -2.438842  4.768997
C    -0.149275  -3.467076  5.507679
H    -1.881736  -2.588988  4.620154
H    -0.685195  -3.689188  6.437377
H    0.855064  -3.106313  5.738122
H    -0.086309  -4.382043  4.905199
Ca    2.265647  0.306708  3.539356
