34
Energy: -36754.5032074 eV PBE+vdW (tier 2 basis)
C    0.064813  -0.497205  0.101204
C    -0.109074  -0.108432  1.529745
O    0.840265  0.465316  2.161599
H    0.242245  0.414616  -0.487933
H    -0.800025  -1.025355  -0.312916
H    0.960427  -1.123158  -0.005288
N    -1.274041  -0.354453  2.136047
C    -1.682179  0.130565  3.470805
C    -1.011137  -0.725931  4.566653
O    0.200735  -0.475180  4.887173
H    -1.998559  -0.806342  1.581093
H    -1.254770  1.138788  3.592582
C    -3.208353  0.257206  3.544585
C    -3.694844  1.012923  4.785368
C    -5.204139  1.276883  4.776821
C    -5.615034  2.262467  5.879533
N    -4.927004  3.548016  5.702786
H    -3.690272  -0.734822  3.454777
H    -3.523940  0.811433  2.646573
H    -3.193350  1.993222  4.842424
H    -3.426855  0.471912  5.708439
H    -5.768788  0.339089  4.893880
H    -5.495963  1.695251  3.798899
H    -5.324483  1.854872  6.859802
H    -6.715736  2.340183  5.889473
H    -5.401993  4.113438  4.997658
H    -4.958182  4.091772  6.564406
N    -1.695520  -1.695224  5.134994
C    -1.215095  -2.594831  6.184047
H    -2.665584  -1.801119  4.842221
H    -1.868074  -2.508614  7.060693
H    -0.194214  -2.321816  6.457716
H    -1.240040  -3.629374  5.820588
Ca    1.841763  0.559762  4.014117
