34
Energy: -36754.0471697 eV PBE+vdW (tier 2 basis)
C    -0.723395  -0.547567  -0.247435
C    -0.498249  -0.601410  1.223582
O    0.612138  -0.215485  1.727586
H    0.068692  -1.109349  -0.760549
H    -0.638566  0.497056  -0.580183
H    -1.700616  -0.940762  -0.545540
N    -1.471108  -1.048958  2.020993
C    -1.386804  -1.018479  3.488403
C    -0.336550  -2.036821  3.998526
O    0.782376  -1.539146  4.391694
H    -2.358203  -1.337806  1.605219
H    -0.898838  -0.063543  3.734893
C    -2.759732  -0.915020  4.196500
C    -3.895646  -1.925530  3.980415
C    -4.403649  -2.081792  2.542529
C    -5.696279  -2.903341  2.423769
N    -6.027587  -3.100341  1.014884
H    -3.131213  0.084507  3.919558
H    -2.533119  -0.851262  5.271619
H    -4.727332  -1.557230  4.600443
H    -3.644077  -2.903768  4.410758
H    -3.677768  -2.604092  1.888878
H    -4.577770  -1.086264  2.095787
H    -6.488727  -2.411746  3.018925
H    -5.533907  -3.891322  2.880174
H    -6.632252  -3.910904  0.890259
H    -6.537833  -2.301653  0.637217
N    -0.481274  -3.348047  4.029496
C    -1.541173  -4.223193  3.529172
H    0.324065  -3.828952  4.435467
H    -1.073454  -5.027048  2.948566
H    -2.229823  -3.676844  2.884138
H    -2.091095  -4.669286  4.366200
Ca    2.029106  -0.196460  3.301997
