34
Energy: -36753.8550527 eV PBE+vdW (tier 2 basis)
C    -0.478018  0.273092  -0.162446
C    -0.282734  0.179430  1.277801
O    0.860341  0.444364  1.816340
H    -1.053963  1.260653  -0.390223
H    -1.142660  -0.494831  -0.573166
H    0.474844  0.299237  -0.697264
N    -1.299012  -0.131910  2.133551
C    -2.227972  -1.255098  1.962964
C    -1.370813  -2.543479  1.758753
O    -0.119233  -2.533300  2.016724
H    -1.068844  0.076807  3.103440
H    -2.689007  -1.380648  2.956961
C    -3.394681  -1.067307  0.968811
C    -4.308400  0.143061  1.247954
C    -3.767951  1.529664  0.864713
C    -3.565576  1.749596  -0.646095
N    -2.305561  2.470458  -0.911495
H    -4.031743  -1.962329  1.048013
H    -3.026355  -1.055176  -0.066006
H    -4.587210  0.144655  2.313091
H    -5.247560  -0.035730  0.703686
H    -2.820179  1.721926  1.385632
H    -4.470278  2.280139  1.251867
H    -4.439901  2.270119  -1.067225
H    -3.501733  0.789136  -1.181019
H    -2.204137  2.676031  -1.907717
H    -2.289794  3.371813  -0.428463
N    -1.965563  -3.651185  1.364706
C    -1.301115  -4.950403  1.216825
H    -2.959327  -3.602345  1.155535
H    -0.551282  -4.907262  0.417866
H    -2.057354  -5.695658  0.958146
H    -0.817658  -5.238338  2.157232
Ca    1.691949  -1.417905  2.398724
