34
Energy: -36754.282722 eV PBE+vdW (tier 2 basis)
C    1.072048  1.757344  1.711280
C    -0.009434  1.522811  2.711296
O    -0.576439  2.512126  3.287398
H    0.667013  2.374578  0.896590
H    1.478069  0.830812  1.292831
H    1.884018  2.334316  2.173715
N    -0.373373  0.268781  2.980548
C    -1.549195  -0.174664  3.756026
C    -1.327808  -0.001917  5.276081
O    -1.379100  1.174733  5.774724
H    0.081932  -0.467111  2.431636
H    -2.370452  0.524149  3.525073
C    -1.965486  -1.572640  3.269656
C    -0.924241  -2.719481  3.408185
C    -0.706873  -3.519577  2.114270
C    0.217622  -2.816760  1.113444
N    0.301544  -3.562051  -0.121097
H    -2.238816  -1.453392  2.211159
H    -2.903794  -1.837952  3.775916
H    -1.256488  -3.421778  4.189178
H    0.058015  -2.337498  3.743104
H    -1.681641  -3.729310  1.645688
H    -0.268746  -4.497855  2.350171
H    1.229979  -2.764641  1.546305
H    -0.121185  -1.750017  0.979013
H    1.072553  -3.270045  -0.717080
H    -0.558179  -3.537209  -0.666760
N    -1.135614  -1.061718  6.031971
C    -0.961100  -1.061730  7.484833
H    -1.092980  -1.963623  5.557476
H    -1.616920  -1.823083  7.921715
H    -1.218967  -0.079052  7.884684
H    0.080213  -1.302212  7.734355
Ca    -1.327174  3.195667  5.126618
