34
Energy: -36752.6020589 eV PBE+vdW (tier 2 basis)
C    1.617041  0.682685  1.624328
C    0.864820  0.222133  2.837013
O    1.447496  0.069147  3.930103
H    2.206505  1.569917  1.883587
H    0.979751  0.902461  0.761171
H    2.330367  -0.106289  1.344466
N    -0.471172  -0.008598  2.677515
C    -1.427508  -0.707142  3.554626
C    -1.499169  -0.206961  4.995175
O    -2.673903  -0.233270  5.575500
H    -0.827672  0.158348  1.742051
H    -2.411711  -0.449708  3.139076
C    -1.339487  -2.264699  3.524049
C    -0.001106  -2.920699  3.908272
C    0.943042  -3.148292  2.719639
C    2.355961  -3.549322  3.152358
N    3.231312  -3.688739  2.005667
H    -1.630354  -2.575497  2.509295
H    -2.144203  -2.629089  4.182609
H    -0.221618  -3.891595  4.374769
H    0.511550  -2.333566  4.685427
H    1.024589  -2.249597  2.093558
H    0.518532  -3.929153  2.067822
H    2.303217  -4.473666  3.764762
H    2.776190  -2.768038  3.803559
H    2.982781  -4.439600  1.364243
H    4.222409  -3.730187  2.230331
N    -0.434389  0.172491  5.631981
C    -0.402686  0.631543  7.014231
H    0.480803  0.121836  5.019377
H    0.618596  0.942812  7.250189
H    -0.688303  -0.176372  7.702120
H    -1.069979  1.492427  7.157695
Ca    -4.430092  -0.201505  6.543575
