34
Energy: -36754.5179462 eV PBE+vdW (tier 2 basis)
C    -0.313479  0.539956  -0.080886
C    -0.300947  0.413205  1.404098
O    0.769798  0.631163  2.062421
H    0.462684  -0.106815  -0.511117
H    -0.049240  1.573808  -0.346612
H    -1.281452  0.293016  -0.528467
N    -1.427436  0.079833  2.043002
C    -1.598445  0.074946  3.507845
C    -0.854791  -1.132469  4.124689
O    0.343256  -0.921473  4.546385
H    -2.263916  -0.061659  1.480273
H    -1.040063  0.942958  3.891998
C    -3.070091  0.276972  3.886877
C    -3.288975  0.329081  5.403524
C    -4.759242  0.515466  5.808730
C    -5.724838  -0.565325  5.311187
N    -5.235595  -1.924231  5.619154
H    -3.694161  -0.505863  3.436437
H    -3.385388  1.230143  3.433694
H    -2.700154  1.157355  5.828239
H    -2.908487  -0.594006  5.866589
H    -5.125084  1.493073  5.460215
H    -4.798787  0.558475  6.907837
H    -5.849113  -0.498754  4.218990
H    -6.718982  -0.355762  5.739914
H    -5.926584  -2.610129  5.308453
H    -5.177447  -2.047426  6.633336
N    -1.358827  -2.345851  4.213811
C    -2.662489  -2.875936  3.795122
H    -0.732465  -3.010502  4.670470
H    -2.897094  -2.557607  2.773744
H    -3.471061  -2.565880  4.491917
H    -2.583759  -3.966866  3.799395
Ca    1.954062  0.207306  3.768310
