34
Energy: -36754.5733417 eV PBE+vdW (tier 2 basis)
C    0.062382  0.715309  0.116222
C    -0.111623  0.704173  1.596984
O    0.833469  1.103154  2.358010
H    0.227718  1.753678  -0.206435
H    -0.797863  0.307439  -0.423981
H    0.964343  0.150875  -0.154238
N    -1.268598  0.285780  2.113662
C    -1.695098  0.393673  3.525758
C    -0.992404  -0.688160  4.375083
O    0.212342  -0.494790  4.759155
H    -1.995316  0.008828  1.456028
H    -1.310326  1.353554  3.908033
C    -3.222934  0.428392  3.585996
C    -3.796481  0.829574  4.954496
C    -5.314280  1.079216  4.924242
C    -5.752740  2.366844  4.217166
N    -5.477313  2.336427  2.764889
H    -3.649968  -0.535185  3.248497
H    -3.587000  1.174588  2.855584
H    -3.293507  1.751493  5.293420
H    -3.573355  0.065573  5.716757
H    -5.673129  1.126919  5.962089
H    -5.827825  0.213143  4.473297
H    -5.197979  3.216946  4.642693
H    -6.816504  2.544660  4.449157
H    -6.176550  1.756036  2.296059
H    -5.600601  3.271474  2.373937
N    -1.653844  -1.781733  4.686874
C    -1.152972  -2.900717  5.484509
H    -2.618476  -1.834416  4.362442
H    -1.830996  -3.073774  6.328439
H    -0.154800  -2.663335  5.857550
H    -1.114365  -3.806270  4.866578
Ca    1.842857  0.730444  4.166514
