34
Energy: -36754.4936674 eV PBE+vdW (tier 2 basis)
C    0.553578  0.279613  0.495420
C    0.020627  0.343961  1.886698
O    0.700872  0.906413  2.809914
H    0.678437  1.307719  0.124768
H    -0.096370  -0.269916  -0.193067
H    1.550905  -0.179021  0.500093
N    -1.177482  -0.182389  2.147799
C    -1.962605  -0.038590  3.391055
C    -1.426786  -0.989364  4.481877
O    -0.319052  -0.711996  5.058859
H    -1.670851  -0.606975  1.364544
H    -1.770827  0.975980  3.776387
C    -3.454418  -0.176511  3.070709
C    -4.024301  0.942916  2.184828
C    -3.944834  2.356736  2.784222
C    -4.448729  2.482158  4.230695
N    -5.699525  1.744493  4.424866
H    -4.028195  -0.166614  4.010698
H    -3.640516  -1.149999  2.582240
H    -5.075906  0.681147  2.012969
H    -3.553047  0.942784  1.189020
H    -4.535215  3.020599  2.135324
H    -2.917679  2.756544  2.732924
H    -4.504443  3.556641  4.483058
H    -3.708671  2.052819  4.930925
H    -6.023561  1.833815  5.388097
H    -6.443426  2.137100  3.844615
N    -2.131131  -2.052183  4.806081
C    -1.786776  -3.042753  5.826089
H    -3.016678  -2.177217  4.317050
H    -2.600248  -3.104250  6.558604
H    -0.861844  -2.746821  6.324576
H    -1.657487  -4.024313  5.353919
Ca    1.309989  0.625799  4.805520
