34
Energy: -36753.5874723 eV PBE+vdW (tier 2 basis)
C    1.277498  2.410239  0.569331
C    1.028579  2.567357  2.029173
O    1.707274  3.399712  2.719087
H    0.817262  1.513638  0.144988
H    2.365562  2.365062  0.420077
H    0.929439  3.297230  0.018477
N    0.075326  1.841895  2.653268
C    -1.282741  1.677089  2.135308
C    -1.921518  3.089728  2.057823
O    -1.326601  4.089544  2.601339
H    0.115329  1.885053  3.673899
H    -1.235469  1.258090  1.119679
C    -2.081537  0.716645  3.046295
C    -2.319351  1.224037  4.474799
C    -3.106739  0.239642  5.352702
C    -4.569379  0.035576  4.934064
N    -5.264849  -0.741414  5.947903
H    -1.532058  -0.236409  3.060621
H    -3.041726  0.500748  2.563223
H    -2.857300  2.188643  4.446941
H    -1.356500  1.418534  4.982879
H    -3.106567  0.605223  6.388693
H    -2.585389  -0.731367  5.371927
H    -4.617684  -0.406523  3.914642
H    -5.063379  1.019393  4.873085
H    -6.275138  -0.721939  5.821942
H    -4.974149  -1.718746  5.955016
N    -3.073204  3.275699  1.442369
C    -3.912676  2.306421  0.730680
H    -3.430479  4.230995  1.488325
H    -3.312562  1.482574  0.334214
H    -4.392240  2.821304  -0.107960
H    -4.690573  1.909874  1.395736
Ca    0.436343  4.988776  3.432597
