34
Energy: -36752.9898156 eV PBE+vdW (tier 2 basis)
C    -0.596948  -1.313744  -0.731568
C    -0.200082  -0.923206  0.678974
O    1.030962  -0.351832  0.740561
H    0.149193  -1.990519  -1.163536
H    -0.674247  -0.404688  -1.340709
H    -1.570079  -1.815568  -0.755199
N    -1.179452  -0.219051  1.437587
C    -2.068533  -1.191832  2.096605
C    -1.209699  -2.447627  2.140200
O    -0.098336  -2.337021  1.460741
H    -0.711143  0.371565  2.123881
H    -2.244550  -0.855583  3.128155
C    -3.441792  -1.413206  1.409420
C    -4.613550  -0.768919  2.159452
C    -4.905698  -1.311520  3.568181
C    -5.166195  -2.822849  3.670545
N    -3.954806  -3.583293  4.105686
H    -3.622775  -2.490189  1.282668
H    -3.384303  -0.988702  0.398943
H    -5.513095  -0.898592  1.539611
H    -4.452814  0.318508  2.222681
H    -5.788967  -0.778282  3.944289
H    -4.100808  -1.039977  4.273647
H    -5.480317  -3.230668  2.699476
H    -5.993974  -3.009111  4.369337
H    -3.746627  -3.328093  5.075913
H    -4.197874  -4.577699  4.148550
N    -1.558536  -3.526885  2.768071
C    -0.772087  -4.758884  2.781949
H    -2.527575  -3.514584  3.294923
H    -1.446378  -5.597800  2.980947
H    -0.012120  -4.724557  3.573696
H    -0.277087  -4.914042  1.817392
Ca    2.835950  0.315312  0.488905
