34
Energy: -36752.6951165 eV PBE+vdW (tier 2 basis)
C    0.194692  -0.628995  0.195029
C    0.118415  -0.040098  1.560625
O    1.227213  0.033695  2.265897
H    0.964500  -0.105267  -0.387417
H    -0.755646  -0.580066  -0.342618
H    0.501473  -1.682053  0.269756
N    -0.977181  0.407950  2.099098
C    -2.361774  0.467280  1.600924
C    -2.938837  1.590242  2.512092
O    -2.406697  1.727165  3.628848
H    -1.002305  0.834411  3.061248
H    -2.369826  0.753321  0.541767
C    -3.032390  -0.915484  1.809350
C    -4.522739  -1.033187  1.443426
C    -5.491692  -0.786271  2.606763
C    -6.965699  -0.854044  2.176439
N    -7.365682  0.318739  1.393404
H    -2.881563  -1.204553  2.861128
H    -2.452642  -1.630084  1.205971
H    -4.685385  -2.057601  1.077164
H    -4.769672  -0.381340  0.593262
H    -5.306691  0.187427  3.086208
H    -5.320849  -1.546372  3.384719
H    -7.592698  -0.970818  3.076062
H    -7.126552  -1.752746  1.564718
H    -8.033895  0.098761  0.657938
H    -7.764413  1.055863  1.972851
N    -3.940554  2.364437  2.080745
C    -4.632808  2.386777  0.793725
H    -4.249461  3.037287  2.780563
H    -4.884713  3.426228  0.556927
H    -5.555439  1.785232  0.820792
H    -3.984137  2.013537  -0.005636
Ca    2.908751  0.170941  3.329843
