34
Energy: -36753.9274308 eV PBE+vdW (tier 2 basis)
C    -1.350473  -0.582777  -0.596290
C    -0.329937  -0.203625  0.424880
O    0.458458  -1.087800  0.906314
H    -1.100894  -1.565902  -1.006299
H    -1.410257  0.155022  -1.403463
H    -2.350792  -0.646664  -0.138310
N    -0.238975  1.062140  0.886265
C    -1.397972  1.868578  1.296473
C    -2.169706  1.066810  2.348579
O    -1.649892  0.025032  2.898815
H    0.603247  1.235681  1.436185
H    -0.937544  2.749477  1.844369
C    -2.247478  2.497014  0.163112
C    -2.705536  3.937090  0.478568
C    -1.703984  5.048954  0.107265
C    -0.259831  4.880337  0.585399
N    -0.173682  4.518386  2.019540
H    -3.114457  1.860824  -0.066575
H    -1.630713  2.509666  -0.745941
H    -2.961220  4.033478  1.548722
H    -3.640244  4.133084  -0.063489
H    -2.105116  6.001241  0.485741
H    -1.678400  5.155057  -0.987373
H    0.288704  5.807128  0.355115
H    0.241240  4.082158  0.013931
H    0.794937  4.593933  2.336757
H    -0.694686  5.193948  2.584471
N    -3.359816  1.490039  2.729622
C    -4.167459  0.883363  3.791460
H    -3.728938  2.317782  2.266193
H    -3.615655  0.881784  4.738643
H    -4.441201  -0.144766  3.526463
H    -5.079107  1.474402  3.909160
Ca    -0.155985  -1.495914  2.927622
