34
Energy: -36753.9036712 eV PBE+vdW (tier 2 basis)
C    1.030748  1.756761  0.722020
C    0.454485  0.501045  1.287078
O    0.794770  -0.634659  0.806741
H    1.883978  1.506644  0.084746
H    1.345774  2.443549  1.515530
H    0.285466  2.286205  0.107107
N    -0.450505  0.530924  2.287809
C    -1.623735  1.419365  2.322666
C    -2.400928  1.210233  1.023671
O    -2.155156  0.199073  0.263252
H    -0.610081  -0.377163  2.725921
H    -2.227173  0.983646  3.171777
C    -1.336926  2.859457  2.796226
C    -2.539039  3.670859  3.330026
C    -3.557490  2.969412  4.248389
C    -2.978101  2.201106  5.444955
N    -2.634115  0.800464  5.082980
H    -0.834114  3.449419  2.018006
H    -0.611423  2.737187  3.612040
H    -3.082733  4.162653  2.502057
H    -2.103627  4.522093  3.874177
H    -4.206227  2.281788  3.676987
H    -4.234751  3.748825  4.623850
H    -3.697083  2.231610  6.276862
H    -2.065213  2.693930  5.807894
H    -1.982672  0.416235  5.770056
H    -3.473138  0.220362  5.153909
N    -3.376609  2.043398  0.717859
C    -4.270481  1.904167  -0.434375
H    -3.514343  2.840215  1.337873
H    -5.023709  2.694282  -0.381490
H    -4.770833  0.929271  -0.414413
H    -3.710920  2.007402  -1.371955
Ca    -0.877296  -1.411204  -0.301143
