34
Energy: -36754.3872198 eV PBE+vdW (tier 2 basis)
C    -0.296539  0.617026  0.540217
C    -0.214810  0.179025  1.964681
O    0.848951  -0.371715  2.396952
H    -1.238222  1.114923  0.288069
H    -0.176083  -0.267330  -0.102255
H    0.542085  1.288993  0.314942
N    -1.275858  0.377471  2.754250
C    -1.537897  -0.114602  4.127020
C    -0.670672  0.577934  5.180806
O    0.590044  0.369299  5.222730
H    -2.074908  0.810339  2.298953
H    -2.581984  0.164506  4.308009
C    -1.462954  -1.650561  4.281054
C    -2.435335  -2.390338  3.363945
C    -2.492058  -3.898127  3.628295
C    -3.681277  -4.550933  2.905555
N    -4.943540  -3.962311  3.363036
H    -1.697056  -1.875042  5.334012
H    -0.432114  -2.013713  4.117026
H    -2.172836  -2.213446  2.308386
H    -3.456798  -1.998887  3.509000
H    -2.595053  -4.078563  4.711568
H    -1.558152  -4.390794  3.314870
H    -3.619395  -5.644047  3.044568
H    -3.592688  -4.370633  1.823656
H    -5.685961  -4.116088  2.682407
H    -5.256252  -4.399013  4.230704
N    -1.231832  1.341989  6.101930
C    -2.645457  1.712275  6.259516
H    -0.583403  1.700807  6.804081
H    -2.708499  2.449169  7.064739
H    -3.253552  0.843165  6.538974
H    -3.037671  2.173508  5.346132
Ca    2.094291  -0.586841  4.077860
