 26
Energy: -16507.71514515.7 eV PBE+vdW (tier 2 basis)
N    1.047977   -0.320013   0.533820
C   -0.034430   -0.022706   1.492782
C    0.039004    1.474618   1.868679
O   -0.872522    2.077472   2.392770
H    0.731092   -0.239538  -0.431491
H    1.718775    1.307409   1.106015
H   -1.036767   -0.187300   1.065622
C    0.131335   -0.910707   2.739995
C   -0.918111   -0.703775   3.834492
C   -0.805420   -1.720124   4.979953
N    0.470281   -1.691712   5.695378
C    1.584695   -2.428074   5.321177
N    2.751443   -1.882835   5.404468
N    1.295395   -3.720528   4.861962
H    1.141172   -0.752000   3.150436
H    0.095002   -1.959701   2.399464
H   -1.931375   -0.778763   3.407612
H   -0.845232    0.316053   4.239326
H   -0.959916   -2.736271   4.593373
H   -1.612103   -1.533159   5.704402
H    0.764713   -0.765650   5.998169
H    3.497422   -2.568193   5.259673
H    0.546545   -4.196767   5.358749
H    2.118649   -4.305824   4.771473
O    1.226903    2.037338   1.579632
H    1.413728   -1.262602   0.664175
