 26
Energy: -16507.81557115.7 eV PBE+vdW (tier 2 basis)
N   -0.137631   -0.654130  -0.216595
C    0.099611   -0.082310   1.117111
C    1.569758    0.280900   1.369873
O    2.447823   -0.557790   1.499072
H    0.507121   -1.435701  -0.359707
H    0.083796    0.036897  -0.935183
H   -0.487429    0.845524   1.177663
C   -0.406824   -1.094450   2.167852
C    0.012193   -0.934230   3.639594
C   -0.314802    0.394296   4.352671
N    0.649344    1.480665   4.157560
C    1.973750    1.399896   4.529342
N    2.875252    1.952006   3.765061
N    2.238973    0.793524   5.739335
H   -0.060205   -2.088742   1.846639
H   -1.504168   -1.112995   2.085760
H    1.091546   -1.128032   3.734460
H   -0.487884   -1.739986   4.199552
H   -0.431399    0.211018   5.432475
H   -1.290089    0.782742   4.026338
H    0.564609    1.970774   3.269577
H    3.807362    1.951602   4.178289
H    1.495105    0.278260   6.192909
H    3.159253    0.388166   5.849234
O    1.760151    1.607134   1.473325
H    2.472860    1.795779   2.218692
