 26
Energy: -16507.61354615.7 eV PBE+vdW (tier 2 basis)
N    0.174150    0.097476  -0.324743
C    0.346229   -0.219413   1.103969
C    1.850298   -0.211314   1.381906
O    2.531097   -1.141020   1.755609
H    0.494333    1.045658  -0.521826
H   -0.817001    0.053717  -0.562842
H   -0.088992    0.553285   1.774153
C   -0.292243   -1.569271   1.424857
C   -0.376959   -1.873888   2.922424
C   -1.018110   -3.229276   3.246669
N   -0.296384   -4.373696   2.706049
C   -0.723601   -5.008291   1.553287
N   -1.838562   -4.692823   0.986103
N    0.203203   -5.963258   1.105325
H    0.267578   -2.354726   0.899566
H   -1.306680   -1.580183   0.996830
H   -0.968105   -1.094032   3.431575
H    0.630736   -1.835123   3.365949
H   -2.032834   -3.287839   2.833381
H   -1.091476   -3.341157   4.339848
H    0.710981   -4.359083   2.833472
H   -2.049621   -5.327200   0.213025
H   -0.157696   -6.571373   0.378478
H    0.663644   -6.491343   1.842621
O    2.373188    1.029224   1.148615
H    3.333337    0.951170   1.310554
