 26
Energy: -16507.63579615.7 eV PBE+vdW (tier 2 basis)
N    0.745348   -0.405398  -0.415886
C    0.007835   -0.201401   0.836435
C    0.973294   -0.253868   2.011690
O    1.001576    0.526546   2.939387
H    0.096116   -0.344045  -1.201497
H    1.142080   -1.346426  -0.436410
H   -0.380164    0.827406   0.833783
C   -1.171418   -1.179109   1.067196
C   -1.995087   -0.908436   2.328878
C   -3.230310   -1.807728   2.474939
N   -2.935380   -3.226958   2.614941
C   -2.995055   -4.094162   1.541127
N   -3.397792   -3.699869   0.380832
N   -2.540878   -5.381193   1.879998
H   -0.778092   -2.207115   1.077459
H   -1.825260   -1.116287   0.184003
H   -2.340091    0.138721   2.330750
H   -1.363557   -1.009430   3.227565
H   -3.877679   -1.716886   1.593758
H   -3.809525   -1.484241   3.353689
H   -2.270480   -3.479413   3.338402
H   -3.489445   -4.487551  -0.263969
H   -2.730898   -6.075985   1.165685
H   -2.832509   -5.705631   2.799224
O    1.799852   -1.338640   1.942711
H    2.368855   -1.290006   2.734804
