 26
Energy: -16507.87454615.7 eV PBE+vdW (tier 2 basis)
N   -0.362513    0.510809   0.779322
C    0.495584    0.287420   1.964186
C    1.976603    0.286113   1.501803
O    2.910558    0.001980   2.226634
H   -1.112295    1.170145   0.975920
H    1.181226    0.796708  -0.078913
H    0.404736    1.170922   2.615439
C    0.178696   -0.964064   2.789946
C    0.310879   -2.287222   2.009225
C    0.946670   -3.411395   2.845299
N    2.292280   -3.077260   3.266628
C    2.569472   -2.665707   4.558240
N    1.804125   -3.025579   5.536271
N    3.755064   -1.923805   4.628196
H   -0.830266   -0.866588   3.215378
H    0.870640   -0.973072   3.641389
H    0.938745   -2.140072   1.112083
H   -0.667522   -2.630874   1.637972
H    0.953787   -4.345010   2.261329
H    0.373512   -3.601176   3.762227
H    2.916087   -2.712793   2.555209
H    2.117749   -2.606996   6.414103
H    3.946072   -1.557353   5.554222
H    3.829774   -1.201778   3.910379
O    2.129516    0.646156   0.221389
H   -0.794826   -0.359893   0.469637
