 26
Energy: -16507.66805515.7 eV PBE+vdW (tier 2 basis)
N    0.820726    0.047097   0.300422
C    0.641023    0.225565   1.745486
C    1.848825   -0.242113   2.560698
O    2.562084    0.469169   3.237604
H    0.960974   -0.940063   0.079014
H    1.649474    0.546567  -0.023973
H    0.569447    1.305268   1.940343
C   -0.654686   -0.456243   2.201513
C   -0.966269   -0.262765   3.687677
C   -2.290612   -0.891937   4.122313
N   -3.421000   -0.249663   3.472527
C   -4.702942   -0.783673   3.560533
N   -5.068523   -1.899880   4.088994
N   -5.663413    0.057162   2.987024
H   -0.593088   -1.533260   1.976438
H   -1.466684   -0.052359   1.581571
H   -0.972666    0.812969   3.934648
H   -0.169052   -0.702871   4.306307
H   -2.372201   -0.852171   5.225165
H   -2.298644   -1.956360   3.839711
H   -3.397620    0.766761   3.483801
H   -4.303286   -2.345296   4.599838
H   -6.568075   -0.404113   2.953340
H   -5.399766    0.448226   2.086343
O    2.072644   -1.584615   2.423160
H    2.874224   -1.777158   2.946630
