 26
Energy: -16507.75739315.7 eV PBE+vdW (tier 2 basis)
N   -0.584962    0.651149   0.149164
C    0.037522    0.240130   1.408410
C    1.563583    0.120216   1.413527
O    2.259953    0.232873   2.398936
H   -0.417945   -0.042317  -0.581322
H   -0.181244    1.527952  -0.181200
H   -0.186670    1.011892   2.160179
C   -0.531993   -1.108760   1.907363
C   -2.065070   -1.206672   1.996802
C   -2.760840   -0.098672   2.793278
N   -2.942199    1.086095   1.971690
C   -3.259704    2.309609   2.528281
N   -3.578247    2.578360   3.749917
N   -3.187111    3.356635   1.595927
H   -0.091109   -1.298441   2.896451
H   -0.166921   -1.912118   1.246294
H   -2.298103   -2.172897   2.466727
H   -2.507425   -1.245321   0.989951
H   -2.170058    0.130428   3.703130
H   -3.742290   -0.459624   3.142739
H   -2.358266    1.108136   1.129419
H   -3.485141    1.756393   4.350723
H   -3.590909    4.203647   1.986251
H   -3.584347    3.132877   0.687039
O    2.072324   -0.167333   0.178796
H    3.036989   -0.257362   0.305200
