 26
Energy: -16507.61397415.7 eV PBE+vdW (tier 2 basis)
N    0.834342    0.810397   0.579235
C    0.223307    0.310773   1.809431
C    1.300124   -0.440637   2.575700
O    2.138633   -1.155809   2.073992
H    0.113590    1.119968  -0.072658
H    1.356186    0.055564   0.129176
H   -0.085389    1.172437   2.419140
C   -0.997738   -0.629092   1.587091
C   -1.731998   -1.115218   2.842895
C   -2.468810    0.001093   3.606554
N   -3.090149   -0.421600   4.847305
C   -2.454567   -0.504240   6.081033
N   -2.959016   -1.007974   7.158614
N   -1.204811    0.104763   6.145707
H   -0.649412   -1.491995   0.999349
H   -1.701532   -0.076915   0.941863
H   -1.034868   -1.624870   3.525297
H   -2.467337   -1.879531   2.546775
H   -3.250817    0.427631   2.957885
H   -1.793020    0.834249   3.842702
H   -3.907776   -1.013698   4.765797
H   -3.928832   -1.302388   7.015212
H   -0.779395   -0.057416   7.052681
H   -0.561953   -0.032817   5.370764
O    1.205617   -0.258520   3.927248
H    1.911152   -0.810119   4.320792
