 26
Energy: -16507.66863415.7 eV PBE+vdW (tier 2 basis)
N   -0.350060    0.110987  -0.099350
C   -0.433808    0.152482   1.364653
C    0.786930    0.811065   2.011297
O    0.781185    1.853478   2.632371
H    0.477283   -0.410071  -0.394468
H   -0.263151    1.052922  -0.482098
H   -1.281122    0.800006   1.630910
C   -0.682665   -1.257144   1.916058
C   -0.858107   -1.303824   3.434899
C   -1.124734   -2.718781   3.942716
N   -1.296374   -2.724615   5.385071
C   -1.619169   -3.896489   6.062089
N   -1.915992   -5.046817   5.564538
N   -1.590786   -3.729278   7.451221
H    0.151391   -1.910817   1.614272
H   -1.582979   -1.639787   1.412827
H   -1.688560   -0.648625   3.740684
H    0.046875   -0.909887   3.928445
H   -0.302528   -3.389129   3.622337
H   -2.048129   -3.106398   3.483976
H   -0.661506   -2.114481   5.892963
H   -1.762954   -5.071955   4.554038
H   -2.034294   -2.876896   7.783509
H   -1.953656   -4.555458   7.918198
O    1.933803    0.101161   1.782230
H    2.654137    0.615518   2.194747
