 26
Energy: -16507.54886215.7 eV PBE+vdW (tier 2 basis)
N    0.168537    0.088615  -0.139551
C    0.038682   -0.021603   1.309617
C    1.317829   -0.296661   2.114788
O    1.423856   -0.128359   3.311252
H    0.663766   -0.716900  -0.521973
H    0.727132    0.905210  -0.385581
H   -0.318719    0.947856   1.687226
C   -1.029864   -1.067092   1.700670
C   -0.716495   -2.496522   1.253698
C   -1.792430   -3.485862   1.700481
N   -1.489299   -4.825111   1.223238
C   -2.091287   -5.994421   1.667073
N   -1.896627   -7.179710   1.193162
N   -2.909534   -5.841920   2.786209
H   -1.977006   -0.735111   1.251122
H   -1.152783   -1.036063   2.793248
H    0.252715   -2.829222   1.656700
H   -0.636288   -2.532157   0.154162
H   -2.781456   -3.127098   1.347944
H   -1.827560   -3.511450   2.799664
H   -1.108478   -4.886124   0.286244
H   -1.172550   -7.177765   0.469610
H   -3.381048   -6.715618   3.000022
H   -3.540112   -5.046111   2.783058
O    2.339438   -0.777942   1.348210
H    3.079416   -0.937359   1.966458
