 26
Energy: -16507.55687815.7 eV PBE+vdW (tier 2 basis)
N    0.450940    1.291282   0.623439
C    0.172118    0.849147   1.989453
C    1.465522    0.274249   2.549366
O    2.218734   -0.454170   1.937570
H   -0.422690    1.472674   0.128795
H    0.939685    0.546552   0.122215
H   -0.099280    1.725898   2.597259
C   -0.958553   -0.205175   2.110165
C   -1.332301   -0.611686   3.538702
C   -2.582350   -1.493771   3.606084
N   -3.756023   -0.762784   3.162363
C   -4.999570   -1.315456   2.905390
N   -6.024543   -0.530548   2.897523
N   -4.990807   -2.673987   2.576575
H   -0.665271   -1.094464   1.529107
H   -1.844535    0.217773   1.612536
H   -1.490964    0.287254   4.158539
H   -0.505372   -1.158423   4.014954
H   -2.693593   -1.885049   4.636922
H   -2.430285   -2.359476   2.941642
H   -3.856952    0.182436   3.521245
H   -6.878318   -1.029185   2.637903
H   -5.907560   -3.104459   2.602738
H   -4.280803   -3.253180   3.012756
O    1.676172    0.633947   3.844485
H    2.502948    0.187848   4.116041
