 26
Energy: -16507.55930515.7 eV PBE+vdW (tier 2 basis)
N    0.053501    0.052854   0.082518
C   -0.045920    0.222433   1.530724
C    1.233775   -0.216946   2.230733
O    1.645222    0.287125   3.262435
H    0.801656    0.624497  -0.309726
H   -0.816371    0.352132  -0.358478
H   -0.185895    1.268677   1.862308
C   -1.262270   -0.590783   2.039078
C   -1.577567   -0.475438   3.538531
C   -0.911968   -1.559381   4.410429
N   -1.141635   -1.426982   5.835900
C   -0.614493   -0.414836   6.630028
N   -1.261492   -0.098384   7.704430
N    0.621418    0.081099   6.231592
H   -1.122803   -1.641495   1.740675
H   -2.122072   -0.222320   1.458358
H   -2.665371   -0.548013   3.684498
H   -1.290991    0.520036   3.911129
H    0.171600   -1.600476   4.229672
H   -1.291586   -2.547169   4.108644
H   -2.067739   -1.677651   6.168553
H   -0.739793    0.580203   8.264247
H    0.883507    0.055499   5.248776
H    0.881188    0.951323   6.678683
O    1.866472   -1.246816   1.625072
H    2.641698   -1.447675   2.186455
