 26
Energy: -16507.50826815.7 eV PBE+vdW (tier 2 basis)
N   -0.249629   -0.085665   0.092280
C    0.239313   -0.016123   1.466913
C    1.741517   -0.257728   1.528919
O    2.496676    0.275610   2.313316
H   -1.235826    0.169009   0.048283
H   -0.156491   -1.030136  -0.283138
H    0.110787    1.018961   1.813294
C   -0.425895   -0.975661   2.496786
C   -1.935827   -0.779300   2.658855
C   -2.329481    0.581481   3.236411
N   -3.767651    0.658117   3.423282
C   -4.497691    1.822941   3.615919
N   -5.767302    1.899390   3.835710
N   -3.765672    3.001382   3.465551
H    0.073626   -0.843377   3.469801
H   -0.230230   -2.011409   2.178581
H   -2.313521   -1.573103   3.324010
H   -2.451114   -0.922764   1.695951
H   -2.039528    1.384999   2.543783
H   -1.768481    0.747994   4.179037
H   -4.220871   -0.180741   3.765931
H   -6.212435    0.979184   3.780936
H   -4.343309    3.804472   3.696251
H   -2.858354    3.031266   3.921203
O    2.148466   -1.206491   0.640218
H    3.109473   -1.310777   0.780558
