 26
Energy: -16507.59908515.7 eV PBE+vdW (tier 2 basis)
N   -0.555260    0.309092   0.105044
C   -0.169802    0.141105   1.505702
C    1.311348    0.382187   1.806432
O    1.740772    1.089882   2.695261
H   -0.028612   -0.332696  -0.489410
H   -0.346776    1.253902  -0.218321
H   -0.703389    0.903672   2.089391
C   -0.592894   -1.262376   1.986409
C   -0.204708   -1.622888   3.424794
C   -0.832221   -0.717734   4.496433
N   -0.496524   -1.116973   5.858460
C   -1.328290   -1.815908   6.718484
N   -1.252251   -1.851818   8.006848
N   -2.352885   -2.523426   6.083974
H   -0.154373   -2.003359   1.299938
H   -1.683679   -1.320763   1.853214
H    0.889871   -1.608751   3.547592
H   -0.505864   -2.665441   3.612529
H   -1.927370   -0.706546   4.386878
H   -0.485822    0.315857   4.358000
H    0.217190   -0.571526   6.323973
H   -0.566014   -1.179108   8.359860
H   -2.843032   -3.104235   6.758047
H   -2.081962   -3.042612   5.253555
O    2.130187   -0.306361   0.958596
H    3.042831   -0.097151   1.236492
