 26
Energy: -16507.83322715.7 eV PBE+vdW (tier 2 basis)
N    0.112379   -1.014531  -0.190591
C    0.427218   -0.494304   1.156066
C    1.952311   -0.640093   1.385724
O    2.483873   -0.551887   2.475923
H   -0.655879   -0.501490  -0.618943
H    1.918460   -0.922796  -0.437086
H    0.258929    0.594904   1.123843
C   -0.374217   -1.076058   2.324147
C   -0.162663   -2.589090   2.553520
C   -0.034740   -2.952742   4.032618
N    1.181746   -2.379137   4.583695
C    1.334106   -2.252817   5.945166
N    0.491360   -2.810650   6.751072
N    2.428739   -1.450804   6.301843
H   -1.439782   -0.856428   2.165160
H   -0.080526   -0.523518   3.227717
H    0.749991   -2.934340   2.036767
H   -0.993306   -3.166329   2.124096
H   -0.018874   -4.047311   4.151082
H   -0.911380   -2.597409   4.601579
H    1.671827   -1.701082   4.000678
H    0.758534   -2.653294   7.725430
H    2.768625   -1.615758   7.242664
H    3.186618   -1.418804   5.624348
O    2.639707   -0.844511   0.254749
H   -0.164568   -1.996448  -0.147838
