 26
Energy: -16507.65293215.7 eV PBE+vdW (tier 2 basis)
N    0.625409    0.433187   0.974361
C    1.036493   -0.354332   2.136870
C    2.248250    0.335727   2.744459
O    3.163158    0.813689   2.107557
H   -0.053792   -0.088771   0.420432
H    1.438877    0.609208   0.380964
H    0.222288   -0.332350   2.874981
C    1.392299   -1.831905   1.814038
C    1.786378   -2.727735   2.996676
C    0.733418   -2.857527   4.101385
N   -0.522248   -3.374026   3.581907
C   -1.688801   -3.332960   4.342758
N   -1.879865   -2.770611   5.484723
N   -2.742112   -4.016876   3.724802
H    2.207272   -1.828259   1.074106
H    0.508733   -2.255901   1.313033
H    2.715100   -2.364127   3.461174
H    2.027182   -3.730331   2.605728
H    0.536323   -1.871743   4.545584
H    1.137770   -3.491532   4.913056
H   -0.435295   -4.217067   3.019714
H   -1.005353   -2.436043   5.894710
H   -2.844412   -3.829004   2.730901
H   -3.610118   -3.870553   4.232307
O    2.223353    0.324662   4.105742
H    3.053695    0.753180   4.394030
