 26
Energy: -16507.54275915.7 eV PBE+vdW (tier 2 basis)
N    0.172401    0.608176   0.176870
C    0.098521    0.069274   1.536723
C    1.261832   -0.870917   1.838051
O    1.255952   -1.743689   2.680054
H    1.099656    0.982444  -0.018286
H   -0.495867    1.371408   0.072340
H    0.212565    0.852497   2.320145
C   -1.254447   -0.614026   1.791378
C   -1.563788   -1.787197   0.859298
C   -2.954470   -2.360477   1.117295
N   -3.210827   -3.501571   0.251433
C   -4.492204   -3.997207   0.109385
N   -5.493841   -3.386188   0.646629
N   -4.571969   -5.120573  -0.727976
H   -2.037241    0.155680   1.690183
H   -1.278401   -0.945335   2.839027
H   -0.806822   -2.575046   1.012331
H   -1.482593   -1.465799  -0.188056
H   -3.735750   -1.617469   0.908723
H   -3.068195   -2.632810   2.183343
H   -2.456923   -4.177542   0.190500
H   -6.377640   -3.803426   0.344839
H   -5.336063   -5.749361  -0.509370
H   -3.706272   -5.614923  -0.921695
O    2.369512   -0.579953   1.097228
H    3.061443   -1.198437   1.401952
