 26
Energy: -16507.88602115.7 eV PBE+vdW (tier 2 basis)
N   -0.070614   -0.162526   0.019586
C   -0.617894   -0.135467   1.381491
C    0.126239    0.746930   2.413501
O   -0.477238    1.397563   3.244255
H   -0.179334    0.757375  -0.407423
H    0.933781   -0.367320   0.018158
H   -1.612760    0.325159   1.314967
C   -0.850597   -1.547968   1.972009
C    0.397404   -2.368712   2.330486
C    1.115081   -2.990506   1.112168
N    2.558723   -3.122901   1.259392
C    3.408316   -2.074259   1.051193
N    2.953075   -0.888532   0.750044
N    4.757742   -2.389694   1.105042
H   -1.474471   -2.101793   1.252822
H   -1.454750   -1.415812   2.880964
H    0.110358   -3.170836   3.027196
H    1.109252   -1.738540   2.882452
H    0.935685   -2.394239   0.211441
H    0.714581   -3.992265   0.904222
H    2.905349   -3.900736   1.807026
H    3.713939   -0.271148   0.461009
H    5.025696   -3.321422   1.400194
H    5.376561   -1.656587   1.428393
O    1.474193    0.765617   2.374270
H    1.873954    0.121621   1.708712
