 26
Energy: -16507.78588415.7 eV PBE+vdW (tier 2 basis)
N    1.097521   -0.838044   0.404462
C   -0.049234   -0.395316   1.218245
C    0.442945    0.634362   2.267757
O   -0.260281    1.069905   3.153302
H    1.995839    0.482668   1.274662
H    1.461916   -1.740905   0.712726
H   -0.705437    0.198553   0.562629
C   -0.918655   -1.501653   1.849866
C   -0.161564   -2.612605   2.587597
C    0.568694   -2.196489   3.878083
N    1.442197   -3.237326   4.399839
C    2.669611   -3.494212   3.794601
N    3.328945   -2.746727   2.975784
N    3.195719   -4.740313   4.150710
H   -1.516102   -1.962634   1.049369
H   -1.627215   -1.006737   2.529724
H    0.567010   -3.095348   1.915017
H   -0.882556   -3.406341   2.838310
H   -0.156043   -1.924552   4.657626
H    1.180732   -1.297239   3.731006
H    0.958439   -4.074881   4.712029
H    2.824113   -1.885849   2.755309
H    4.167245   -4.813368   3.861855
H    3.074068   -4.988058   5.129213
O    1.716914    1.019026   2.074224
H    0.858639   -0.923141  -0.580878
