 26
Energy: -16507.66833415.7 eV PBE+vdW (tier 2 basis)
N    0.429372   -1.303670  -0.247483
C    0.026556   -0.587384   0.974975
C    1.204266   -0.322539   1.918028
O    1.636644   -1.150681   2.711260
H    1.095969   -0.739986  -0.777331
H    0.915836   -2.165370   0.011817
H   -0.350263    0.394572   0.657465
C   -1.109698   -1.383259   1.647494
C   -1.509613   -1.091475   3.111837
C   -1.544307    0.365084   3.611409
N   -0.253667    0.731873   4.205513
C    0.278934    1.991085   4.246640
N    1.572254    2.128265   4.129995
N   -0.642735    3.019064   4.354063
H   -0.843126   -2.449944   1.598690
H   -1.984656   -1.263631   0.992370
H   -0.850467   -1.657479   3.786698
H   -2.511312   -1.519850   3.256942
H   -2.343775    0.456551   4.365812
H   -1.793511    1.064555   2.796884
H    0.460916    0.007377   4.182628
H    1.884157    3.081044   4.323932
H   -0.259267    3.947405   4.479686
H   -1.481518    2.839159   4.895911
O    1.671849    0.926438   1.788492
H    1.996621    1.281212   2.695584
