 26
Energy: -16507.82524215.7 eV PBE+vdW (tier 2 basis)
N   -1.159916    0.652146   0.104687
C   -0.588448    0.373885   1.428383
C    0.899579    0.019537   1.353684
O    1.349080   -0.829527   0.603657
H   -0.934784   -0.126399  -0.520617
H   -0.706159    1.472692  -0.300795
H   -0.708911    1.273649   2.048677
C   -1.362921   -0.804876   2.063117
C   -1.327622   -0.971571   3.590676
C    0.034499   -1.181021   4.275694
N    0.825819   -2.236114   3.671311
C    2.160437   -2.139807   3.356413
N    3.004511   -1.236476   3.762391
N    2.593304   -3.146255   2.496837
H   -1.028252   -1.731402   1.570255
H   -2.411760   -0.659118   1.767189
H   -1.982238   -1.823214   3.838654
H   -1.793795   -0.095614   4.069190
H   -0.140960   -1.377721   5.347800
H    0.623689   -0.257614   4.218226
H    0.367723   -3.112058   3.446963
H    2.616604   -0.698538   4.542447
H    3.575781   -3.015274   2.271608
H    2.031411   -3.230533   1.652052
O    1.648270    0.723016   2.229239
H    2.487814    0.212839   2.396238
