 26
Energy: -16507.63972515.7 eV PBE+vdW (tier 2 basis)
N   -0.785382   -0.418336   2.520036
C    0.653377   -0.289294   2.710298
C    1.119268    0.990700   2.045294
O    0.684831    1.459164   1.017715
H   -1.124734   -1.283596   2.938853
H   -1.013291   -0.433773   1.524689
H    0.833420   -0.192410   3.788144
C    1.528389   -1.463804   2.160394
C    1.660566   -2.635717   3.144375
C    2.921469   -2.553093   4.029954
N    3.136857   -1.289195   4.709525
C    2.331670   -0.822621   5.734509
N    1.536644   -1.509404   6.484957
N    2.481220    0.547758   5.957272
H    2.533367   -1.098002   1.892169
H    1.064449   -1.791700   1.219000
H    1.708180   -3.589061   2.597086
H    0.762745   -2.695855   3.779372
H    3.810416   -2.727175   3.406992
H    2.908059   -3.370312   4.768724
H    3.707429   -0.599507   4.236612
H    1.621225   -2.512160   6.302248
H    1.824673    0.874312   6.659841
H    2.480514    1.127051   5.120093
O    2.171284    1.557563   2.722997
H    2.439354    2.334468   2.193853
