 26
Energy: -16507.63597715.7 eV PBE+vdW (tier 2 basis)
N    0.515151   -0.398354  -0.122358
C    0.121842   -0.047425   1.235855
C    1.196062    0.502704   2.183831
O    0.961403    1.165789   3.173640
H    1.208817   -1.147839  -0.172409
H    0.926851    0.404891  -0.596024
H   -0.593757    0.784713   1.152166
C   -0.649621   -1.196379   1.944651
C    0.150808   -2.241635   2.736867
C    1.192837   -3.057581   1.960348
N    0.642129   -3.715428   0.794960
C    1.201040   -3.666053  -0.465047
N    2.359708   -3.203283  -0.807196
N    0.360520   -4.199701  -1.445491
H   -1.239800   -1.684192   1.156118
H   -1.362914   -0.738788   2.643243
H   -0.575125   -2.933065   3.195742
H    0.666132   -1.760914   3.583670
H    1.666813   -3.783058   2.644780
H    1.998171   -2.395909   1.615548
H   -0.144307   -4.341064   0.924186
H    2.952409   -3.024367   0.007085
H    0.775472   -4.085308  -2.365978
H   -0.594027   -3.849395  -1.415298
O    2.467608    0.163492   1.819750
H    3.047421    0.560905   2.498824
