 26
Energy: -16507.74058315.7 eV PBE+vdW (tier 2 basis)
N   -0.255748    0.393989   0.434251
C    0.454019    0.246352   1.721032
C    1.890073   -0.271156   1.451041
O    2.645932   -0.624005   2.328843
H   -0.833116    1.231746   0.409916
H    1.385823    0.069477  -0.295839
H    0.594394    1.257297   2.138306
C   -0.251915   -0.621069   2.769459
C   -1.551314   -0.014166   3.297342
C   -2.220599   -0.893330   4.362980
N   -3.468952   -0.357056   4.901834
C   -3.511998    0.834997   5.620321
N   -4.480556    1.657575   5.402004
N   -2.445617    1.005040   6.507431
H    0.457944   -0.784517   3.592984
H   -0.441888   -1.617120   2.330946
H   -2.268062    0.150313   2.475759
H   -1.346692    0.975970   3.734946
H   -1.514287   -1.071618   5.187094
H   -2.449534   -1.886027   3.947594
H   -4.245178   -0.366982   4.244124
H   -4.489835    2.418009   6.087119
H   -2.571347    1.769638   7.160905
H   -2.109593    0.160175   6.961593
O    2.220169   -0.260326   0.147140
H   -0.869125   -0.403205   0.259875
