 26
Energy: -16507.65514715.7 eV PBE+vdW (tier 2 basis)
N    0.151083   -0.700619   0.070015
C    0.571345   -0.155985   1.354731
C    2.042117   -0.340314   1.756550
O    2.589070    0.261500   2.657108
H    0.325341   -1.704533   0.018039
H    0.685689   -0.281603  -0.690017
H    0.455626    0.938029   1.303564
C   -0.372157   -0.623880   2.491368
C   -0.477721   -2.140638   2.703916
C    0.665305   -2.766335   3.523124
N    0.635934   -4.218559   3.572253
C    1.094564   -4.985307   2.504406
N    1.746819   -4.601521   1.461453
N    0.767006   -6.338797   2.647544
H   -0.064606   -0.127704   3.424097
H   -1.364883   -0.233426   2.230597
H   -0.561109   -2.661337   1.738022
H   -1.424146   -2.350483   3.226398
H    0.633616   -2.388064   4.555564
H    1.649041   -2.475164   3.133178
H   -0.164866   -4.617875   4.053501
H    1.827794   -3.584259   1.404443
H    1.238422   -6.895266   1.940087
H    0.909863   -6.712655   3.582233
O    2.694724   -1.262954   0.988912
H    3.608768   -1.302145   1.332980
