 26
Energy: -16507.71672115.7 eV PBE+vdW (tier 2 basis)
N   -0.001520   -0.909241  -0.515292
C   -0.134118   -0.294316   0.800868
C    1.159131    0.087098   1.517169
O    1.300463    1.064330   2.235052
H    0.580162   -1.746594  -0.467823
H    0.440685   -0.271732  -1.177218
H   -0.674418    0.650958   0.665724
C   -0.975537   -1.215807   1.733574
C   -2.459723   -0.827576   1.791454
C   -2.791240    0.207002   2.885276
N   -1.948858    1.390283   2.909469
C   -2.078213    2.398384   1.978146
N   -3.136732    2.467268   1.238717
N   -1.002906    3.297317   2.007559
H   -0.551995   -1.222630   2.751182
H   -0.860632   -2.239961   1.351030
H   -3.069005   -1.722236   1.991358
H   -2.778136   -0.447333   0.810481
H   -2.704154   -0.265898   3.875268
H   -3.830591    0.538674   2.765985
H   -1.049903    1.318402   3.369481
H   -3.093108    3.274395   0.613151
H   -0.991416    3.939006   1.222873
H   -0.091435    2.865762   2.164778
O    2.166905   -0.801053   1.310834
H    2.923016   -0.482598   1.841729
