 26
Energy: -16507.69262115.7 eV PBE+vdW (tier 2 basis)
N    1.247893    0.338936   0.154701
C    0.416440    0.209943   1.343814
C    1.283657    0.362064   2.582597
O    2.425738    0.769710   2.597044
H    0.673003    0.695231  -0.614332
H    2.009074    0.995015   0.331497
H   -0.320340    1.038046   1.442783
C   -0.374722   -1.124309   1.310382
C   -1.795532   -1.085475   1.881786
C   -2.787949   -0.220030   1.081716
N   -2.902439   -0.575492  -0.321915
C   -2.127233   -0.027951  -1.327688
N   -1.533747    1.121840  -1.338792
N   -2.061379   -0.832942  -2.465286
H    0.206750   -1.907318   1.816723
H   -0.411948   -1.423512   0.253980
H   -1.786596   -0.729055   2.923136
H   -2.183797   -2.116316   1.917041
H   -2.510503    0.841620   1.140162
H   -3.784857   -0.288045   1.541143
H   -3.357891   -1.455089  -0.537377
H   -1.806462    1.690841  -0.533790
H   -1.457064   -0.420571  -3.169776
H   -1.851625   -1.813421  -2.298813
O    0.616957    0.023088   3.725516
H    1.247177    0.186440   4.453462
