 26
Energy: -16507.53859015.7 eV PBE+vdW (tier 2 basis)
N   -0.055981    0.128588  -0.175459
C    0.096168    0.143784   1.280025
C    1.567085    0.225770   1.675568
O    1.986603    0.896030   2.596376
H    0.224234    1.020004  -0.584914
H   -1.036928   -0.015479  -0.416747
H   -0.354943    1.023820   1.774632
C   -0.581358   -1.118765   1.859707
C   -0.412719   -1.351167   3.368209
C    0.776396   -2.250163   3.739895
N    0.626303   -3.601183   3.207657
C    1.650580   -4.343307   2.636063
N    1.671426   -5.617956   2.841210
N    2.570317   -3.597261   1.893963
H   -0.229459   -2.000684   1.303208
H   -1.651131   -1.017919   1.619616
H   -1.327770   -1.820771   3.759299
H   -0.311979   -0.393053   3.901174
H    0.875891   -2.277603   4.838855
H    1.719956   -1.835432   3.367900
H    0.031563   -4.218602   3.753599
H    2.374082   -6.078422   2.257166
H    2.198430   -2.810077   1.365788
H    3.195976   -4.170183   1.339252
O    2.384977   -0.559121   0.915827
H    3.278378   -0.436252   1.294574
