 26
Energy: -16507.72365115.7 eV PBE+vdW (tier 2 basis)
N   -0.718437   -0.348462  -0.322011
C   -0.131362    0.343772   0.815201
C    1.372548    0.489853   0.628353
O    2.006867    0.080091  -0.321792
H   -0.018995   -0.437898  -1.059751
H   -1.517015    0.181295  -0.683839
H   -0.501248    1.383771   0.895715
C   -0.420339   -0.389551   2.156202
C   -1.894952   -0.713807   2.422183
C   -2.809676    0.465292   2.791733
N   -3.164829    1.378638   1.698045
C   -3.836527    0.946087   0.563291
N   -3.416274    1.334968  -0.597735
N   -4.904070    0.093715   0.819482
H   -0.002439    0.197905   2.987934
H    0.132843   -1.341057   2.126028
H   -1.932783   -1.426116   3.261838
H   -2.312321   -1.243296   1.553026
H   -2.345015    1.083173   3.574496
H   -3.735857    0.070914   3.234328
H   -2.420179    2.010929   1.419771
H   -4.079427    1.093174  -1.339047
H   -5.493092   -0.111392   0.021714
H   -5.423874    0.261652   1.675161
O    1.959168    1.150193   1.667048
H    2.911227    1.187811   1.452235
