 26
Energy: -16507.67399515.7 eV PBE+vdW (tier 2 basis)
N   -0.941022   -0.415864  -0.462502
C   -0.408115   -0.492816   0.903509
C    1.121058   -0.515251   0.929463
O    1.835069    0.372889   1.349015
H   -0.677092   -1.247792  -0.992896
H   -0.557124    0.391013  -0.955721
H   -0.686454    0.436935   1.420417
C   -1.018944   -1.690165   1.639501
C   -0.573744   -1.801467   3.099128
C   -1.183798   -2.989811   3.854263
N   -0.801747   -4.295193   3.333943
C   -1.634535   -5.013937   2.496239
N   -2.824638   -4.602613   2.220174
N   -1.005667   -6.168521   1.996367
H   -0.762473   -2.611956   1.095678
H   -2.111723   -1.593907   1.579874
H   -0.844699   -0.882027   3.643785
H    0.527117   -1.867055   3.157969
H   -2.279349   -2.952515   3.808011
H   -0.887999   -2.933850   4.913412
H    0.190675   -4.445088   3.184564
H   -3.341155   -5.299903   1.680300
H   -0.428574   -6.662627   2.673278
H   -1.643593   -6.800741   1.524631
O    1.633131   -1.656749   0.372418
H    2.603088   -1.546009   0.392077
