 26
Energy: -16507.70371015.7 eV PBE+vdW (tier 2 basis)
N   -0.367100    0.631660   0.129732
C   -0.661976    0.403164   1.543005
C    0.502826    0.792330   2.453712
O    1.673459    0.555995   2.235873
H    0.558000    0.256267  -0.091390
H   -0.332589    1.631826  -0.068393
H   -1.532917    1.016826   1.807374
C   -1.009784   -1.088231   1.741063
C   -1.220650   -1.587948   3.175633
C   -2.361942   -0.941556   3.980382
N   -3.658760   -0.988002   3.328435
C   -4.251994    0.108832   2.716202
N   -3.928811    1.354569   2.790574
N   -5.337963   -0.260307   1.911622
H   -0.196347   -1.678069   1.290358
H   -1.902685   -1.272920   1.127622
H   -0.294727   -1.475882   3.762975
H   -1.399818   -2.674461   3.124560
H   -2.129198    0.107712   4.200177
H   -2.428315   -1.444534   4.958404
H   -3.898340   -1.880456   2.907590
H   -3.078012    1.501286   3.337580
H   -5.853666    0.563530   1.615240
H   -5.951463   -0.959988   2.321583
O    0.086716    1.447724   3.578464
H    0.894603    1.637750   4.095939
