 26
Energy: -16507.83944915.7 eV PBE+vdW (tier 2 basis)
N   -0.808083    1.083352   0.546271
C   -0.150285    0.206403   1.517538
C    1.141571   -0.416071   0.968144
O    1.420313   -0.397693  -0.222224
H   -0.527365    0.774605  -0.389744
H   -0.433109    2.027889   0.633565
H    0.092510    0.785999   2.419302
C   -1.097058   -0.956322   1.954629
C   -1.072567   -2.203320   1.039055
C   -0.279910   -3.383000   1.649173
N    0.331902   -4.274403   0.671129
C    1.644653   -4.203981   0.287843
N    2.493966   -3.376812   0.823156
N    1.956853   -5.092402  -0.740789
H   -2.103098   -0.520705   1.984878
H   -0.842310   -1.256688   2.981593
H   -0.627939   -1.948577   0.065819
H   -2.099183   -2.532538   0.824070
H   -0.940204   -3.983233   2.293610
H    0.528629   -3.009074   2.284230
H   -0.290464   -4.695709  -0.009508
H    3.442152   -3.535636   0.484030
H    1.512341   -6.004235  -0.690596
H    2.942773   -5.152333  -0.966750
O    1.833061   -1.080807   1.896984
H    2.247176   -1.929611   1.447092
