 26
Energy: -16507.74548015.7 eV PBE+vdW (tier 2 basis)
N   -0.363939    0.509024   0.303313
C   -0.141427    0.114012   1.694128
C    1.316649    0.229701   2.167602
O    1.958522   -0.597708   2.792470
H    0.218676   -0.034165  -0.340533
H   -0.112467    1.487197   0.168887
H   -0.658935    0.866976   2.314964
C   -0.797605   -1.247254   2.027057
C   -0.784261   -2.334359   0.938961
C    0.474517   -3.213157   0.817477
N    1.744657   -2.539304   0.594956
C    2.024771   -1.847353  -0.567170
N    1.361484   -1.825338  -1.677706
N    3.173609   -1.052609  -0.457460
H   -1.852152   -1.025230   2.238984
H   -0.363018   -1.630092   2.962263
H   -1.032240   -1.871430  -0.026700
H   -1.615261   -3.025747   1.149357
H    0.319830   -3.946888   0.010415
H    0.598960   -3.798194   1.740084
H    2.141865   -2.127420   1.437171
H    0.497691   -2.367057  -1.608560
H    3.934018   -1.477831   0.065803
H    3.471363   -0.725747  -1.372142
O    1.842161    1.435607   1.832630
H    2.769650    1.421450   2.137388
