 26
Energy: -16507.59429115.7 eV PBE+vdW (tier 2 basis)
N    0.078414   -0.828995  -0.330056
C    0.052373   -0.281743   1.021268
C    1.435745    0.146635   1.525029
O    2.494040   -0.173117   1.026094
H    0.902664   -1.423091  -0.442270
H    0.196312   -0.075375  -1.007084
H   -0.578931    0.619192   1.017501
C   -0.590115   -1.273393   2.019975
C    0.180640   -2.582726   2.195891
C   -0.518125   -3.532169   3.167608
N    0.249656   -4.755151   3.325215
C   -0.124694   -5.820359   4.127456
N    0.353563   -6.989032   3.859318
N   -0.921759   -5.482033   5.224624
H   -1.600779   -1.483846   1.640900
H   -0.700629   -0.770771   2.992518
H    1.200291   -2.389170   2.564289
H    0.282940   -3.085526   1.220582
H   -1.549263   -3.725237   2.806207
H   -0.603628   -3.028655   4.145498
H    0.736201   -5.087918   2.497981
H    0.080153   -7.677156   4.564448
H   -1.522539   -4.669596   5.132321
H   -1.397471   -6.270699   5.646129
O    1.351108    0.929544   2.637463
H    2.271007    1.128553   2.901021
