 26
Energy: -16507.62266715.7 eV PBE+vdW (tier 2 basis)
N    1.236349   -0.773497  -0.459006
C    1.470969   -0.448640   0.944856
C    2.713692   -1.190546   1.416119
O    3.483877   -1.791975   0.695700
H    0.863555    0.028238  -0.962614
H    2.112069   -1.056376  -0.900186
H    1.747327    0.615532   1.101448
C    0.203407   -0.684737   1.803067
C   -0.416318   -2.083594   1.704766
C    0.352877   -3.205614   2.423281
N    0.594647   -2.996900   3.848113
C   -0.428347   -2.857336   4.777799
N   -0.279739   -2.005252   5.736946
N   -1.490273   -3.748252   4.630436
H   -0.541933    0.045505   1.453313
H    0.413657   -0.419162   2.848919
H   -0.519651   -2.354619   0.643550
H   -1.433985   -2.031818   2.122060
H    1.333646   -3.367351   1.955131
H   -0.176965   -4.160226   2.274201
H    1.321515   -2.314613   4.049439
H   -1.019302   -2.101702   6.437990
H   -2.369110   -3.443462   5.028887
H   -1.591749   -4.223052   3.740714
O    2.919589   -1.059263   2.757428
H    3.766381   -1.509938   2.942964
