 26
Energy: -16507.52349515.7 eV PBE+vdW (tier 2 basis)
N    0.708191    0.687985   1.047341
C   -0.379423    0.231969   1.910447
C   -0.094445    0.134743   3.414105
O   -0.946212    0.148909   4.278021
H    1.550025    0.129497   1.188213
H    0.962608    1.647988   1.279821
H   -1.184718    0.976908   1.832059
C   -0.990900   -1.109528   1.430711
C   -0.238256   -2.406735   1.757152
C    1.129834   -2.577551   1.096671
N    1.602647   -3.947444   1.291516
C    2.870166   -4.356768   0.892211
N    3.515973   -5.189285   1.635809
N    3.313309   -3.772683  -0.296869
H   -1.123959   -1.012109   0.343063
H   -1.993296   -1.187469   1.873536
H   -0.871553   -3.248467   1.436494
H   -0.129556   -2.511669   2.849930
H    1.855955   -1.851129   1.505940
H    1.035442   -2.365562   0.020577
H    1.415093   -4.322908   2.218983
H    4.372473   -5.514624   1.179963
H    2.597195   -3.566720  -0.987663
H    4.123523   -4.226677  -0.702814
O    1.233637   -0.005090   3.695863
H    1.290604   -0.092232   4.667572
