 26
Energy: -16507.66192015.7 eV PBE+vdW (tier 2 basis)
N   -0.032803   -0.764157  -0.371783
C   -0.277573   -0.289568   0.992079
C    1.021460    0.085918   1.710251
O    1.997829   -0.631208   1.800427
H    0.344268   -0.011393  -0.948918
H    0.678243   -1.498956  -0.352504
H   -0.910660    0.606792   0.934456
C   -1.016128   -1.374996   1.791285
C   -1.386256   -0.971645   3.219170
C   -2.157362   -2.062212   3.978643
N   -3.444448   -2.447830   3.394556
C   -4.509239   -1.556561   3.254263
N   -5.365241   -1.523347   2.290564
N   -4.620285   -0.631778   4.291975
H   -0.385017   -2.279825   1.806888
H   -1.917200   -1.617805   1.209925
H   -1.990203   -0.051298   3.208621
H   -0.477784   -0.742161   3.799469
H   -2.314906   -1.737590   5.016554
H   -1.552907   -2.979602   4.038627
H   -3.367090   -3.069458   2.596444
H   -5.092297   -2.149046   1.527539
H   -5.497860   -0.124854   4.226496
H   -4.447187   -0.996755   5.224082
O    0.978403    1.339996   2.241984
H    1.844065    1.481402   2.675048
