 26
Energy: -16507.70661615.7 eV PBE+vdW (tier 2 basis)
N   -0.337431   -0.015723  -0.093319
C   -0.162076   -0.000169   1.352291
C    1.306967   -0.013997   1.793345
O    2.252207   -0.308404   1.092686
H    0.261275   -0.732035  -0.508593
H   -0.021049    0.867872  -0.492903
H   -0.599239    0.932279   1.740280
C   -0.924373   -1.167333   2.021694
C   -0.431463   -2.560924   1.627428
C   -1.215966   -3.667248   2.350443
N   -0.849297   -5.023375   1.984751
C   -1.298797   -5.617358   0.809318
N   -2.164293   -5.175648  -0.036141
N   -0.686121   -6.855269   0.579463
H   -1.980464   -1.053910   1.735446
H   -0.866904   -1.043440   3.113837
H    0.639390   -2.672570   1.864628
H   -0.528339   -2.707153   0.541371
H   -2.294921   -3.548717   2.166176
H   -1.082929   -3.565744   3.438550
H    0.082027   -5.313552   2.267412
H   -2.436451   -4.210226   0.160873
H   -1.123067   -7.326327  -0.207728
H   -0.628546   -7.456672   1.397400
O    1.444440    0.335371   3.105300
H    2.400512    0.282159   3.300689
