 26
Energy: -16507.68585615.7 eV PBE+vdW (tier 2 basis)
N    0.252909    0.813355  -0.128758
C    0.050135    0.482493   1.275483
C    1.275538    0.928912   2.053730
O    2.415972    0.894174   1.639589
H   -0.445579    0.352715  -0.717147
H    1.173865    0.485834  -0.426162
H   -0.815812    1.047656   1.653989
C   -0.182032   -1.024087   1.595017
C   -1.442098   -1.590292   0.913162
C   -1.205606   -2.853904   0.068638
N   -0.186320   -2.745992  -0.968896
C   -0.359015   -1.947011  -2.079699
N   -1.454457   -1.283932  -2.256934
N    0.777614   -1.923388  -2.899676
H   -0.241619   -1.159124   2.685250
H    0.719430   -1.564992   1.263793
H   -1.897092   -0.839279   0.253840
H   -2.203412   -1.832920   1.668890
H   -2.148065   -3.134440  -0.420784
H   -0.906081   -3.694029   0.712300
H    0.775175   -2.860569  -0.669872
H   -1.475787   -0.847075  -3.181330
H    0.637302   -1.451923  -3.786379
H    1.252286   -2.815429  -3.012213
O    0.964482    1.325989   3.319517
H    1.816795    1.532890   3.750678
