 26
Energy: -16507.61889615.7 eV PBE+vdW (tier 2 basis)
N   -0.409525    0.589333   0.342680
C    0.127826    0.242157   1.667978
C    1.620279    0.514055   1.746795
O    2.386947   -0.021247   2.527763
H   -0.124668    1.534626   0.084137
H   -1.429047    0.594693   0.392567
H   -0.263533    0.904038   2.471482
C   -0.215559   -1.228590   2.015418
C   -0.916588   -1.475457   3.359429
C   -0.029432   -1.427378   4.615796
N    0.553663   -0.124700   4.938884
C   -0.226322    0.991684   5.183574
N    0.106043    2.125514   4.655405
N   -1.351774    0.744315   5.975646
H    0.695474   -1.841729   1.956353
H   -0.871040   -1.583774   1.207983
H   -1.371100   -2.479033   3.328002
H   -1.753468   -0.768880   3.484308
H    0.815537   -2.120897   4.499512
H   -0.610842   -1.795608   5.474446
H    1.350194    0.111255   4.347414
H   -0.457228    2.892422   5.033600
H   -1.229860    0.046483   6.704371
H   -1.814710    1.580871   6.312066
O    2.028164    1.486402   0.893513
H    2.974178    1.632395   1.088175
