 26
Energy: -16507.53278715.7 eV PBE+vdW (tier 2 basis)
N   -1.053006    0.196866   0.117671
C   -0.400746    0.070279   1.426455
C    1.053174    0.531084   1.351007
O    1.989429    0.028525   1.936169
H   -2.055671    0.038583   0.219548
H   -0.931479    1.137515  -0.256064
H   -0.840805    0.742167   2.197598
C   -0.490246   -1.360345   1.962883
C    0.129156   -2.427394   1.044992
C    0.641785   -3.642325   1.817562
N    1.773045   -3.273630   2.665464
C    2.043409   -3.869001   3.880619
N    2.611589   -3.181952   4.815242
N    1.611363   -5.201641   3.966912
H   -1.550041   -1.594618   2.149013
H    0.000704   -1.376343   2.946156
H    0.965869   -1.998603   0.473119
H   -0.600727   -2.760490   0.295910
H    0.934882   -4.422590   1.092397
H   -0.168214   -4.068301   2.434248
H    2.044178   -2.291879   2.654052
H    2.871143   -3.776464   5.606479
H    1.973880   -5.691533   4.777191
H    1.705844   -5.750589   3.116180
O    1.190711    1.643886   0.576980
H    2.137253    1.882717   0.615253
