 26
Energy: -16507.66794515.7 eV PBE+vdW (tier 2 basis)
N   -0.779022    1.776637   2.221154
C   -0.140139    0.732338   3.021659
C    1.294237    0.571995   2.534920
O    1.857163    1.327265   1.769602
H   -0.083677    2.479474   1.966775
H   -1.523446    2.236203   2.744755
H   -0.031802    1.011842   4.092314
C   -0.937449   -0.585110   2.966690
C   -2.324940   -0.492357   3.638080
C   -3.489722   -0.918420   2.728042
N   -3.651318   -0.102639   1.537014
C   -3.978809    1.242867   1.593221
N   -4.650789    1.850918   2.514406
N   -3.538558    1.944984   0.466559
H   -0.345742   -1.381059   3.434428
H   -1.044366   -0.847153   1.902763
H   -2.524473    0.534296   3.979694
H   -2.346610   -1.116253   4.543710
H   -4.428455   -0.911252   3.303647
H   -3.352196   -1.956359   2.392551
H   -3.116778   -0.376103   0.721000
H   -5.027733    1.189688   3.199133
H   -3.811712    2.921951   0.537176
H   -2.531512    1.851896   0.324991
O    1.913715   -0.503928   3.091447
H    2.828451   -0.489233   2.749198
