 26
Energy: -16507.58174315.7 eV PBE+vdW (tier 2 basis)
N   -0.138625   -0.107924  -0.128854
C   -0.458824   -0.104617   1.293778
C    0.707436    0.384456   2.140749
O    0.600334    0.854797   3.253731
H   -0.840407   -0.626312  -0.663729
H    0.768446   -0.536398  -0.303537
H   -1.246101    0.648000   1.461629
C   -1.005180   -1.418580   1.931709
C   -0.065764   -2.632213   1.992531
C    0.054648   -3.465090   0.702367
N   -1.215898   -3.964519   0.211245
C   -1.939304   -3.391384  -0.817837
N   -1.501728   -2.647090  -1.780664
N   -3.291207   -3.736479  -0.788992
H   -1.923073   -1.686462   1.385358
H   -1.322513   -1.163366   2.953427
H   -0.425048   -3.301860   2.790442
H    0.947453   -2.327396   2.300447
H    0.731382   -4.314570   0.882214
H    0.515634   -2.874477  -0.098057
H   -1.710636   -4.628951   0.795482
H   -0.479187   -2.640947  -1.810148
H   -3.751519   -3.651284   0.113105
H   -3.802727   -3.277617  -1.536794
O    1.920606    0.187728   1.546794
H    2.582215    0.517133   2.185701
