 26
Energy: -16507.52002915.7 eV PBE+vdW (tier 2 basis)
N   -0.104108    0.624873   0.437822
C    0.065284   -0.142471   1.672212
C    1.493428   -0.620227   1.940182
O    2.080874   -0.515449   2.997590
H    0.164592    0.062453  -0.371012
H    0.500629    1.446683   0.437896
H   -0.168656    0.522198   2.516331
C   -0.942713   -1.309462   1.689961
C   -0.977817   -2.143539   2.981594
C   -0.076281   -3.380128   2.954306
N   -0.129781   -4.074125   4.230540
C    0.316447   -5.369437   4.457328
N    0.375304   -5.966701   5.600196
N    0.637651   -6.088582   3.304941
H   -0.752503   -1.961148   0.821189
H   -1.922278   -0.845265   1.514256
H   -2.005863   -2.482140   3.171930
H   -0.698946   -1.507846   3.838557
H    0.957649   -3.091051   2.683538
H   -0.438508   -4.066303   2.174595
H   -0.099915   -3.480579   5.051823
H   -0.014844   -5.383926   6.345829
H    1.034266   -6.989856   3.554108
H    1.188826   -5.599081   2.606529
O    2.065345   -1.194289   0.838863
H    2.965119   -1.457907   1.112344
