 26
Energy: -16507.66753215.7 eV PBE+vdW (tier 2 basis)
N   -0.519033   -0.995387   0.161455
C   -0.620508   -0.597913   1.555522
C    0.608604    0.216571   1.940961
O    1.689447    0.209940   1.394760
H   -1.365840   -1.488129  -0.120891
H    0.269873   -1.635399   0.001636
H   -1.463297    0.104966   1.649635
C   -0.890191   -1.733216   2.610986
C   -0.189300   -3.067324   2.335683
C    1.345133   -3.028877   2.407690
N    1.991384   -4.207239   1.843705
C    2.079775   -4.347920   0.471813
N    1.644693   -3.425624  -0.321365
N    2.645663   -5.575982   0.097839
H   -1.975371   -1.915499   2.612017
H   -0.646828   -1.357055   3.617085
H   -0.469114   -3.419768   1.332878
H   -0.570464   -3.816655   3.048159
H    1.682964   -2.922936   3.449496
H    1.738080   -2.170846   1.850669
H    1.877402   -5.076435   2.355127
H    1.912189   -3.610595  -1.290292
H    2.849360   -5.647308  -0.893195
H    3.434713   -5.871218   0.667506
O    0.355534    0.987542   3.044379
H    1.194948    1.447880   3.237152
