 26
Energy: -16507.68094215.7 eV PBE+vdW (tier 2 basis)
N   -0.846722    0.342740   0.746529
C   -0.307104    0.052628   2.070107
C    1.209507    0.135179   2.010177
O    1.879460    0.086015   0.999904
H   -0.169883    0.064094   0.034067
H   -1.706219   -0.179556   0.582246
H   -0.630878    0.834052   2.779374
C   -0.737782   -1.309015   2.683640
C   -0.244651   -2.541280   1.926537
C   -0.796907   -3.866963   2.473875
N   -2.249286   -3.995018   2.476469
C   -2.955514   -4.159841   1.300227
N   -2.343583   -4.283250   0.171790
N   -4.346241   -4.135936   1.510918
H   -1.840198   -1.295758   2.704348
H   -0.406410   -1.340821   3.733991
H    0.854990   -2.597303   1.970627
H   -0.512861   -2.474355   0.863524
H   -0.461936   -4.022170   3.510776
H   -0.399553   -4.692420   1.869482
H   -2.745191   -3.501227   3.209550
H   -2.996348   -4.521622  -0.578303
H   -4.881309   -4.406202   0.692387
H   -4.657890   -4.637460   2.339536
O    1.758173    0.245794   3.252373
H    2.725124    0.260000   3.115619
