 26
Energy: -16507.57492615.7 eV PBE+vdW (tier 2 basis)
N   -0.572745   -0.287502  -0.525927
C   -0.866123    0.111978   0.864245
C   -0.049097    1.366718   1.167524
O    0.734686    1.524334   2.077559
H   -1.186488   -1.060735  -0.785091
H   -0.783191    0.482439  -1.162066
H   -1.925302    0.415388   1.008751
C   -0.549975   -1.040230   1.831411
C   -1.507578   -1.151695   3.023931
C   -1.459593    0.024680   4.009260
N   -2.429905   -0.081135   5.091898
C   -3.752629    0.257418   4.874178
N   -4.132431    0.769147   3.751693
N   -4.567127   -0.050705   5.977897
H    0.491584   -0.949183   2.171452
H   -0.604964   -1.974552   1.253956
H   -1.279635   -2.081387   3.570532
H   -2.541195   -1.244992   2.656576
H   -1.679791    0.967588   3.495755
H   -0.457227    0.120148   4.449890
H   -2.289776   -0.848135   5.741751
H   -5.106588    1.076108   3.798869
H   -5.502324    0.336495   5.910059
H   -4.145991    0.149509   6.882145
O   -0.322887    2.351912   0.262081
H    0.237463    3.110891   0.514333
