 26
Energy: -16507.62823815.7 eV PBE+vdW (tier 2 basis)
N   -0.451891   -0.515486  -0.256908
C   -0.175018   -0.269786   1.167449
C    1.272153    0.197035   1.345395
O    2.249516   -0.524166   1.386936
H   -0.341981    0.341933  -0.799706
H    0.214634   -1.194852  -0.629859
H   -0.840273    0.541923   1.495087
C   -0.449526   -1.531690   1.983830
C   -0.297814   -1.335461   3.492611
C   -0.498903   -2.642069   4.274389
N   -0.260272   -2.517812   5.703626
C    0.913402   -2.848857   6.361047
N    1.060591   -3.016160   7.633447
N    2.012477   -3.044708   5.524051
H    0.239743   -2.322388   1.645106
H   -1.467433   -1.865660   1.733997
H   -1.013874   -0.581534   3.857177
H    0.704163   -0.938397   3.721303
H    0.166441   -3.421572   3.873531
H   -1.527093   -3.006083   4.125229
H   -1.064741   -2.402094   6.304771
H    0.160652   -2.991848   8.120717
H    2.857425   -3.163060   6.074607
H    2.131651   -2.379838   4.765064
O    1.362447    1.557862   1.376830
H    2.316867    1.766512   1.418923
