 26
Energy: -16507.83277915.7 eV PBE+vdW (tier 2 basis)
N    0.473459    0.866851   1.590450
C   -0.394731   -0.309367   1.796164
C    0.360102   -1.585840   1.374447
O    1.538942   -1.348594   0.787612
H   -0.005730    1.605869   1.078861
H    0.808186    1.260651   2.467349
H   -0.613495   -0.448488   2.866743
C   -1.720064   -0.206513   1.022158
C   -2.813825    0.563400   1.767565
C   -3.410027   -0.232247   2.938341
N   -4.077752   -1.459882   2.505474
C   -3.871606   -2.703333   3.120357
N   -4.785960   -3.579965   3.370226
N   -2.549974   -2.960855   3.464748
H   -2.091469   -1.218636   0.811668
H   -1.511989    0.252090   0.041799
H   -3.619450    0.815679   1.060853
H   -2.430771    1.525313   2.148718
H   -4.113986    0.411401   3.492880
H   -2.629150   -0.521713   3.653898
H   -5.049528   -1.331637   2.243348
H   -5.721991   -3.192113   3.219107
H   -2.471008   -3.892539   3.862228
H   -1.842579   -2.804169   2.740949
O   -0.086821   -2.701165   1.561182
H    1.604707   -0.348043   0.818038
