 26
Energy: -16507.82001115.7 eV PBE+vdW (tier 2 basis)
N    0.345216    1.882161   1.882561
C    0.339572    0.494886   2.387361
C    1.083286   -0.410593   1.384938
O    1.083941   -1.622761   1.442962
H    0.395759    2.542442   2.659727
H    1.550788    1.233215   0.678504
H    0.975551    0.497790   3.286751
C   -1.059315   -0.041332   2.752564
C   -1.107760   -1.249444   3.699312
C   -0.370439   -1.059524   5.036002
N   -0.731677    0.170404   5.754851
C   -0.015070    1.357775   5.640726
N   -0.494217    2.555338   5.556448
N    1.370632    1.190862   5.611284
H   -1.599918   -0.297415   1.827771
H   -1.606912    0.797210   3.209811
H   -0.683247   -2.131895   3.201289
H   -2.166645   -1.479338   3.903658
H    0.713083   -1.045104   4.869494
H   -0.573334   -1.925096   5.684005
H   -1.733090    0.336782   5.801691
H   -1.511545    2.539519   5.441471
H    1.738243    0.488439   6.246639
H    1.843483    2.085365   5.699889
O    1.767064    0.280832   0.454732
H   -0.516449    2.087481   1.373557
