 26
Energy: -16507.72890215.7 eV PBE+vdW (tier 2 basis)
N    0.427261    0.059145  -0.337631
C   -0.175405   -0.014124   1.001558
C    0.525410    0.823805   2.071842
O   -0.034849    1.412192   2.971762
H    1.399790   -0.251459  -0.284660
H    0.457163    1.030287  -0.654038
H   -1.191694    0.401450   0.940221
C   -0.260232   -1.479754   1.500953
C   -1.574106   -2.200452   1.176958
C   -1.853702   -2.445958  -0.309224
N   -0.833998   -3.286103  -0.927209
C   -0.402715   -3.128883  -2.241949
N   -0.101093   -4.192585  -2.912310
N   -0.358106   -1.808569  -2.673344
H   -0.127645   -1.491986   2.592102
H    0.586898   -2.038664   1.075025
H   -2.418454   -1.635488   1.604042
H   -1.566214   -3.170026   1.700993
H   -1.896434   -1.497240  -0.855651
H   -2.855802   -2.901591  -0.411188
H   -0.911800   -4.278884  -0.721448
H    0.327679   -3.953660  -3.810191
H    0.123664   -1.678262  -3.554683
H   -0.122775   -1.110355  -1.955937
O    1.883960    0.814286   1.929734
H    2.235340    1.335355   2.677568
