 26
Energy: -16507.80107015.7 eV PBE+vdW (tier 2 basis)
N    1.366836   -0.301055   0.198759
C    0.871505    0.261276   1.455235
C    1.877544    0.045990   2.591889
O    2.901415   -0.617467   2.442301
H    1.390719    0.400614  -0.537019
H    2.326051   -0.622238   0.354661
H    0.726534    1.353248   1.388564
C   -0.510071   -0.327205   1.872200
C   -0.746329   -1.840382   1.714551
C    0.306216   -2.846329   2.231209
N    0.988920   -2.557610   3.493972
C    0.422775   -2.195685   4.681489
N    1.062182   -1.335723   5.432937
N   -0.812096   -2.748355   4.959534
H   -1.275295    0.168745   1.256417
H   -0.704594   -0.015174   2.906592
H   -0.867102   -2.074753   0.646860
H   -1.714275   -2.054416   2.191556
H    1.114952   -2.921605   1.494701
H   -0.160586   -3.845105   2.268539
H    1.922625   -2.167191   3.381703
H    0.650954   -1.221659   6.359305
H   -1.002308   -3.673096   4.588977
H   -1.181896   -2.583820   5.886937
O    1.474053    0.575513   3.741955
H    1.564105   -0.114070   4.534787
