 26
Energy: -16507.68534815.7 eV PBE+vdW (tier 2 basis)
N   -0.325500    1.032044   1.255267
C   -0.258156    0.167808   2.433004
C    1.063760    0.179749   3.203120
O    1.169610    0.110412   4.410427
H    0.408409    0.778418   0.592128
H   -0.165833    2.006165   1.511533
H   -1.008285    0.520381   3.157092
C   -0.589893   -1.290340   2.054813
C   -2.033338   -1.455850   1.575650
C   -2.370384   -2.863243   1.068934
N   -2.253799   -3.918440   2.066958
C   -1.127839   -4.714900   2.155064
N   -0.169960   -4.620945   1.296330
N   -1.170728   -5.561850   3.276466
H   -0.401459   -1.933124   2.926784
H    0.107958   -1.629193   1.273460
H   -2.231216   -0.741039   0.763257
H   -2.723529   -1.184075   2.394126
H   -1.698444   -3.145297   0.248734
H   -3.399378   -2.867257   0.676813
H   -2.739077   -3.761853   2.944178
H    0.527442   -5.353836   1.441676
H   -0.443908   -6.269412   3.275826
H   -2.083954   -5.966981   3.468686
O    2.149176    0.252326   2.376449
H    2.929883    0.210308   2.961643
