 26
Energy: -16507.75220715.7 eV PBE+vdW (tier 2 basis)
N    0.815373   -0.493832  -0.006667
C    0.482616   -0.144792   1.379843
C    1.429680   -0.691090   2.459151
O    1.522348   -0.196419   3.569541
H    1.097277   -1.476280  -0.039755
H    1.643934    0.028771  -0.295321
H    0.502384    0.949716   1.458069
C   -0.974224   -0.610790   1.736849
C   -1.142398   -1.824105   2.668233
C   -0.741078   -3.191256   2.085422
N   -0.653046   -4.243684   3.096763
C    0.442113   -4.432035   3.901459
N    1.561080   -3.790519   3.739738
N    0.212697   -5.359878   4.918635
H   -1.479716   -0.782928   0.775012
H   -1.489796    0.232046   2.216107
H   -2.200516   -1.873936   2.972821
H   -0.573000   -1.653822   3.593663
H    0.231778   -3.140718   1.586930
H   -1.472628   -3.518690   1.332373
H   -1.533047   -4.507834   3.527312
H    2.288040   -4.130013   4.369099
H   -0.372883   -6.151183   4.667710
H    1.042390   -5.643255   5.427318
O    2.037540   -1.827092   2.075405
H    1.994790   -2.533087   2.838109
