 26
Energy: -16507.66177815.7 eV PBE+vdW (tier 2 basis)
N   -0.720379    0.355831  -0.001325
C   -0.089715    0.009214   1.265266
C    1.384325   -0.424054   1.234619
O    2.089115   -0.530285   2.217610
H   -0.759640   -0.452486  -0.622088
H   -0.182743    1.069909  -0.491231
H   -0.090446    0.911880   1.896971
C   -0.906206   -1.062814   2.018776
C   -0.934556   -2.437305   1.345987
C   -1.738121   -3.451295   2.171324
N   -1.796228   -4.790003   1.602464
C   -2.657538   -5.070216   0.555763
N   -3.489878   -4.183749   0.127610
N   -2.469513   -6.368741   0.051571
H   -1.930050   -0.672857   2.114370
H   -0.490410   -1.154003   3.033092
H    0.093493   -2.815009   1.213819
H   -1.394341   -2.379500   0.348885
H   -2.774220   -3.102707   2.272274
H   -1.312545   -3.536404   3.183037
H   -0.917878   -5.297845   1.576134
H   -4.136769   -4.582692  -0.556295
H   -3.188381   -6.655484  -0.604249
H   -2.307178   -7.079193   0.761466
O    1.843439   -0.690327  -0.022902
H    2.775810   -0.959042   0.093764
