 26
Energy: -16507.51500615.7 eV PBE+vdW (tier 2 basis)
N    0.545689   -0.003158  -0.482766
C   -0.153142    0.016872   0.804198
C    0.832901   -0.218954   1.939942
O    0.852136    0.391048   2.988035
H   -0.109491    0.210387  -1.235509
H    0.924956   -0.932974  -0.668094
H   -0.526465    1.037775   0.960195
C   -1.335658   -0.985463   0.919750
C   -2.073147   -1.041291   2.263799
C   -2.737616    0.272935   2.678075
N   -3.517538    0.077702   3.891681
C   -4.428924    0.988631   4.409234
N   -5.068059    0.877712   5.525433
N   -4.717797    2.065928   3.570015
H   -0.950133   -1.988499   0.680394
H   -2.047724   -0.726866   0.119006
H   -1.377560   -1.359953   3.057968
H   -2.850960   -1.817380   2.204206
H   -3.421377    0.602544   1.880781
H   -1.965272    1.055275   2.805584
H   -3.097194   -0.524103   4.590635
H   -4.873688   -0.019758   5.977882
H   -5.323383    2.727526   4.046935
H   -3.921235    2.516306   3.129003
O    1.675319   -1.256591   1.675822
H    2.252803   -1.342847   2.458905
