 26
Energy: -16507.60859015.7 eV PBE+vdW (tier 2 basis)
N   -0.496773    0.872767   0.627468
C   -0.110860    0.221979   1.883750
C    1.404359    0.122955   2.077569
O    2.034790    0.621528   2.987131
H   -0.113520    1.817340   0.578820
H   -0.119001    0.356994  -0.169081
H   -0.462517    0.855949   2.710106
C   -0.776764   -1.157458   1.984230
C   -0.516624   -1.884745   3.303246
C   -1.165253   -3.275766   3.364851
N   -0.672998   -4.211603   2.358133
C    0.281104   -5.194353   2.578205
N    0.467811   -6.258189   1.871120
N    1.082216   -4.980718   3.700880
H   -0.428842   -1.782303   1.146642
H   -1.856897   -0.999173   1.841446
H   -0.897037   -1.286791   4.147117
H    0.568892   -1.983790   3.470250
H   -2.252632   -3.174218   3.226971
H   -1.012713   -3.712561   4.362070
H   -1.284737   -4.402809   1.575917
H   -0.271655   -6.379508   1.173626
H    1.831247   -5.665798   3.734069
H    1.417112   -4.031232   3.836513
O    2.001471   -0.591146   1.076739
H    2.958461   -0.579640   1.270403
