 26
Energy: -16507.63170015.7 eV PBE+vdW (tier 2 basis)
N   -0.584322    0.149879  -0.012119
C   -0.173264    0.396485   1.366613
C    1.304781    0.726392   1.590516
O    1.731964    1.474716   2.444231
H   -0.019228   -0.592854  -0.425845
H   -0.443725    0.981129  -0.585311
H   -0.714953    1.280967   1.730674
C   -0.531212   -0.808581   2.267683
C   -2.023104   -1.156931   2.281742
C   -2.901435   -0.061548   2.882537
N   -4.283927   -0.507486   2.972002
C   -5.294076    0.409677   3.203964
N   -5.046437    1.674002   3.233945
N   -6.534831   -0.217696   3.420542
H   -0.182400   -0.590439   3.288625
H    0.042520   -1.682638   1.920108
H   -2.144612   -2.085389   2.865280
H   -2.364681   -1.373233   1.260132
H   -2.902718    0.839575   2.256955
H   -2.511334    0.249026   3.870437
H   -4.420895   -1.405233   3.426924
H   -5.911099    2.216769   3.298093
H   -7.316387    0.429165   3.428213
H   -6.716147   -1.011569   2.810483
O    2.126512    0.051809   0.730225
H    3.035604    0.304612   0.982404
