 26
Energy: -16507.58978815.7 eV PBE+vdW (tier 2 basis)
N    0.171687    0.041587  -0.257925
C   -0.171611   -0.206088   1.141859
C    0.982831    0.167094   2.060737
O    0.860586    0.633615   3.172824
H   -0.619781   -0.179058  -0.861835
H    0.950600   -0.550916  -0.548647
H   -0.978965    0.487358   1.416149
C   -0.607952   -1.655521   1.505822
C   -1.863251   -2.144827   0.776825
C   -3.145236   -1.381992   1.153049
N   -4.366006   -1.933014   0.591232
C   -4.968831   -3.072425   1.115103
N   -4.681459   -3.708269   2.197829
N   -6.015052   -3.533018   0.306607
H   -0.772385   -1.706719   2.594346
H    0.230459   -2.333136   1.281049
H   -2.007080   -3.211158   1.004231
H   -1.717058   -2.093061  -0.315340
H   -3.082868   -0.332289   0.830723
H   -3.257831   -1.351400   2.247955
H   -4.467808   -1.832445  -0.414082
H   -3.825678   -3.358279   2.633698
H   -6.639102   -2.804896  -0.031868
H   -6.523167   -4.277602   0.775771
O    2.194124   -0.147770   1.521067
H    2.858468    0.094175   2.194972
