 26
Energy: -16507.59723615.7 eV PBE+vdW (tier 2 basis)
N    0.368578    1.605515   1.850232
C    0.655863    0.159321   1.737492
C    1.013381   -0.166101   0.259902
O    1.131891    0.928139  -0.509051
H    0.844368    2.036027   2.639406
H   -0.630559    1.777374   1.959658
H    1.583852   -0.049083   2.295240
C   -0.448407   -0.782088   2.240134
C   -0.483546   -1.052223   3.748141
C   -0.749993    0.158424   4.645372
N   -0.950121   -0.268955   6.018770
C   -1.424522    0.523373   7.053512
N   -1.583373    0.164434   8.282399
N   -1.833717    1.800881   6.663936
H   -0.311190   -1.740426   1.721535
H   -1.423605   -0.389667   1.901926
H    0.467425   -1.524615   4.048554
H   -1.272549   -1.794528   3.944261
H   -1.659774    0.678978   4.306005
H    0.089052    0.879075   4.560354
H   -0.452647   -1.100570   6.313097
H   -1.384212   -0.831143   8.412145
H   -2.088050    2.349586   7.480331
H   -1.207278    2.302162   6.040986
O    1.192681   -1.293909  -0.142728
H    0.910453    1.673018   0.123391
