 26
Energy: -16507.58869815.7 eV PBE+vdW (tier 2 basis)
N    0.248340   -0.404951   0.077050
C   -0.130843   -0.035881   1.440997
C    1.056732    0.484614   2.256627
O    2.140913   -0.055458   2.333020
H    1.023688   -1.070980   0.109416
H    0.590924    0.411403  -0.431118
H   -0.879641    0.767353   1.382317
C   -0.748920   -1.255147   2.146015
C   -1.259801   -0.979445   3.562160
C   -1.941524   -2.185836   4.210732
N   -0.997493   -3.272834   4.406914
C   -1.324580   -4.525314   4.900038
N   -0.391940   -5.229294   5.448607
N   -2.637363   -4.936107   4.653403
H   -0.002394   -2.063454   2.164601
H   -1.573157   -1.603902   1.506396
H   -1.981024   -0.147833   3.546811
H   -0.434838   -0.647953   4.214940
H   -2.749072   -2.527287   3.541962
H   -2.413998   -1.862377   5.159879
H   -0.067537   -3.004940   4.717650
H   -0.724782   -6.162554   5.700914
H   -2.933820   -5.723056   5.218071
H   -3.348428   -4.215352   4.588565
O    0.768358    1.651111   2.903874
H    1.576894    1.893156   3.398387
