 26
Energy: -16507.75948415.7 eV PBE+vdW (tier 2 basis)
N   -0.493575   -0.469057   0.089960
C   -0.168862   -0.174929   1.476331
C    1.305362    0.152122   1.743030
O    2.268880   -0.346559   1.185735
H    0.012085   -1.298165  -0.236793
H   -0.232401    0.306800  -0.517871
H   -0.737883    0.719474   1.769222
C   -0.624802   -1.308839   2.434178
C    0.245440   -2.569703   2.590143
C    0.346246   -3.537287   1.406516
N    1.179378   -3.018660   0.337659
C    1.498422   -3.775285  -0.777186
N    0.984439   -4.902228  -1.138798
N    2.428468   -3.152344  -1.612856
H   -1.633010   -1.591274   2.095259
H   -0.737907   -0.865793   3.434201
H   -0.183826   -3.142730   3.425261
H    1.262155   -2.298383   2.920324
H   -0.666661   -3.743291   1.018074
H    0.745227   -4.500359   1.775717
H    1.799894   -2.245396   0.577645
H    0.254998   -5.207878  -0.491966
H    3.161187   -2.620483  -1.153105
H    2.782147   -3.794304  -2.314782
O    1.447077    1.082601   2.722878
H    2.408818    1.203352   2.853002
