 26
Energy: -16507.79688715.7 eV PBE+vdW (tier 2 basis)
N   -1.327277   -0.016076   0.472670
C   -0.176641   -0.313522   1.340606
C    1.031193   -0.702046   0.457551
O    2.046389   -1.208819   0.890531
H   -0.079497   -0.050340  -0.873766
H   -1.933259   -0.821611   0.302331
H    0.124135    0.653291   1.778151
C   -0.390623   -1.279100   2.530920
C   -0.307317   -2.796651   2.300138
C   -1.268567   -3.407104   1.275638
N   -0.853354   -3.140631  -0.094906
C   -1.651489   -2.808646  -1.171108
N   -1.263757   -2.544583  -2.370779
N   -3.012582   -2.636335  -0.854913
H   -1.364962   -1.024647   2.978725
H    0.365171   -1.033704   3.290280
H   -0.500660   -3.284920   3.267697
H    0.725013   -3.065453   2.030440
H   -2.274915   -2.989056   1.417840
H   -1.345514   -4.494657   1.457596
H    0.118939   -3.320098  -0.318180
H   -0.243059   -2.546867  -2.447793
H   -3.435456   -3.401236  -0.333876
H   -3.523744   -2.450453  -1.714708
O    0.863057   -0.389969  -0.837399
H   -1.901402    0.733307   0.851692
