 26
Energy: -16507.89411515.7 eV PBE+vdW (tier 2 basis)
N   -0.095238    0.270978   2.053510
C    0.303752   -1.141544   1.877434
C    1.741381   -1.320977   2.415082
O    2.350877   -2.375659   2.366432
H   -1.006649    0.353528   2.498810
H    1.488285    0.443099   2.864827
H   -0.321301   -1.742684   2.555072
C    0.136959   -1.693569   0.439783
C   -1.047134   -2.658634   0.276965
C   -0.711101   -4.118245   0.648891
N    0.004755   -4.309565   1.899943
C   -0.629521   -4.168378   3.114650
N   -1.912876   -3.996876   3.174146
N    0.238031   -4.293101   4.204270
H    1.068579   -2.189832   0.129795
H    0.014674   -0.833693  -0.237120
H   -1.386129   -2.657415  -0.770176
H   -1.897047   -2.314114   0.884011
H   -0.082896   -4.556390  -0.141072
H   -1.639851   -4.700417   0.699041
H    0.988462   -4.046633   1.890821
H   -2.236642   -4.018231   4.144092
H   -0.097641   -3.864470   5.058686
H    1.218294   -4.090197   4.024700
O    2.240419   -0.217144   2.979826
H   -0.146442    0.755160   1.157581
