 26
Energy: -16507.58962215.7 eV PBE+vdW (tier 2 basis)
N   -0.434770    0.625799   0.886425
C    0.363978    0.159680   2.014587
C    1.806566    0.033610   1.555814
O    2.159304   -0.173802   0.413633
H   -1.407820    0.339942   0.984061
H   -0.070159    0.211260   0.026051
H    0.348890    0.920640   2.811986
C   -0.058822   -1.205622   2.630525
C   -1.487957   -1.238833   3.183087
C   -1.726108   -0.298037   4.372957
N   -3.060954   -0.399603   4.964912
C   -3.520566   -1.558231   5.594036
N   -4.726910   -2.012142   5.589318
N   -2.535441   -2.255875   6.293257
H    0.646205   -1.461612   3.437370
H    0.049049   -1.978880   1.854247
H   -1.710675   -2.266340   3.505738
H   -2.219323   -1.011426   2.388859
H   -1.593127    0.752650   4.078107
H   -0.969613   -0.488521   5.148235
H   -3.788899    0.042111   4.412041
H   -5.317485   -1.497354   4.930238
H   -2.953229   -2.989725   6.857756
H   -1.885341   -1.680975   6.821647
O    2.680291    0.137113   2.593607
H    3.568592   -0.008191   2.213633
