 26
Energy: -16507.56081315.7 eV PBE+vdW (tier 2 basis)
N   -0.260765    0.421264  -0.021053
C   -0.160520    0.255267   1.434358
C    1.031408    1.012560   2.023784
O    0.962167    1.996242   2.730295
H   -0.360398    1.407476  -0.263856
H    0.589134    0.084795  -0.476892
H   -1.047311    0.724744   1.882806
C   -0.140210   -1.235217   1.792197
C   -0.111587   -1.508489   3.296772
C   -0.116029   -3.002389   3.615144
N   -0.102053   -3.215610   5.052271
C   -0.072672   -4.461338   5.658841
N    0.412755   -4.551507   6.851505
N   -0.677181   -5.487990   4.929696
H    0.730369   -1.706488   1.308403
H   -1.036684   -1.681764   1.336604
H   -0.977653   -1.036538   3.786129
H    0.787396   -1.053249   3.745309
H    0.746558   -3.483130   3.109278
H   -1.032215   -3.445642   3.189785
H    0.436609   -2.547413   5.595948
H    0.298451   -5.493243   7.233187
H   -0.425564   -6.419063   5.238642
H   -0.690365   -5.401452   3.919066
O    2.226848    0.480677   1.622609
H    2.917175    1.054448   2.007316
