 26
Energy: -16507.66022715.7 eV PBE+vdW (tier 2 basis)
N    0.677204   -0.433643  -0.597505
C    0.781570   -0.502783   0.856577
C    2.130445   -1.047895   1.336911
O    2.908421   -1.692896   0.663501
H    1.088850   -1.274530  -1.008021
H    1.241053    0.340844  -0.948090
H    0.684925    0.515745   1.259813
C   -0.368100   -1.337000   1.470142
C   -0.402162   -2.796305   1.011165
C   -1.552116   -3.607607   1.626436
N   -1.464350   -3.791466   3.075906
C   -1.953457   -2.888316   4.016947
N   -1.440901   -2.627508   5.172478
N   -3.123132   -2.231446   3.633720
H   -1.306898   -0.840811   1.186213
H   -0.294588   -1.281826   2.565210
H    0.551767   -3.298690   1.246820
H   -0.510233   -2.842404  -0.084386
H   -1.584907   -4.603471   1.159306
H   -2.509171   -3.121811   1.398176
H   -0.600467   -4.228604   3.383033
H   -0.513888   -3.050961   5.272005
H   -3.503892   -1.707226   4.416060
H   -3.821349   -2.815678   3.182221
O    2.363859   -0.747866   2.644831
H    3.224182   -1.153820   2.868830
