 26
Energy: -16507.61206215.7 eV PBE+vdW (tier 2 basis)
N   -0.411239    0.505467   0.181859
C   -0.160345    0.122518   1.571458
C    1.330802    0.297663   1.852268
O    2.043874    1.078055   1.256572
H    0.296618    1.186391  -0.101682
H   -1.325439    0.943495   0.084895
H   -0.617621    0.835051   2.293326
C   -0.764341   -1.256999   1.912428
C   -0.462453   -2.420047   0.958205
C    0.991829   -2.891303   0.900097
N    1.816202   -1.926466   0.191534
C    3.196628   -1.936543   0.122457
N    3.767497   -1.417628  -0.910458
N    3.845651   -2.413300   1.273365
H   -1.857708   -1.124098   1.932217
H   -0.474415   -1.521313   2.939586
H   -0.792082   -2.153924  -0.057671
H   -1.079093   -3.277078   1.267623
H    1.031664   -3.892380   0.427464
H    1.361863   -3.001895   1.931827
H    1.408331   -1.533840  -0.653086
H    4.782032   -1.363499  -0.790712
H    4.799589   -2.709638   1.099710
H    3.335649   -3.093708   1.828679
O    1.758367   -0.418078   2.928569
H    2.717851   -0.242975   2.990752
