 26
Energy: -16507.72057315.7 eV PBE+vdW (tier 2 basis)
N   -0.137824    0.599361   0.325545
C    0.510084   -0.039412   1.468147
C    1.888872   -0.637948   1.113571
O    2.209558   -0.940304  -0.015317
H    0.008013    0.009823  -0.498739
H    0.332454    1.480102   0.114199
H    0.654710    0.735563   2.235667
C   -0.447033   -1.126617   2.018416
C   -0.001874   -1.985733   3.210469
C    0.195480   -1.262971   4.548436
N    1.395210   -0.405693   4.618181
C    1.285709    0.997865   4.784795
N    0.254222    1.741683   4.626159
N    2.503464    1.562368   5.150053
H   -0.682067   -1.800622   1.179704
H   -1.386647   -0.607723   2.260957
H    0.909417   -2.553856   2.967096
H   -0.783312   -2.743517   3.376765
H    0.275644   -2.010363   5.350016
H   -0.693090   -0.658138   4.785921
H    2.102221   -0.787193   5.243792
H   -0.599520    1.204446   4.463256
H    2.473678    2.576620   5.110802
H    3.329230    1.175693   4.701089
O    2.745485   -0.817586   2.149978
H    2.280708   -0.600912   3.005446
