 26
Energy: -16507.68586915.7 eV PBE+vdW (tier 2 basis)
N   -0.169203    0.824212  -0.433711
C   -0.092819    0.213739   0.889440
C    1.363034   -0.074235   1.202694
O    2.227685   -0.292555   0.380332
H   -1.089758    0.678656  -0.846010
H    0.521824    0.383175  -1.044311
H   -0.440919    0.942500   1.640719
C   -0.892454   -1.106575   1.077740
C   -2.409001   -0.954731   0.918592
C   -3.084472   -0.013448   1.930641
N   -2.852880   -0.331833   3.333227
C   -3.483461   -1.410684   3.925507
N   -4.357942   -2.102202   3.277245
N   -3.028243   -1.636381   5.235574
H   -0.672220   -1.519456   2.074706
H   -0.518105   -1.839935   0.346946
H   -2.872168   -1.946382   1.012161
H   -2.660026   -0.598127  -0.094651
H   -4.168969   -0.044981   1.767353
H   -2.761171    1.026782   1.777139
H   -1.930313   -0.121120   3.698217
H   -4.818017   -2.781522   3.887339
H   -2.871033   -0.793412   5.782889
H   -3.585137   -2.313203   5.746234
O    1.594698   -0.108093   2.545457
H    2.533635   -0.356964   2.649408
