 26
Energy: -16507.65801415.7 eV PBE+vdW (tier 2 basis)
N    0.247328   -0.096518  -0.076384
C    0.062913    0.012303   1.363471
C    1.380243    0.064484   2.151322
O    2.489244   -0.095051   1.685951
H    0.894891   -0.857266  -0.290198
H    0.699159    0.745464  -0.433508
H   -0.427990    0.977679   1.567357
C   -0.907469   -1.073752   1.892163
C   -0.562692   -2.528138   1.548575
C    0.696831   -3.077586   2.220210
N    0.838314   -4.496563   1.943167
C    1.980437   -5.190249   2.333129
N    3.068541   -4.717856   2.833421
N    1.852975   -6.570406   2.133149
H   -1.887447   -0.845168   1.451837
H   -1.008796   -0.956205   2.980674
H   -0.480852   -2.652492   0.458322
H   -1.422557   -3.146595   1.855978
H    0.660550   -2.870062   3.308465
H    1.591792   -2.572350   1.829269
H   -0.019807   -5.034623   2.031639
H    2.985786   -3.722029   3.049365
H    2.740753   -7.036555   2.297844
H    1.448501   -6.829681   1.236978
O    1.170282    0.339144   3.470292
H    2.054279    0.363730   3.886172
