 26
Energy: -16507.68840115.7 eV PBE+vdW (tier 2 basis)
N    0.362620   -0.006124  -0.471184
C   -0.214110    0.201775   0.856368
C    0.798420    0.301230   1.999496
O    0.809655    1.164368   2.854225
H    1.004629    0.749396  -0.711378
H    0.900827   -0.873545  -0.494398
H   -0.724813    1.174549   0.846957
C   -1.239347   -0.913634   1.147943
C   -1.912407   -0.865128   2.523891
C   -2.736136    0.409660   2.778455
N   -3.479959    0.406229   4.025611
C   -4.656673   -0.313669   4.186450
N   -5.346722   -0.936006   3.292945
N   -5.093426   -0.324436   5.517199
H   -0.730444   -1.883229   1.031101
H   -1.993097   -0.859883   0.347937
H   -1.159823   -0.964692   3.322963
H   -2.570802   -1.740589   2.620278
H   -3.449833    0.570553   1.954827
H   -2.079561    1.290258   2.795936
H   -2.917640    0.494232   4.866279
H   -4.865497   -0.964669   2.391576
H   -6.022976   -0.730044   5.580574
H   -5.041698    0.576758   5.985514
O    1.710232   -0.714300   1.973432
H    2.296217   -0.569486   2.741217
