 26
Energy: -16507.83141915.7 eV PBE+vdW (tier 2 basis)
N    0.635623   -0.141268  -0.125315
C    0.187540   -0.162833   1.283960
C    1.419672   -0.034335   2.213642
O    2.584241    0.001608   1.544971
H    2.287059   -0.052991   0.586897
H    0.331802   -0.975098  -0.628072
H   -0.438307    0.718608   1.496665
C   -0.603018   -1.428814   1.638534
C   -1.978071   -1.496498   0.973452
C   -2.634913   -2.872273   1.142181
N   -3.870546   -3.049014   0.393213
C   -3.832038   -3.234213  -0.976961
N   -2.705533   -3.325377  -1.601269
N   -5.115796   -3.270046  -1.543305
H   -0.691865   -1.475504   2.732857
H   -0.000330   -2.304749   1.339493
H   -1.893061   -1.306412  -0.106510
H   -2.632231   -0.712962   1.390684
H   -2.852532   -3.073097   2.201662
H   -1.939357   -3.647910   0.794342
H   -4.679450   -2.540573   0.734603
H   -2.847175   -3.592711  -2.577999
H   -5.808321   -3.778873  -0.999140
H   -5.123633   -3.551992  -2.517625
O    1.332897    0.025192   3.421056
H    0.275730    0.665224  -0.630354
