 26
Energy: -16507.67046515.7 eV PBE+vdW (tier 2 basis)
N   -0.563490    0.783784   0.769090
C   -0.361504    0.288560   2.135789
C    1.010168    0.647814   2.709983
O    1.208146    1.347805   3.682471
H   -0.409411    1.791770   0.724075
H    0.109379    0.350308   0.134614
H   -1.082742    0.803275   2.787093
C   -0.621226   -1.221888   2.189607
C   -0.508718   -1.820755   3.592401
C   -0.839109   -3.317013   3.635198
N   -2.217720   -3.614881   3.261646
C   -2.518628   -4.260443   2.076458
N   -1.599936   -4.528983   1.213560
N   -3.882918   -4.588167   1.986470
H    0.072680   -1.738790   1.508867
H   -1.630371   -1.386502   1.786819
H   -1.173325   -1.278038   4.285109
H    0.513725   -1.691956   3.984243
H   -0.655964   -3.706174   4.647702
H   -0.190161   -3.869685   2.942005
H   -2.865058   -3.787184   4.020947
H   -1.997447   -4.928969   0.361427
H   -4.513713   -3.876282   2.347925
H   -4.163251   -4.891270   1.059830
O    2.033314    0.107016   1.981042
H    2.855314    0.412164   2.410673
