 26
Energy: -16507.58426815.7 eV PBE+vdW (tier 2 basis)
N    0.006407    1.450399   1.023008
C    0.069622    0.292011   1.911987
C    1.512852   -0.127109   2.156499
O    1.940884   -0.568686   3.201696
H    0.350301    1.210323   0.092070
H   -0.958352    1.762142   0.915984
H   -0.308041    0.602000   2.897496
C   -0.719105   -0.970723   1.464153
C   -2.231104   -0.750794   1.431112
C   -3.019146   -1.951601   0.884317
N   -2.700152   -2.330737  -0.495710
C   -2.838534   -1.446822  -1.567711
N   -2.065052   -1.352696  -2.595094
N   -3.944244   -0.603176  -1.471369
H   -0.478777   -1.800533   2.149034
H   -0.353899   -1.256672   0.464494
H   -2.477339    0.125246   0.811599
H   -2.596698   -0.532418   2.447992
H   -4.095969   -1.744880   0.964937
H   -2.836591   -2.842735   1.502601
H   -1.861882   -2.895468  -0.583222
H   -1.220633   -1.919923  -2.479157
H   -4.094667   -0.106368  -2.344259
H   -4.792171   -1.032708  -1.112890
O    2.278084   -0.018536   1.034199
H    3.166983   -0.336601   1.284514
