 26
Energy: -16507.61851115.7 eV PBE+vdW (tier 2 basis)
N   -0.404772   -0.266374   0.152223
C    0.172813    0.146469   1.425076
C    1.704317    0.153962   1.422089
O    2.404805   -0.526763   0.702742
H    0.079431   -1.103451  -0.180850
H   -0.245947    0.449279  -0.557073
H   -0.163460    1.171129   1.645715
C   -0.306820   -0.776027   2.568290
C   -1.817381   -0.704794   2.790674
C   -2.290250   -1.671190   3.874977
N   -3.727815   -1.567610   4.062214
C   -4.510085   -2.437550   4.805495
N   -5.776117   -2.324084   5.034567
N   -3.841569   -3.573377   5.263674
H    0.227516   -0.507167   3.491988
H   -0.010582   -1.809232   2.321134
H   -2.338114   -0.923507   1.848621
H   -2.091403    0.325934   3.076006
H   -1.731949   -1.467560   4.812610
H   -2.051979   -2.703025   3.574183
H   -4.134879   -0.651223   3.920276
H   -6.176022   -1.527316   4.531621
H   -4.443477   -4.113026   5.878362
H   -2.914013   -3.428071   5.650488
O    2.211526    1.008889   2.354859
H    3.183714    0.917745   2.309052
