 26
Energy: -16507.60153315.7 eV PBE+vdW (tier 2 basis)
N    0.463432    0.724702   1.327095
C    0.115886   -0.684550   1.599477
C    1.346037   -1.387509   2.191920
O    2.311133   -1.747691   1.557369
H    1.230802    0.754568   0.651165
H    0.508046   -1.199588   3.911496
H   -0.701819   -0.679709   2.340796
C   -0.401774   -1.339166   0.313166
C   -1.292708   -2.577755   0.482179
C   -0.582001   -3.899946   0.787061
N    0.110432   -3.922204   2.070256
C   -0.543047   -4.280840   3.232941
N   -1.823360   -4.447643   3.237717
N    0.340441   -4.449026   4.308807
H    0.459699   -1.567763  -0.335737
H   -0.983661   -0.556253  -0.194396
H   -1.850339   -2.724975  -0.455827
H   -2.051866   -2.399756   1.258951
H    0.171814   -4.101425   0.012766
H   -1.322584   -4.713434   0.764590
H    1.101414   -4.128231   2.040468
H   -2.164661   -4.656531   4.178458
H   -0.116008   -4.508355   5.212145
H    1.133266   -3.810097   4.320144
O    1.381659   -1.457554   3.568192
H    0.809770    1.183733   2.171800
