 26
Energy: -16507.70653415.7 eV PBE+vdW (tier 2 basis)
N   -0.306389    1.210912   0.693845
C   -0.092130    0.534828   1.980541
C    1.382903    0.487009   2.382041
O    1.846514    0.932078   3.419031
H    0.099496    2.147801   0.709381
H    0.166330    0.700480  -0.054553
H   -0.588187    1.136130   2.756111
C   -0.722659   -0.872340   1.937878
C   -1.180478   -1.453757   3.283459
C   -0.116796   -1.597119   4.376112
N    1.044434   -2.341925   3.891254
C    2.208528   -2.480553   4.648025
N    2.806458   -3.625635   4.637028
N    2.580944   -1.338303   5.348893
H   -0.025182   -1.563058   1.442400
H   -1.602362   -0.783194   1.283919
H   -1.627452   -2.441636   3.084688
H   -1.995828   -0.836560   3.692576
H   -0.576380   -2.081913   5.258125
H    0.213526   -0.606040   4.709285
H    0.814409   -3.253451   3.499085
H    3.711200   -3.576680   5.113353
H    3.507061   -1.387500   5.756638
H    2.391126   -0.445159   4.893576
O    2.160221   -0.077075   1.423470
H    3.069907   -0.091780   1.777224
