 26
Energy: -16507.67065515.7 eV PBE+vdW (tier 2 basis)
N   -0.070378   -0.352577  -0.331810
C    0.062908   -0.114105   1.104898
C    1.491302   -0.123901   1.654275
O    1.922225    0.632243   2.498924
H    0.405179   -1.217928  -0.591663
H    0.371562    0.396840  -0.863646
H   -0.317210    0.895085   1.319749
C   -0.780115   -1.130777   1.903731
C   -2.282242   -0.969158   1.669853
C   -3.096979   -2.083319   2.343717
N   -4.537760   -1.949979   2.217104
C   -5.269793   -1.080379   3.019381
N   -4.875008   -0.401421   4.040585
N   -6.603145   -0.978729   2.603783
H   -0.550531   -1.016225   2.974564
H   -0.455997   -2.147193   1.621809
H   -2.483268   -0.969554   0.588514
H   -2.614589    0.008347   2.052438
H   -2.858807   -2.140710   3.417281
H   -2.812565   -3.058941   1.920094
H   -4.899427   -2.046357   1.272840
H   -3.861415   -0.449610   4.163717
H   -7.145705   -0.449222   3.280406
H   -7.043260   -1.866742   2.376236
O    2.250946   -1.117981   1.102613
H    3.123210   -1.058529   1.537940
