 26
Energy: -16507.66554415.7 eV PBE+vdW (tier 2 basis)
N   -0.681006    0.429895  -0.007277
C   -0.310832    0.180484   1.392076
C    1.161730    0.419935   1.727867
O    1.572874    0.881403   2.771067
H   -0.059161   -0.102530  -0.619937
H   -0.538005    1.414167  -0.236704
H   -0.866583    0.891091   2.020661
C   -0.689273   -1.249861   1.836792
C   -2.211939   -1.502488   1.893334
C   -2.741215   -2.454035   0.816291
N   -2.489149   -1.956244  -0.529553
C   -1.709111   -2.683628  -1.408947
N   -1.291174   -3.872587  -1.124407
N   -1.508241   -2.022253  -2.626903
H   -0.247974   -1.412956   2.829498
H   -0.206446   -1.972718   1.160378
H   -2.748217   -0.541419   1.825043
H   -2.480236   -1.923001   2.873167
H   -3.823689   -2.601722   0.964854
H   -2.261318   -3.438927   0.893015
H   -2.330187   -0.948014  -0.569259
H   -0.826175   -4.299729  -1.928334
H   -1.746533   -1.036549  -2.668083
H   -0.656728   -2.261931  -3.119324
O    1.994370    0.021900   0.720035
H    2.901967    0.171861   1.048197
