 26
Energy: -16507.83421815.7 eV PBE+vdW (tier 2 basis)
N    0.889384    0.427169   1.065030
C   -0.563075    0.534805   1.090070
C   -1.117713   -0.435218   2.113619
O   -0.579139   -1.494565   2.410329
H    1.166240   -0.542044   1.227974
H    1.268339    0.723322   0.166897
H   -0.852623    1.547822   1.411408
C   -1.296489    0.286112  -0.271610
C   -1.057873   -1.077402  -0.956741
C   -2.228142   -2.071172  -0.914156
N   -2.543192   -2.547422   0.426239
C   -3.757272   -2.307874   1.018813
N   -4.774351   -1.884068   0.354850
N   -3.717651   -2.511394   2.432928
H   -0.953607    1.091511  -0.938190
H   -2.373029    0.455126  -0.121075
H   -0.153406   -1.555819  -0.544806
H   -0.831213   -0.911370  -2.020231
H   -1.988654   -2.929695  -1.562600
H   -3.146877   -1.615606  -1.306074
H   -1.752458   -2.659421   1.054853
H   -5.592695   -1.764355   0.954251
H   -4.642663   -2.694807   2.813890
H   -3.071525   -3.245929   2.723448
O   -2.317606   -0.052244   2.575022
H   -2.788712   -0.866462   2.907862
