 26
Energy: -16507.70178315.7 eV PBE+vdW (tier 2 basis)
N    1.089036    0.702308   0.084394
C    0.877525    0.236951   1.451923
C    2.187855   -0.024651   2.199744
O    3.275328   -0.171100   1.680100
H    1.902338    0.226365  -0.312260
H    1.331265    1.692877   0.089512
H    0.338058    1.017464   2.007712
C   -0.011286   -1.030986   1.487994
C    0.586134   -2.235631   0.759810
C   -0.328038   -3.470560   0.723605
N   -1.584830   -3.287841   0.020130
C   -2.786453   -2.975179   0.642224
N   -3.052439   -2.881454   1.899635
N   -3.806105   -2.731910  -0.287543
H   -0.968486   -0.751546   1.027773
H   -0.218521   -1.285988   2.537956
H    1.537969   -2.538576   1.226636
H    0.830571   -1.953066  -0.277189
H   -0.562004   -3.807341   1.743960
H    0.217436   -4.301291   0.249119
H   -1.507783   -2.960948  -0.937977
H   -2.210299   -2.942242   2.475076
H   -3.852610   -3.403320  -1.049867
H   -4.699691   -2.635089   0.186337
O    1.999473   -0.108262   3.546387
H    2.875448   -0.306005   3.932132
