 26
Energy: -16507.69179115.7 eV PBE+vdW (tier 2 basis)
N   -0.625794   -1.146269   1.044806
C    0.335657   -0.104413   1.459515
C    1.403942    0.078098   0.351215
O    2.364427    0.805660   0.471882
H   -1.591567   -0.869999   1.204982
H    0.293498   -1.108514  -0.530559
H   -0.198897    0.858392   1.485290
C    1.008345   -0.356206   2.817247
C    0.080212   -0.248492   4.031397
C   -0.357623    1.189614   4.346816
N   -1.205590    1.321054   5.532216
C   -0.753709    1.016595   6.818959
N   -1.445441    0.497729   7.774822
N    0.585313    1.331783   7.042149
H    1.844808    0.350892   2.912778
H    1.466349   -1.359128   2.788845
H    0.601357   -0.646452   4.913862
H   -0.815279   -0.878668   3.894657
H   -0.920927    1.627051   3.509258
H    0.533567    1.822499   4.464742
H   -2.161529    1.010514   5.389359
H   -2.362046    0.182725   7.445124
H    0.814866    1.242414   8.027406
H    0.902683    2.211188   6.644733
O    1.142065   -0.630617  -0.760740
H   -0.467687   -2.018452   1.550239
