 26
Energy: -16507.69227615.7 eV PBE+vdW (tier 2 basis)
N   -0.709728   -0.157232   0.000698
C   -0.183355    0.094015   1.338272
C    1.337934   -0.068484   1.424850
O    2.011599   -0.767834   0.696915
H   -0.380317   -1.070276  -0.322026
H   -0.326164    0.521438  -0.658395
H   -0.418022    1.134671   1.611144
C   -0.828578   -0.829364   2.395992
C   -2.341537   -0.646742   2.588734
C   -3.210996   -1.411259   1.577913
N   -4.640223   -1.332433   1.848452
C   -5.217379   -2.088530   2.850363
N   -4.527123   -2.955557   3.511056
N   -6.573292   -1.765424   3.044183
H   -0.320197   -0.643657   3.352549
H   -0.606626   -1.877346   2.131837
H   -2.591409    0.426888   2.553239
H   -2.610242   -1.006684   3.591586
H   -2.940772   -2.475559   1.603235
H   -3.032425   -1.036837   0.562732
H   -5.074194   -0.429506   1.688908
H   -5.126246   -3.512670   4.124368
H   -7.057567   -2.416258   3.653469
H   -7.094669   -1.604523   2.185336
O    1.871902    0.660061   2.446895
H    2.829002    0.461936   2.449874
