 26
Energy: -16507.60972715.7 eV PBE+vdW (tier 2 basis)
N   -0.276148    0.686353   0.467234
C    0.439590    0.113047   1.604880
C    1.893357   -0.195335   1.271436
O    2.782524   -0.224475   2.106306
H    0.100929    1.598979   0.211853
H   -1.256462    0.825256   0.712946
H    0.502497    0.783934   2.481154
C   -0.284803   -1.189240   2.032376
C    0.353544   -1.992719   3.169317
C    0.433601   -1.242785   4.513303
N    1.083431   -1.969543   5.582323
C    2.451324   -2.177691   5.690301
N    2.852020   -3.138574   6.458206
N    3.253221   -1.249583   5.031245
H   -0.385771   -1.815887   1.134578
H   -1.307698   -0.892624   2.321244
H    1.361692   -2.327414   2.882794
H   -0.235165   -2.911204   3.315755
H   -0.583836   -0.990052   4.851203
H    0.948278   -0.279124   4.388816
H    0.568756   -2.732377   6.009614
H    3.872333   -3.161722   6.519392
H    4.226364   -1.524679   4.977043
H    2.925233   -0.839517   4.158081
O    2.116544   -0.471569  -0.032272
H    3.068910   -0.684055  -0.097198
