 26
Energy: -16507.70782915.7 eV PBE+vdW (tier 2 basis)
N    0.171857    0.035640   0.178152
C   -0.223330   -0.018837   1.581582
C    0.964571   -0.173023   2.536775
O    2.069023   -0.571533   2.226937
H    0.597379    0.939739  -0.027047
H    0.905462   -0.654586   0.003742
H   -0.721374    0.927318   1.838458
C   -1.250349   -1.147952   1.838427
C   -0.735079   -2.552871   1.520468
C   -1.740132   -3.676069   1.820172
N   -2.088817   -3.835430   3.220341
C   -3.213626   -3.282082   3.816043
N   -4.178393   -2.620210   3.276512
N   -3.232386   -3.503995   5.200631
H   -2.122752   -0.922333   1.207734
H   -1.581957   -1.090309   2.884430
H    0.193450   -2.755694   2.080829
H   -0.469187   -2.621675   0.453691
H   -1.325730   -4.629349   1.456839
H   -2.672130   -3.518491   1.258177
H   -1.313551   -4.008260   3.852079
H   -3.993392   -2.402484   2.295411
H   -3.005587   -4.456099   5.477417
H   -4.120335   -3.201059   5.591275
O    0.637399    0.169087   3.813719
H    1.437614    0.012291   4.352406
