 26
Energy: -16507.83070515.7 eV PBE+vdW (tier 2 basis)
N    0.666585   -0.776728   0.329665
C    0.023738   -0.085153   1.464517
C    1.137817    0.513007   2.352798
O    0.939291    1.314658   3.246341
H    0.187845   -1.646468   0.100056
H    0.685168   -0.198529  -0.508835
H   -0.615947    0.748888   1.136216
C   -0.823399   -1.080277   2.287124
C   -1.721349   -0.440143   3.369208
C   -1.515968   -1.017355   4.778660
N   -0.193239   -0.773952   5.321637
C    0.855133   -1.682445   5.224463
N    0.787906   -2.968480   5.097858
N    2.099991   -1.077104   5.359155
H   -0.145564   -1.820782   2.738997
H   -1.452038   -1.631641   1.570802
H   -2.780199   -0.559753   3.094252
H   -1.537055    0.642601   3.414748
H   -1.695344   -2.101783   4.778788
H   -2.267424   -0.585742   5.457994
H    0.092937    0.200723   5.310611
H   -0.176321   -3.302901   5.161253
H    2.853115   -1.736725   5.194942
H    2.224751   -0.196212   4.865691
O    2.353481    0.021428   2.076646
H    2.180089   -0.575136   1.286412
