 26
Energy: -16507.64906515.7 eV PBE+vdW (tier 2 basis)
N    0.874618    1.743208  -0.133846
C   -0.121653    1.308928   0.850798
C    0.519381    1.193616   2.225625
O    0.030909    1.587278   3.264366
H    0.422096    1.874676  -1.039350
H    1.584293    1.019319  -0.259096
H   -0.859484    2.116352   0.948162
C   -0.853337   -0.016123   0.499657
C   -1.872924   -0.534699   1.520939
C   -3.040377    0.429692   1.779258
N   -4.079753   -0.115086   2.641021
C   -4.997877   -1.022926   2.147796
N   -5.022380   -1.325791   0.893766
N   -5.819954   -1.548962   3.159304
H   -0.086986   -0.787295   0.324249
H   -1.357409    0.148290  -0.466874
H   -1.372364   -0.763126   2.475998
H   -2.291178   -1.478488   1.144666
H   -3.519741    0.689365   0.825513
H   -2.683775    1.356882   2.248354
H   -3.822239   -0.247200   3.613515
H   -5.830739   -1.911257   0.672001
H   -6.114070   -0.873197   3.860633
H   -6.606646   -2.081768   2.803974
O    1.708427    0.528567   2.180644
H    2.028222    0.487328   3.102506
