 26
Energy: -16507.63458715.7 eV PBE+vdW (tier 2 basis)
N   -0.342588   -0.469491   0.166136
C    0.148933   -0.381754   1.540584
C    1.621476    0.008814   1.684684
O    2.050065    0.866202   2.431035
H    0.184300   -1.170916  -0.356392
H   -0.220451    0.418362  -0.321282
H   -0.405691    0.424824   2.039750
C   -0.121286   -1.716255   2.266204
C    0.379726   -1.809498   3.711319
C   -0.260891   -0.793798   4.669137
N    0.175533   -0.923692   6.059934
C   -0.086113   -2.051927   6.836157
N    0.674313   -2.556651   7.747332
N   -1.314795   -2.657204   6.568231
H    0.337902   -2.524077   1.675103
H   -1.208624   -1.880218   2.223469
H    1.474747   -1.689077   3.746879
H    0.169363   -2.820823   4.087865
H   -1.356784   -0.880478   4.620483
H   -0.020659    0.233624   4.364052
H    1.104352   -0.551162   6.230535
H    1.597142   -2.113302   7.748853
H   -2.090260   -2.019169   6.413846
H   -1.523605   -3.360914   7.270228
O    2.435564   -0.732447   0.878023
H    3.344351   -0.420581   1.053343
