 26
Energy: -16507.62162815.7 eV PBE+vdW (tier 2 basis)
N   -0.850193    0.599175  -0.036399
C   -0.304356    0.382440   1.304440
C    1.224517    0.469806   1.328685
O    1.965935   -0.120964   0.569775
H   -0.384300   -0.027305  -0.696990
H   -0.651940    1.549469  -0.352060
H   -0.702562    1.164370   1.966480
C   -0.749669   -0.994530   1.824512
C   -0.303086   -1.310038   3.252722
C   -0.817789   -2.665343   3.731562
N   -0.354570   -2.932443   5.091890
C   -0.657496   -4.111470   5.764756
N   -0.933609   -4.052363   7.023102
N   -0.645217   -5.253703   4.959994
H   -0.363022   -1.762095   1.133846
H   -1.846293   -1.019577   1.745677
H   -0.662843   -0.521210   3.934948
H    0.795230   -1.307657   3.328919
H   -0.439621   -3.447660   3.057097
H   -1.922113   -2.697097   3.659560
H   -0.487863   -2.151931   5.731833
H   -1.004592   -4.985888   7.436536
H    0.040129   -5.260488   4.209632
H   -0.653168   -6.122887   5.481599
O    1.680897    1.302306   2.306308
H    2.657193    1.281794   2.248514
