 26
Energy: -16507.60006715.7 eV PBE+vdW (tier 2 basis)
N    0.177816   -0.193349  -0.174348
C    0.076217   -0.030563   1.274142
C    1.442879    0.125387   1.938825
O    2.499332   -0.233120   1.460519
H    1.052563   -0.677441  -0.391067
H    0.223910    0.714869  -0.635856
H   -0.503093    0.877391   1.490672
C   -0.649805   -1.247723   1.907944
C   -2.184873   -1.187679   1.908364
C   -2.883427   -0.844765   0.583754
N   -2.957810    0.592496   0.361378
C   -2.941417    1.195005  -0.889989
N   -2.407788    0.759949  -1.977708
N   -3.512195    2.477697  -0.872302
H   -0.320311   -1.377855   2.949318
H   -0.310361   -2.138166   1.356864
H   -2.521440   -0.471576   2.677281
H   -2.553758   -2.169383   2.242989
H   -3.896174   -1.288046   0.584546
H   -2.336819   -1.291710  -0.254444
H   -3.425611    1.122037   1.089796
H   -1.876253   -0.097948  -1.807779
H   -3.517427    2.868057  -1.810854
H   -4.431228    2.532879  -0.439644
O    1.350415    0.697191   3.173032
H    2.259413    0.716802   3.531633
