 26
Energy: -16507.81723115.7 eV PBE+vdW (tier 2 basis)
N   -0.595948   -1.607496   0.496786
C   -0.348517   -0.497184   1.425716
C    1.144380   -0.222196   1.594205
O    2.028473   -1.029804   1.393215
H    0.113629   -2.325651   0.671193
H   -0.436841   -1.298309  -0.463327
H   -0.809029    0.415017   1.017700
C   -0.966563   -0.785124   2.819683
C   -2.443045   -0.395856   2.980443
C   -3.422837   -0.965961   1.937874
N   -3.285533   -2.385707   1.659309
C   -3.669288   -3.325991   2.589892
N   -4.295833   -2.988063   3.668535
N   -3.269225   -4.625930   2.227976
H   -0.391858   -0.249991   3.588935
H   -0.828739   -1.857877   3.026080
H   -2.533689    0.702835   2.962396
H   -2.770393   -0.725237   3.976123
H   -3.303830   -0.446753   0.975591
H   -4.447611   -0.781970   2.285453
H   -2.445647   -2.591917   1.114351
H   -4.599710   -3.813463   4.190363
H   -3.722383   -5.352974   2.771383
H   -3.322499   -4.818677   1.230548
O    1.385053    1.043938   2.032148
H    2.351993    1.110769   2.157894
