 26
Energy: -16507.51659315.7 eV PBE+vdW (tier 2 basis)
N   -0.493950    0.134336  -0.063259
C   -0.061695   -0.027976   1.322873
C    1.427428   -0.297342   1.573240
O    1.994404   -0.099159   2.627457
H   -0.193800   -0.651589  -0.639850
H   -0.064860    0.964929  -0.470900
H   -0.256303    0.926673   1.833191
C   -0.895726   -1.092878   2.080626
C   -0.561893   -2.572349   1.845727
C   -0.802022   -3.101266   0.431861
N   -0.680140   -4.560001   0.424142
C   -0.649727   -5.307745  -0.751646
N   -0.053681   -6.437358  -0.931838
N   -1.345777   -4.732036  -1.812141
H   -1.947051   -0.896686   1.823910
H   -0.781718   -0.893914   3.154989
H   -1.182199   -3.164084   2.537465
H    0.485066   -2.769027   2.133635
H   -0.089629   -2.651837  -0.281989
H   -1.813568   -2.808747   0.108593
H   -0.039026   -4.921534   1.123776
H    0.524383   -6.688319  -0.125291
H   -2.211750   -4.258336  -1.574073
H   -1.452176   -5.392316  -2.576143
O    2.063503   -0.822697   0.486057
H    2.986246   -0.977659   0.768227
