 26
Energy: -16507.68079115.7 eV PBE+vdW (tier 2 basis)
N   -0.423967   -2.188686   0.244481
C   -0.662631   -1.410460   1.459184
C    0.485796   -0.498182   1.887886
O    0.368317    0.654194   2.255968
H    0.442329   -2.723077   0.321973
H   -0.328517   -1.574604  -0.563966
H   -1.508777   -0.740337   1.258295
C   -1.046821   -2.371515   2.605066
C   -1.173377   -1.775336   4.013253
C   -2.188738   -0.633911   4.202327
N   -3.534671   -0.945560   3.756091
C   -4.095063   -0.447890   2.586871
N   -3.670566    0.495059   1.818039
N   -5.278155   -1.118639   2.244021
H   -0.293764   -3.174494   2.640807
H   -1.988801   -2.846124   2.296068
H   -0.196012   -1.404815   4.362789
H   -1.434343   -2.598183   4.698839
H   -1.851746    0.265876   3.672789
H   -2.211826   -0.362683   5.269906
H   -3.885482   -1.856806   4.033917
H   -2.763239    0.862075   2.113589
H   -5.750977   -0.629319   1.489163
H   -5.905329   -1.293590   3.025328
O    1.699042   -1.124483   1.838396
H    2.352612   -0.464677   2.140775
