 26
Energy: -16507.59548015.7 eV PBE+vdW (tier 2 basis)
N    0.878809   -0.175182  -0.303977
C    0.506122    0.206954   1.056516
C    1.721858    0.084433   1.971714
O    2.841917   -0.213356   1.582856
H    0.406305    0.404163  -0.994266
H    1.886889   -0.055317  -0.418539
H    0.216284    1.273723   1.137518
C   -0.702299   -0.603911   1.603155
C   -0.839835   -2.085928   1.211670
C    0.379094   -3.044583   1.284938
N    1.454968   -2.766580   2.229735
C    1.397208   -2.621813   3.593112
N    2.364050   -2.154838   4.337439
N    0.185620   -2.926505   4.188124
H   -1.619432   -0.108345   1.250644
H   -0.704694   -0.501620   2.694711
H   -1.198917   -2.153990   0.174669
H   -1.652907   -2.483257   1.837534
H    0.870119   -3.041010   0.305676
H    0.003215   -4.071906   1.434718
H    2.288264   -2.362865   1.817802
H    3.207373   -2.012850   3.773506
H   -0.399630   -3.615251   3.730670
H    0.265805   -3.045896   5.191627
O    1.409698    0.333829   3.254781
H    2.015608   -0.195193   3.841593
