 26
Energy: -16507.75339415.7 eV PBE+vdW (tier 2 basis)
N   -0.769216    0.164362   0.172419
C   -0.244493   -0.128669   1.509871
C    1.273965   -0.305532   1.486234
O    2.078075    0.539373   1.828495
H   -0.611317   -0.608808  -0.492883
H   -0.346632    1.011127  -0.206413
H   -0.411259    0.762243   2.133648
C   -0.960878   -1.325701   2.157240
C   -2.479187   -1.111816   2.338489
C   -3.360445   -1.970230   1.418116
N   -3.073102   -1.742525  -0.002087
C   -2.384082   -2.659689  -0.774781
N   -1.446451   -2.244585  -1.568678
N   -2.773145   -3.986226  -0.583088
H   -0.489230   -1.507399   3.133604
H   -0.765035   -2.225349   1.555983
H   -2.724828   -0.051111   2.172034
H   -2.771416   -1.330928   3.376192
H   -4.420013   -1.748193   1.624418
H   -3.204587   -3.034803   1.639818
H   -2.698810   -0.804647  -0.173987
H   -1.125136   -2.985379  -2.195993
H   -2.374875   -4.641718  -1.245326
H   -3.765674   -4.135863  -0.426019
O    1.656987   -1.511163   0.973500
H    2.632904   -1.486217   0.942434
