 26
Energy: -16507.75670515.7 eV PBE+vdW (tier 2 basis)
N    0.396626    0.037047   0.398686
C    0.141446   -0.111890   1.828019
C    1.301272   -0.716755   2.619670
O    2.015483   -1.614395   2.200307
H    1.100273    0.760138   0.243683
H    0.804661   -0.831901   0.044520
H   -0.075481    0.878392   2.253163
C   -1.109738   -1.012330   2.026895
C   -1.403318   -1.456411   3.472909
C   -0.706824   -2.782534   3.854799
N   -0.571680   -3.016612   5.290045
C    0.493986   -2.640926   6.088956
N    0.479811   -2.434744   7.359581
N    1.736056   -2.486152   5.423983
H   -0.985977   -1.898838   1.382481
H   -1.958667   -0.453674   1.612566
H   -2.488851   -1.580374   3.601262
H   -1.093818   -0.673342   4.179220
H    0.288412   -2.837391   3.400801
H   -1.269048   -3.625364   3.423844
H   -1.446047   -3.060515   5.803201
H   -0.471211   -2.455519   7.737379
H    2.470496   -2.474864   6.129875
H    1.930018   -3.186684   4.709052
O    1.370115   -0.220580   3.869391
H    1.792781   -0.920459   4.455678
