 26
Energy: -16507.94363615.7 eV PBE+vdW (tier 2 basis)
N    0.494351    0.455907  -0.946704
C    0.183088    0.628517   0.480860
C    1.365716    0.047118   1.303460
O    1.319412   -0.171353   2.495367
H    0.084896    1.191249  -1.518330
H    2.138331    0.100893  -0.366689
H    0.221665    1.710968   0.691046
C   -1.163318    0.101191   1.006961
C   -1.436059   -1.376995   0.681700
C   -2.271323   -1.567609  -0.595626
N   -2.125326   -2.898404  -1.174192
C   -1.046445   -3.176805  -1.983153
N   -0.125199   -2.287948  -2.175247
N   -1.104409   -4.450209  -2.558153
H   -1.974571    0.733011   0.610265
H   -1.153701    0.248428   2.094649
H   -1.952658   -1.861298   1.521550
H   -0.484697   -1.915676   0.565702
H   -1.992498   -0.814018  -1.348543
H   -3.336637   -1.420056  -0.371638
H   -2.974878   -3.406872  -1.384979
H    0.654390   -2.665732  -2.716404
H   -0.243248   -4.741611  -3.007407
H   -1.481342   -5.177988  -1.956862
O    2.463558   -0.149876   0.554028
H    0.196642   -0.459227  -1.327469
