 26
Energy: -16507.74973915.7 eV PBE+vdW (tier 2 basis)
N    1.625567   -1.299059   0.312081
C    0.222795   -0.892950   0.522223
C    0.209312    0.457189   1.274755
O    1.378118    0.738224   1.880778
H    1.727191   -2.313332   0.319679
H    1.985076   -0.960648  -0.579728
H   -0.322581   -0.735285  -0.422024
C   -0.510688   -1.967102   1.348384
C   -2.010689   -1.728145   1.524519
C   -2.663581   -2.815818   2.374977
N   -4.089204   -2.574819   2.504380
C   -4.916210   -3.497462   3.137254
N   -4.612021   -4.671205   3.573026
N   -6.222083   -3.020841   3.288664
H   -0.020514   -2.051376   2.332475
H   -0.356846   -2.933452   0.837770
H   -2.502946   -1.696076   0.540422
H   -2.175173   -0.742683   1.984783
H   -2.161997   -2.868768   3.362031
H   -2.525597   -3.798364   1.895521
H   -4.344008   -1.604568   2.669229
H   -3.604250   -4.838171   3.534688
H   -6.835486   -3.754549   3.631217
H   -6.601975   -2.552231   2.470511
O   -0.763672    1.176057   1.341079
H    1.976625   -0.006328   1.587523
