 26
Energy: -16507.66183215.7 eV PBE+vdW (tier 2 basis)
N   -0.543292    0.982507   1.104890
C    0.130285   -0.013266   1.933499
C    1.389091   -0.458654   1.211129
O    1.545478   -0.443116   0.007389
H   -1.542787    1.000258   1.302892
H   -0.424353    0.729654   0.121427
H    0.452123    0.454985   2.877773
C   -0.697301   -1.286519   2.274665
C   -1.999938   -1.015790   3.035131
C   -1.794550   -0.407498   4.429980
N   -3.018191   -0.266572   5.207238
C   -3.587807   -1.369900   5.819376
N   -2.996235   -2.515270   5.799431
N   -4.834430   -1.070014   6.393920
H   -0.069426   -1.965925   2.871925
H   -0.927396   -1.806841   1.331809
H   -2.530902   -1.969781   3.158760
H   -2.668443   -0.366596   2.442956
H   -1.333553    0.588897   4.364207
H   -1.119016   -1.049371   5.010905
H   -3.682649    0.421461   4.868148
H   -3.477876   -3.191405   6.396185
H   -5.198103   -1.812441   6.981775
H   -4.880290   -0.167561   6.861305
O    2.330870   -0.929702   2.072336
H    3.071417   -1.241415   1.516597
