 26
Energy: -16507.57834815.7 eV PBE+vdW (tier 2 basis)
N    0.942483   -0.397281   0.106971
C    0.576648   -0.139322   1.498688
C    1.589734   -0.722680   2.486979
O    2.138373   -1.799235   2.369146
H    1.128660   -1.396033  -0.011811
H    1.815025    0.080446  -0.122417
H    0.548450    0.949387   1.650706
C   -0.838445   -0.700037   1.760185
C   -1.426951   -0.431909   3.154911
C   -1.161518   -1.546675   4.167067
N   -1.665485   -1.156282   5.482332
C   -1.484539   -1.948633   6.610723
N   -1.227676   -1.374256   7.736913
N   -1.580556   -3.320611   6.370730
H   -0.825643   -1.783200   1.553825
H   -1.473415   -0.248913   0.986597
H   -2.514790   -0.295114   3.074359
H   -1.029451    0.518227   3.548792
H   -0.087337   -1.801428   4.203959
H   -1.680938   -2.455703   3.825742
H   -1.463097   -0.189284   5.727644
H   -1.244815   -2.042596   8.511779
H   -1.666922   -3.883458   7.209087
H   -2.229117   -3.604116   5.641995
O    1.818797    0.112957   3.539821
H    2.446049   -0.350615   4.130098
