 26
Energy: -16507.62753115.7 eV PBE+vdW (tier 2 basis)
N   -0.103468    0.490984   0.222259
C   -0.123630    0.193255   1.657242
C    1.243580    0.122596   2.341295
O    1.470613    0.477855   3.478592
H    0.503949   -0.184767  -0.246270
H    0.308715    1.410343   0.058990
H   -0.655976    1.007022   2.171137
C   -0.876032   -1.127589   1.923486
C   -2.394447   -1.028707   1.666301
C   -2.926493   -2.020809   0.624195
N   -2.410650   -1.778049  -0.710112
C   -1.393023   -2.517743  -1.294104
N   -1.003550   -3.717203  -1.017288
N   -0.802025   -1.853531  -2.371488
H   -0.691429   -1.429156   2.963358
H   -0.425407   -1.907430   1.289994
H   -2.646632   -0.010803   1.329137
H   -2.946317   -1.182544   2.605447
H   -2.668661   -3.049606   0.911974
H   -4.027180   -1.975769   0.603180
H   -2.444985   -0.805204  -0.998757
H   -1.593884   -4.155008  -0.307044
H    0.002891   -2.360147  -2.725106
H   -0.635204   -0.859402  -2.246056
O    2.199793   -0.423225   1.534410
H    3.013357   -0.467050   2.073135
