 26
Energy: -16507.79234715.7 eV PBE+vdW (tier 2 basis)
N    0.538609   -0.889105   0.467962
C   -0.180350   -0.056844   1.453905
C    0.825542    0.931818   2.083593
O    0.500224    1.920049   2.705416
H    0.482596   -0.495491  -0.470549
H    2.033646   -0.236161   1.307404
H   -0.979677    0.548000   0.996321
C   -0.788065   -0.959773   2.544250
C   -1.697542   -0.245129   3.543677
C   -2.208219   -1.181674   4.644835
N   -1.145892   -1.689921   5.504783
C   -0.736315   -3.006436   5.455799
N   -1.197913   -3.812722   4.559830
N    0.168611   -3.322013   6.483355
H    0.028423   -1.468222   3.080011
H   -1.363026   -1.754672   2.041039
H   -2.569009    0.177712   3.017432
H   -1.167675    0.605971   3.994430
H   -2.715799   -2.053405   4.209046
H   -2.938543   -0.646441   5.269174
H   -1.011682   -1.219430   6.390683
H   -0.747190   -4.727730   4.621403
H    0.638398   -4.210693   6.347673
H    0.832797   -2.584850   6.708482
O    2.109635    0.563916   1.904030
H    0.154414   -1.832754   0.432015
