 26
Energy: -16507.69600715.7 eV PBE+vdW (tier 2 basis)
N    0.293215   -0.555621   0.172964
C    0.325927   -0.159409   1.578776
C    1.769127   -0.166439   2.062911
O    2.743586   -0.340174   1.359879
H    1.209083   -0.402537  -0.250784
H   -0.397813   -0.015862  -0.342646
H   -0.011494    0.884194   1.738132
C   -0.590397   -1.063000   2.436671
C   -0.142450   -2.524031   2.465895
C   -1.169359   -3.495175   3.065441
N   -2.414722   -3.599508   2.324149
C   -3.568102   -2.894753   2.639234
N   -3.806565   -2.131117   3.650029
N   -4.570455   -3.076364   1.675932
H   -1.598105   -0.988004   2.003074
H   -0.653622   -0.653025   3.455040
H    0.093423   -2.838543   1.436907
H    0.790924   -2.623801   3.044420
H   -1.417793   -3.213552   4.099074
H   -0.718191   -4.497923   3.126721
H   -2.316402   -3.829325   1.340001
H   -2.968100   -1.965368   4.210259
H   -4.693166   -4.039082   1.371946
H   -5.443988   -2.668271   1.996843
O    1.862241    0.073833   3.399164
H    2.817263    0.073440   3.603601
