 26
Energy: -16507.68493815.7 eV PBE+vdW (tier 2 basis)
N   -0.528920    1.188433   2.061917
C    0.441507    1.061781   0.956593
C   -0.263160    0.417097  -0.265754
O    0.329324    0.047768  -1.255410
H   -0.435366    0.421198   2.727978
H   -0.405122    2.057828   2.576499
H    0.689309    2.081940   0.623277
C    1.754187    0.334355   1.282508
C    1.578873   -1.110832   1.756244
C    2.927012   -1.827694   1.919150
N    2.809978   -3.207879   2.371419
C    3.112132   -3.661931   3.646180
N    3.427624   -4.866542   3.983349
N    3.074054   -2.672084   4.633654
H    2.304280    0.918026   2.037768
H    2.363319    0.341647   0.366928
H    0.963686   -1.672541   1.036491
H    1.042834   -1.152161   2.720522
H    3.565382   -1.280475   2.628054
H    3.452433   -1.819469   0.951761
H    2.849871   -3.923234   1.656807
H    3.575546   -5.459860   3.162255
H    3.195363   -3.094167   5.549971
H    2.266860   -2.055183   4.601462
O   -1.598345    0.337692  -0.127806
H   -1.756660    0.708286   0.787182
