 26
Energy: -16507.58179315.7 eV PBE+vdW (tier 2 basis)
N   -0.875946   -1.170881   0.193837
C   -0.399078   -0.741770   1.505919
C    1.108048   -0.505165   1.515872
O    1.823368   -0.568333   2.494556
H   -1.891767   -1.296636   0.205122
H   -0.644641   -0.488034  -0.525215
H   -0.798976    0.254495   1.808692
C   -0.826874   -1.714186   2.618091
C   -0.256835   -3.142504   2.590216
C   -0.646775   -4.034297   1.403833
N   -2.106437   -4.110996   1.234722
C   -2.721275   -3.784152   0.036972
N   -3.730453   -2.970611   0.046308
N   -2.130872   -4.370093  -1.074802
H   -1.928249   -1.739604   2.606060
H   -0.547004   -1.260583   3.578189
H   -0.576308   -3.637783   3.522431
H    0.841277   -3.104219   2.641304
H   -0.228751   -5.040488   1.575587
H   -0.213681   -3.637224   0.477525
H   -2.637938   -3.704727   1.999555
H   -4.203933   -2.953136  -0.861454
H   -2.619115   -4.244774  -1.952452
H   -1.734993   -5.295441  -0.946836
O    1.580531   -0.130273   0.293022
H    2.532080    0.048430   0.422940
