 26
Energy: -16507.72488115.7 eV PBE+vdW (tier 2 basis)
N   -0.703796    0.621068  -0.062693
C   -0.125322    0.633034   1.294604
C    1.276910   -0.009244   1.240643
O    1.474345   -0.765911   0.145374
H   -1.717065    0.511899  -0.036382
H   -0.499296    1.481783  -0.569048
H    0.014796    1.653882   1.682087
C   -1.053304   -0.155902   2.244846
C   -0.551566   -0.391507   3.672782
C   -0.267134    0.891577   4.466177
N    0.122601    0.653249   5.856207
C   -0.737904    0.086794   6.795633
N   -0.418661   -0.709492   7.757836
N   -2.075454    0.460800   6.642051
H   -1.264746   -1.130161   1.775298
H   -2.012545    0.388790   2.281565
H    0.360213   -1.005485   3.656265
H   -1.317725   -0.970333   4.209058
H   -1.148009    1.551154   4.443600
H    0.556861    1.449951   4.002949
H    1.073116    0.309117   5.953272
H    0.553562   -1.020020   7.676802
H   -2.618996    0.154650   7.443919
H   -2.225941    1.442486   6.426279
O    2.109648    0.131508   2.110530
H    0.646409   -0.613687  -0.392655
