 26
Energy: -16507.60694115.7 eV PBE+vdW (tier 2 basis)
N   -0.284130    0.374166   0.252757
C    0.038246   -0.158632   1.592428
C    1.517633   -0.619940   1.587567
O    2.008851   -1.304894   2.458259
H   -0.951382    1.141874   0.304427
H    1.525486    0.331416  -0.000433
H    0.021609    0.702756   2.281269
C   -0.920917   -1.246887   2.135137
C   -1.367144   -1.061688   3.591683
C   -0.262726   -1.257093   4.630264
N   -0.790259   -1.065312   5.972592
C   -0.002399   -0.905053   7.108573
N   -0.424130   -0.902230   8.329730
N    1.338905   -0.633323   6.858193
H   -0.457858   -2.237005   2.011382
H   -1.821392   -1.235017   1.503784
H   -2.177785   -1.781425   3.794295
H   -1.806756   -0.059299   3.723258
H    0.535859   -0.521644   4.468229
H    0.197798   -2.253408   4.487409
H   -1.678090   -1.516792   6.163361
H   -1.443865   -0.981562   8.370147
H    1.872850   -0.623228   7.721117
H    1.789619   -1.152023   6.111177
O    2.213861   -0.157970   0.535208
H   -0.699584   -0.348556  -0.336898
