 26
Energy: -16507.57662315.7 eV PBE+vdW (tier 2 basis)
N   -0.119431    0.602829  -0.298803
C   -0.270615    0.369343   1.137565
C    1.058346    0.004332   1.793744
O    1.181005   -0.637824   2.815578
H   -0.991688    0.962730  -0.686134
H    0.610245    1.288742  -0.484979
H   -0.575912    1.281938   1.699203
C   -1.341412   -0.696893   1.415958
C   -1.088665   -2.043159   0.734195
C   -2.175147   -3.086150   1.032435
N   -3.544069   -2.700051   0.669586
C   -3.920995   -2.354822  -0.627597
N   -4.792207   -1.463161  -0.964564
N   -3.269770   -3.075068  -1.624584
H   -2.304476   -0.282897   1.076581
H   -1.415445   -0.826494   2.505857
H   -0.126126   -2.457142   1.073451
H   -1.005732   -1.899391  -0.350925
H   -2.197867   -3.316447   2.107934
H   -1.918821   -4.030859   0.530750
H   -4.004927   -2.118550   1.361028
H   -5.095020   -0.917126  -0.153073
H   -3.701399   -2.919314  -2.529946
H   -3.101973   -4.056281  -1.425292
O    2.123522    0.550336   1.142194
H    2.910244    0.302523   1.665525
