 26
Energy: -16507.44665415.7 eV PBE+vdW (tier 2 basis)
N    0.060289    0.497035  -0.674648
C    0.101152    0.756613   0.763336
C    1.571746    1.003409   1.165334
O    2.397554    1.328574   0.332498
H    0.863657    0.961130  -1.104570
H   -0.788993    0.877212  -1.088750
H   -0.365812    1.729028   1.035010
C   -0.692256   -0.309557   1.543387
C   -0.359900   -1.782940   1.241850
C    1.099722   -2.257014   1.292422
N    1.667719   -2.661053   2.596825
C    1.849976   -1.779491   3.651868
N    0.933808   -1.020743   4.183695
N    3.121523   -1.771173   4.185157
H   -1.752049   -0.165915   1.279130
H   -0.639785   -0.073044   2.613391
H   -0.684720   -1.971449   0.209523
H   -0.975673   -2.432222   1.883702
H    1.748171   -1.510759   0.802503
H    1.164530   -3.162608   0.675577
H    2.451662   -3.298093   2.482079
H    0.012473   -1.349314   3.890511
H    3.221443   -1.133653   4.969032
H    3.899394   -1.754627   3.533258
O    1.908783    0.977774   2.465759
H    1.305592    0.448171   3.063687
