 26
Energy: -16507.64088415.7 eV PBE+vdW (tier 2 basis)
N    1.387144    1.328721  -0.130719
C    0.432873    0.544880   0.681823
C    0.862721    0.643433   2.170123
O    1.797351    1.584809   2.386199
H    0.922678    1.804327  -0.902024
H    1.981754    1.940213   1.468556
H   -0.539549    1.061901   0.630732
C    0.245376   -0.909113   0.211314
C   -1.002306   -1.606808   0.759080
C   -1.120771   -3.048405   0.267517
N   -2.321734   -3.668381   0.801248
C   -2.880905   -4.857288   0.357398
N   -3.911826   -5.451388   0.858175
N   -2.292747   -5.384219  -0.794626
H    1.145816   -1.487862   0.477683
H    0.194910   -0.892671  -0.889919
H   -1.903373   -1.052129   0.451786
H   -0.970357   -1.585982   1.857664
H   -0.201085   -3.601227   0.551248
H   -1.184613   -3.065661  -0.831302
H   -2.564203   -3.419642   1.753191
H   -4.334566   -4.896816   1.607570
H   -2.693935   -6.293419  -1.005448
H   -1.277197   -5.394131  -0.814949
O    0.393004   -0.037223   3.056089
H    2.104471    0.724767  -0.534948
