 26
Energy: -16507.66686515.7 eV PBE+vdW (tier 2 basis)
N   -0.150669   -1.671175  -0.326859
C   -0.401447   -0.818026   0.828366
C    0.821588    0.050050   1.076108
O    1.749227    0.195177   0.308193
H   -1.036497   -1.867425  -0.797115
H    0.470771   -1.194890  -0.981190
H   -1.210461   -0.081297   0.647108
C   -0.793580   -1.681473   2.059841
C   -1.768440   -1.059985   3.071606
C   -3.261536   -1.102263   2.700133
N   -3.684087   -0.261118   1.589263
C   -3.680688   -0.667450   0.264583
N   -3.491474   -1.848478  -0.221060
N   -3.886791    0.397897  -0.619662
H    0.126531   -1.989791   2.576770
H   -1.221657   -2.609749   1.655653
H   -1.474538   -0.023491   3.298454
H   -1.672972   -1.606435   4.023420
H   -3.851141   -0.803237   3.580175
H   -3.567519   -2.134575   2.473292
H   -3.544401    0.734910   1.726597
H   -3.246582   -2.523218   0.506106
H   -4.601470    1.061497  -0.332698
H   -4.046549    0.053597  -1.562165
O    0.759756    0.708801   2.271336
H    1.571401    1.250562   2.311640
