 26
Energy: -16507.64274315.7 eV PBE+vdW (tier 2 basis)
N   -0.357631   -0.254599  -0.354010
C   -0.323071    0.243089   1.030440
C    1.070364    0.734276   1.419041
O    1.405080    1.896874   1.514534
H    0.315125   -1.013938  -0.475219
H   -0.095572    0.484968  -1.006166
H   -0.953997    1.139344   1.083527
C   -0.855583   -0.818315   2.004017
C   -2.324412   -1.194432   1.769202
C   -3.351117   -0.097790   2.094060
N   -3.388188    0.319244   3.498200
C   -2.506959    1.242189   4.059560
N   -2.019993    1.215894   5.254691
N   -2.149757    2.284321   3.204439
H   -0.712437   -0.456002   3.032807
H   -0.233974   -1.722166   1.913224
H   -2.559782   -2.084182   2.375838
H   -2.460657   -1.489849   0.717751
H   -4.355593   -0.457083   1.825147
H   -3.171648    0.789499   1.474843
H   -3.602921   -0.435994   4.142817
H   -2.231415    0.329115   5.721516
H   -1.592616    2.978043   3.694144
H   -2.914168    2.697084   2.677448
O    1.955104   -0.296084   1.591579
H    2.815204    0.123846   1.785854
