 26
Energy: -16507.62565615.7 eV PBE+vdW (tier 2 basis)
N   -1.827875    0.230490   0.330111
C   -1.425238   -0.123950   1.699123
C   -0.428601    0.907128   2.238675
O    0.786259    0.823719   2.200969
H   -1.008461    0.282634  -0.278144
H   -2.285035    1.142353   0.306059
H   -2.327384   -0.079425   2.327407
C   -0.828735   -1.528638   1.734069
C   -0.408378   -1.983570   3.143645
C    0.984070   -2.643310   3.153224
N    1.575342   -2.836665   4.460615
C    2.028871   -1.806955   5.273175
N    2.104035   -2.028103   6.545024
N    2.458000   -0.661650   4.605640
H    0.050282   -1.537479   1.068492
H   -1.562863   -2.211451   1.288040
H   -1.150004   -2.674727   3.569235
H   -0.377935   -1.123496   3.830417
H    1.669693   -2.041311   2.536468
H    0.937830   -3.625332   2.659500
H    1.219344   -3.602613   5.023159
H    2.533438   -1.239467   7.034395
H    2.580258    0.143010   5.207478
H    2.035813   -0.418295   3.713153
O   -1.065094    2.011849   2.716803
H   -0.365603    2.648172   2.964389
