 26
Energy: -16507.62608915.7 eV PBE+vdW (tier 2 basis)
N    0.422879   -0.377014   0.131826
C   -0.147951   -0.317463   1.478916
C    0.854071   -0.075347   2.608845
O    0.698555    0.698767   3.529764
H    0.863097    0.509999  -0.112442
H    1.153537   -1.089360   0.092352
H   -0.831032    0.543685   1.519335
C   -0.950311   -1.598170   1.782848
C   -2.195921   -1.724878   0.903039
C   -2.933677   -3.061767   1.051382
N   -3.471662   -3.326320   2.387905
C   -2.743818   -3.903842   3.426007
N   -2.850075   -3.637332   4.684026
N   -1.825259   -4.873005   3.017683
H   -1.229571   -1.600048   2.846662
H   -0.293637   -2.471207   1.638992
H   -1.909278   -1.599656  -0.152136
H   -2.892787   -0.900213   1.132710
H   -2.259543   -3.885518   0.784751
H   -3.769540   -3.096725   0.336232
H   -4.106440   -2.608208   2.724507
H   -3.437543   -2.813778   4.842830
H   -1.443876   -5.354377   3.826987
H   -2.164870   -5.518589   2.309860
O    1.970240   -0.854104   2.484332
H    2.524230   -0.651791   3.262709
