 26
Energy: -16507.69520715.7 eV PBE+vdW (tier 2 basis)
N    0.727495    0.838877   0.264218
C    0.310477    0.411408   1.596895
C    1.401266    0.601833   2.655273
O    2.583355    0.756684   2.426835
H    1.691685    0.540998   0.100539
H    0.752119    1.857926   0.221546
H   -0.547135    1.027837   1.904265
C   -0.169994   -1.058809   1.593598
C    0.907614   -2.084912   1.235931
C    0.365640   -3.511245   1.130607
N   -0.575033   -3.638386   0.025805
C   -1.469286   -4.692792  -0.014650
N   -1.570002   -5.515393   0.972765
N   -2.172891   -4.740158  -1.231437
H   -0.990231   -1.119628   0.865695
H   -0.592290   -1.297988   2.580911
H    1.709041   -2.082035   1.991017
H    1.389669   -1.809700   0.282548
H   -0.174864   -3.800021   2.041406
H    1.201934   -4.225712   1.029161
H   -0.220763   -3.349627  -0.881213
H   -2.350915   -6.161330   0.834743
H   -2.949754   -5.392452  -1.223265
H   -2.452615   -3.831757  -1.594404
O    0.897133    0.552284   3.920438
H    1.661797    0.647129   4.521638
