 26
Energy: -16507.61181815.7 eV PBE+vdW (tier 2 basis)
N    0.922728    2.100617   2.137731
C    1.454765    0.744286   2.059943
C    0.553731   -0.059022   1.136293
O   -0.632910    0.138941   0.977779
H    1.270950    2.586542   2.962586
H   -0.096620    2.058371   2.197807
H    2.456662    0.774737   1.600053
C    1.569596   -0.035508   3.398736
C    2.573846    0.588919   4.368499
C    2.696010   -0.155438   5.707994
N    3.215355   -1.519202   5.610137
C    2.434074   -2.639748   5.329992
N    2.791087   -3.675451   4.648722
N    1.148927   -2.595344   5.870438
H    1.868326   -1.070826   3.177381
H    0.573176   -0.086530   3.865306
H    2.294413    1.631098   4.599841
H    3.568183    0.638846   3.891672
H    1.714326   -0.194222   6.196627
H    3.358736    0.412069   6.378745
H    4.134180   -1.580688   5.181583
H    3.689698   -3.523518   4.181841
H    0.686759   -3.492353   5.753462
H    1.090537   -2.251494   6.824954
O    1.224056   -1.076028   0.532961
H    0.557408   -1.576055   0.022914
