 26
Energy: -16507.66536515.7 eV PBE+vdW (tier 2 basis)
N   -0.032952   -0.831342  -0.277807
C   -0.018334   -0.310828   1.088493
C    1.401464   -0.178367   1.643744
O    2.327009   -0.920743   1.380574
H    0.337441   -0.128484  -0.918421
H    0.597347   -1.634628  -0.342951
H   -0.470599    0.691517   1.078691
C   -0.832062   -1.260654   2.004352
C   -1.252117   -0.709408   3.377132
C   -2.607967    0.018403   3.384533
N   -2.733497    1.171704   2.491778
C   -1.927630    2.297366   2.599749
N   -1.481854    2.845857   1.518909
N   -1.662531    2.689204   3.911478
H   -0.245115   -2.182873   2.137387
H   -1.719249   -1.550725   1.419890
H   -0.478940   -0.040571   3.782620
H   -1.335497   -1.543970   4.090661
H   -2.844422    0.327657   4.413607
H   -3.404342   -0.681847   3.092488
H   -2.853994    0.937091   1.509930
H   -1.016071    3.736270   1.711308
H   -1.222007    3.597755   3.994971
H   -2.417352    2.554621   4.577942
O    1.534297    0.873651   2.501536
H    2.460185    0.844267   2.815279
