 26
Energy: -16507.59002115.7 eV PBE+vdW (tier 2 basis)
N   -0.372065    0.547606   0.443720
C    0.036474    0.407240   1.839406
C    1.543135    0.569208   1.989144
O    2.094298    1.069656   2.945787
H   -1.388069    0.521891   0.363385
H    0.002613   -0.211941  -0.125839
H   -0.390379    1.252067   2.397886
C   -0.358907   -0.917646   2.555226
C   -1.865602   -1.189058   2.598117
C   -2.659023   -0.171844   3.418195
N   -4.066044   -0.528884   3.448469
C   -5.005471    0.312990   4.039639
N   -4.827386    1.495956   4.515088
N   -6.275508   -0.271376   4.092620
H    0.044737   -0.893214   3.579871
H    0.140662   -1.751112   2.037347
H   -2.018001   -2.192923   3.027266
H   -2.278913   -1.232461   1.577817
H   -2.578118    0.828809   2.965824
H   -2.224627   -0.095268   4.434688
H   -4.252003   -1.517967   3.592521
H   -3.836853    1.746246   4.551071
H   -6.966461    0.401352   4.412500
H   -6.563292   -0.738422   3.236711
O    2.227178    0.019437   0.946690
H    3.173805    0.144547   1.152415
