 26
Energy: -16507.93036515.7 eV PBE+vdW (tier 2 basis)
N   -0.160445    0.120808  -0.188122
C   -0.264113    0.222420   1.268287
C    1.091018    0.417418   1.977181
O    2.103739   -0.129344   1.580393
H    0.620993   -0.506501  -0.401852
H    0.106686    1.027037  -0.576266
H   -0.898859    1.090546   1.490952
C   -0.944780   -1.060276   1.818742
C   -2.477888   -0.959243   1.901354
C   -2.996170   -0.619568   3.311185
N   -2.312878    0.490898   3.984581
C   -2.345283    1.795285   3.545504
N   -1.242192    2.485577   3.564587
N   -3.568847    2.236414   3.083939
H   -0.528486   -1.321056   2.805237
H   -0.653347   -1.882405   1.151661
H   -2.945419   -1.911371   1.608196
H   -2.831914   -0.212062   1.175502
H   -2.869516   -1.488948   3.971713
H   -4.077015   -0.421339   3.278982
H   -1.386213    0.260624   4.333188
H   -1.385203    3.479849   3.382739
H   -3.639616    3.223696   2.872822
H   -4.399923    1.838018   3.507120
O    1.089435    1.181453   3.081777
H    0.206681    1.674886   3.235556
