 26
Energy: -16507.61291915.7 eV PBE+vdW (tier 2 basis)
N    0.365094   -0.763242  -0.195976
C   -0.141408   -0.104331   1.020516
C    1.013293    0.438686   1.861729
O    1.331061    1.608024   1.939181
H    0.963398   -1.552463   0.055934
H    0.942166   -0.115629  -0.734656
H   -0.705976    0.782865   0.700239
C   -1.085352   -1.060092   1.762795
C   -1.900522   -0.446649   2.909577
C   -1.112775   -0.176117   4.191369
N   -2.006446    0.274135   5.249091
C   -1.471777    0.738748   6.439189
N   -0.197739    0.869869   6.582252
N   -2.465897    0.989311   7.401664
H   -0.511735   -1.925464   2.131712
H   -1.773315   -1.445335   0.996733
H   -2.720453   -1.146745   3.143572
H   -2.382919    0.485272   2.573757
H   -0.365594    0.615257   4.056147
H   -0.551341   -1.079748   4.491158
H   -2.856777   -0.271455   5.357845
H    0.027669    1.333283   7.465953
H   -2.120852    1.479698   8.220020
H   -3.307442    1.426266   7.032938
O    1.718136   -0.557022   2.477122
H    2.437607   -0.114109   2.967123
