 26
Energy: -16507.74332915.7 eV PBE+vdW (tier 2 basis)
N   -0.200264   -1.299132  -0.135157
C   -0.179650   -0.564140   1.138513
C    1.213045   -0.251976   1.686193
O    1.522903    0.768088   2.263631
H    0.195150   -0.727051  -0.882372
H    0.398093   -2.124191  -0.058238
H   -0.643832    0.418742   0.974031
C   -0.981353   -1.325137   2.225080
C   -2.485061   -1.015167   2.273122
C   -3.261511   -1.179203   0.949832
N   -3.015515   -2.406192   0.216755
C   -3.463404   -3.638961   0.658620
N   -4.304370   -3.907035   1.600655
N   -2.882371   -4.700438  -0.051406
H   -0.561373   -1.090229   3.213670
H   -0.818081   -2.403285   2.073323
H   -2.633639    0.019220   2.623056
H   -2.926356   -1.665578   3.042728
H   -3.011740   -0.354982   0.266792
H   -4.339790   -1.087129   1.150712
H   -2.102353   -2.396311  -0.241429
H   -4.572208   -3.065858   2.115938
H   -3.357844   -5.571799   0.166589
H   -2.818634   -4.545799  -1.054406
O    2.088328   -1.281261   1.485536
H    2.927325   -1.006357   1.903319
