 26
Energy: -16507.86505215.7 eV PBE+vdW (tier 2 basis)
N   -1.199924    0.090862   0.374639
C   -0.128507    0.236534   1.383618
C    1.183707    0.623487   0.652331
O    0.997537    0.934438  -0.636636
H    0.011985    0.784950  -0.761293
H   -1.368138   -0.891115   0.153913
H   -0.373561    1.114486   2.001947
C    0.094675   -0.963510   2.309880
C    0.513882   -2.254215   1.582001
C    1.517199   -3.097766   2.389148
N    2.767865   -2.400664   2.623684
C    3.044962   -1.731279   3.817556
N    2.689920   -2.075662   5.010844
N    3.849516   -0.615116   3.621156
H   -0.816301   -1.134265   2.901717
H    0.874985   -0.676188   3.025737
H    0.989356   -2.010771   0.615940
H   -0.360637   -2.879309   1.340168
H    1.708729   -4.044543   1.860668
H    1.088376   -3.365741   3.364882
H    3.167944   -1.954513   1.802855
H    2.250010   -2.999454   5.016068
H    4.030175   -0.128111   4.492960
H    3.553828   -0.000012   2.863018
O    2.272682    0.659209   1.191045
H   -2.080141    0.484263   0.700888
