 26
Energy: -16507.66314015.7 eV PBE+vdW (tier 2 basis)
N    0.524035    1.082134  -0.251073
C    0.396950    0.565249   1.108025
C    1.588982   -0.208854   1.693487
O    1.694125   -0.516659   2.862946
H    1.363294    1.654918  -0.337411
H    0.633254    0.320978  -0.926389
H    0.278177    1.426054   1.785387
C   -0.874923   -0.296603   1.250979
C   -0.849767   -1.617864   0.455285
C   -2.095082   -1.831867  -0.422777
N   -2.317214   -0.782370  -1.401434
C   -1.432352   -0.480291  -2.416757
N   -0.516534   -1.244203  -2.916343
N   -1.627491    0.804888  -2.936316
H   -1.702996    0.338008   0.903970
H   -1.040170   -0.496151   2.317069
H   -0.756272   -2.473668   1.138817
H    0.036181   -1.662853  -0.195775
H   -2.997342   -1.878623   0.202840
H   -2.025941   -2.809526  -0.928071
H   -3.035219   -0.095640  -1.212329
H   -0.584469   -2.197882  -2.550707
H   -0.955832    0.980319  -3.679522
H   -1.575929    1.531003  -2.222498
O    2.532191   -0.528513   0.763120
H    3.222377   -1.022794   1.247496
