 26
Energy: -16507.73456415.7 eV PBE+vdW (tier 2 basis)
N   -1.265310    0.408246   2.171310
C    0.003934   -0.330497   2.326296
C    0.724135   -0.392737   0.952875
O    0.029462    0.205024  -0.027090
H   -0.792363    0.525997   0.461104
H   -2.068411   -0.176606   2.420458
H    0.684412    0.234052   2.982203
C   -0.141596   -1.747140   2.905106
C   -1.011709   -2.718701   2.074821
C   -2.368312   -3.074755   2.691012
N   -3.287810   -1.936746   2.820920
C   -4.138564   -1.622846   1.761843
N   -3.937419   -2.149274   0.606545
N   -5.076119   -0.633206   2.083255
H   -0.533026   -1.662999   3.931857
H    0.875130   -2.151066   2.991493
H   -0.467358   -3.664092   1.939859
H   -1.183643   -2.335580   1.058840
H   -2.220896   -3.481488   3.702117
H   -2.847117   -3.850547   2.075785
H   -3.689639   -1.817357   3.743753
H   -4.585266   -1.784368  -0.094666
H   -5.849621   -0.567043   1.431346
H   -5.385962   -0.585254   3.049768
O    1.802907   -0.923210   0.792377
H   -1.289840    1.244194   2.749813
