 26
Energy: -16507.68490315.7 eV PBE+vdW (tier 2 basis)
N    0.332018    1.193918   0.909714
C    0.169489    0.179400   1.938012
C    1.465039   -0.163189   2.681414
O    2.576647    0.223164   2.389637
H    0.997540    1.903761   1.215082
H    0.715865    0.779104   0.054547
H   -0.520527    0.561826   2.713528
C   -0.446566   -1.098941   1.335615
C   -1.828916   -0.861017   0.710826
C   -2.151910   -1.820514  -0.443429
N   -1.223063   -1.722294  -1.581987
C   -0.973040   -0.483271  -2.174553
N    0.249171   -0.088433  -2.311079
N   -2.125001    0.208645  -2.530132
H   -0.498427   -1.879984   2.105424
H    0.260450   -1.455025   0.568131
H   -1.881564    0.168216   0.328945
H   -2.610227   -0.951503   1.481560
H   -3.177603   -1.638836  -0.794672
H   -2.123978   -2.868292  -0.110044
H   -0.326213   -2.167497  -1.402929
H    0.309204    0.749425  -2.897318
H   -1.977721    1.052874  -3.069520
H   -2.905572   -0.353730  -2.853910
O    1.227588   -0.956516   3.769291
H    2.099580   -1.109881   4.181733
