 26
Energy: -16507.70779715.7 eV PBE+vdW (tier 2 basis)
N   -0.616890    0.257221  -0.082309
C   -0.220563    0.008101   1.295105
C    1.293188   -0.157006   1.488208
O    2.111572   -0.307792   0.605748
H   -0.307749   -0.510249  -0.680828
H   -0.145607    1.089139  -0.438419
H   -0.511240    0.884993   1.895601
C   -0.968958   -1.209246   1.881876
C   -0.612209   -2.551326   1.238245
C   -1.340888   -3.715657   1.922280
N   -1.053690   -5.026717   1.358194
C   -1.681679   -5.437695   0.193947
N   -2.605053   -4.720713  -0.348592
N   -1.165168   -6.655010  -0.281352
H   -2.043024   -1.010869   1.753842
H   -0.769893   -1.250066   2.963340
H    0.476175   -2.723300   1.293835
H   -0.889527   -2.559154   0.174453
H   -2.425752   -3.567685   1.843760
H   -1.082767   -3.746790   2.992329
H   -0.094888   -5.346323   1.453833
H   -3.051167   -5.215469  -1.124145
H   -1.709498   -7.058614  -1.036177
H   -0.962663   -7.341144   0.441902
O    1.640466   -0.114720   2.808936
H    2.610315   -0.230613   2.834220
