 26
Energy: -16507.61268915.7 eV PBE+vdW (tier 2 basis)
N   -0.157660   -0.912455   0.153090
C    0.105415   -0.234947   1.424156
C    1.594726   -0.158526   1.747335
O    2.049182    0.077138   2.846194
H    0.485868   -0.596189  -0.570407
H   -1.103792   -0.701341  -0.162798
H   -0.196038    0.835712   1.414370
C   -0.664184   -0.903250   2.577763
C   -0.301547   -2.371011   2.807894
C   -1.163510   -3.007762   3.907224
N   -0.863740   -4.399073   4.197885
C    0.218144   -4.772252   4.988740
N    1.017774   -4.025049   5.667543
N    0.401298   -6.161654   5.002697
H   -1.740380   -0.812842   2.353539
H   -0.484365   -0.318238   3.491041
H    0.759456   -2.455142   3.087418
H   -0.426646   -2.931176   1.869808
H   -2.227030   -2.948310   3.627030
H   -1.067151   -2.441432   4.846588
H   -1.076791   -5.053969   3.451371
H    0.880643   -3.032040   5.466791
H    1.110535   -6.416480   5.684419
H   -0.454184   -6.696978   5.128583
O    2.383215   -0.320929   0.647717
H    3.301856   -0.213734   0.962564
