 26
Energy: -16507.67715015.7 eV PBE+vdW (tier 2 basis)
N    1.399283    0.795291   0.041581
C    0.517573    0.314804   1.108032
C    1.197406    0.365337   2.470205
O    1.048735   -0.437742   3.367550
H    1.839272    1.673782   0.315362
H    0.816180    0.993521  -0.779171
H   -0.367221    0.978212   1.251186
C    0.013152   -1.105222   0.789800
C   -1.411934   -1.417297   1.258036
C   -2.518956   -0.657921   0.503288
N   -2.512870   -0.860364  -0.935803
C   -1.787224   -0.092424  -1.826010
N   -1.361543    1.120101  -1.669058
N   -1.565262   -0.732721  -3.045659
H    0.708107   -1.833887   1.227108
H    0.080561   -1.233356  -0.299329
H   -1.514767   -1.210405   2.334759
H   -1.591056   -2.498084   1.140618
H   -2.450850    0.422361   0.695142
H   -3.502517   -0.961878   0.889529
H   -2.830395   -1.761108  -1.274861
H   -1.741347    1.540082  -0.817243
H   -1.231360   -1.690777  -2.986477
H   -0.997784   -0.159012  -3.662255
O    1.974775    1.477819   2.611302
H    2.336870    1.435578   3.517404
