 26
Energy: -16507.67321915.7 eV PBE+vdW (tier 2 basis)
N    0.301028    0.211326   0.367096
C   -0.121352   -0.260165   1.683593
C    1.068270   -0.611613   2.557760
O    1.061759   -0.587655   3.778293
H   -0.512430    0.542039  -0.151987
H    0.722043   -0.543913  -0.175652
H   -0.602974    0.590647   2.182928
C   -1.122974   -1.477063   1.708469
C   -2.526095   -1.147815   2.233059
C   -2.652866   -1.063713   3.765045
N   -1.844632   -0.043129   4.415182
C   -2.205167    1.285242   4.330595
N   -3.356221    1.635300   3.857047
N   -1.183071    2.148725   4.751451
H   -0.701053   -2.313016   2.290479
H   -1.191129   -1.837494   0.671772
H   -3.221774   -1.931902   1.894176
H   -2.885797   -0.204403   1.794621
H   -2.373807   -2.030565   4.211557
H   -3.701192   -0.865855   4.021721
H   -0.840537   -0.225384   4.443537
H   -3.492435    2.645692   3.934623
H   -1.499981    3.083116   4.984453
H   -0.551104    1.771364   5.452807
O    2.145547   -1.037038   1.856092
H    2.823021   -1.275462   2.518838
