 26
Energy: -16507.62083815.7 eV PBE+vdW (tier 2 basis)
N    0.140890   -1.027720   0.330690
C   -0.024500   -0.337902   1.605154
C    1.257536    0.018327   2.365183
O    1.412442    1.016908   3.037447
H    0.604662   -1.927373   0.465193
H    0.723177   -0.484538  -0.305710
H   -0.512397    0.629319   1.410584
C   -0.929170   -1.156072   2.551004
C   -2.338772   -1.368483   1.997662
C   -3.235016   -2.212243   2.916214
N   -2.747281   -3.564983   3.206641
C   -2.506773   -4.513393   2.211268
N   -1.558327   -5.388297   2.194659
N   -3.413301   -4.474788   1.155588
H   -0.973312   -0.640455   3.523389
H   -0.441826   -2.129544   2.726834
H   -2.278615   -1.842496   1.009145
H   -2.827051   -0.391471   1.847988
H   -4.241501   -2.275940   2.478142
H   -3.363365   -1.715932   3.889938
H   -2.041832   -3.600593   3.934725
H   -0.885194   -5.219913   2.947588
H   -4.380866   -4.301386   1.410113
H   -3.299972   -5.280190   0.548139
O    2.226447   -0.934951   2.233617
H    2.976930   -0.626733   2.777599
