 26
Energy: -16507.67123215.7 eV PBE+vdW (tier 2 basis)
N    0.198844   -1.254973   0.255215
C    0.236386   -0.662490   1.586075
C    1.666800   -0.740657   2.093958
O    2.463743   -1.606924   1.801257
H   -0.751920   -1.504280  -0.012878
H    0.764677   -2.105711   0.246610
H   -0.033141    0.404185   1.516018
C   -0.681861   -1.316909   2.657696
C   -2.170784   -1.134969   2.361758
C   -3.088285   -1.849331   3.371337
N   -3.004584   -3.299780   3.378551
C   -3.566449   -4.077774   2.372522
N   -4.347376   -3.710615   1.415414
N   -3.188546   -5.421882   2.469608
H   -0.452091   -0.879504   3.643151
H   -0.425777   -2.387735   2.705732
H   -2.408037   -1.504096   1.351701
H   -2.419005   -0.061203   2.370253
H   -4.135691   -1.571419   3.181713
H   -2.860664   -1.502241   4.390502
H   -2.164982   -3.691068   3.792649
H   -4.452456   -2.694943   1.375151
H   -3.720560   -5.988703   1.815238
H   -3.215942   -5.804358   3.411322
O    1.949734    0.258780   2.973882
H    2.862095    0.094361   3.282778
