 26
Energy: -16507.75528815.7 eV PBE+vdW (tier 2 basis)
N   -0.862321   -0.981623   0.172230
C   -0.423563   -0.573438   1.521355
C    1.093499   -0.288435   1.479749
O    1.686888    0.317943   2.345423
H   -1.181112   -0.183261  -0.375673
H    0.940056   -1.192931  -0.128907
H   -0.913800    0.351020   1.866925
C   -0.721058   -1.701935   2.526887
C   -0.502701   -1.322419   3.993049
C   -0.766746   -2.482039   4.963404
N   -2.133023   -3.008656   4.929628
C   -2.564354   -3.980357   4.037729
N   -3.726909   -3.853110   3.488144
N   -1.643917   -5.009079   3.817536
H   -0.111893   -2.583795   2.269603
H   -1.772684   -1.997486   2.382612
H   -1.160896   -0.476490   4.254020
H    0.524891   -0.961638   4.145807
H   -0.553472   -2.149351   5.989833
H   -0.072655   -3.305868   4.751450
H   -2.857840   -2.300945   5.027509
H   -4.000060   -4.704546   2.990139
H   -2.024962   -5.797672   3.307196
H   -1.105974   -5.298528   4.630013
O    1.701677   -0.817993   0.400654
H   -1.633072   -1.647369   0.221686
