 26
Energy: -16507.80698315.7 eV PBE+vdW (tier 2 basis)
N    0.356919    0.422566   0.436099
C    0.319023   -0.335441   1.703882
C    1.713299   -0.942860   1.969732
O    2.668897   -0.448898   1.156358
H    2.152578    0.163485   0.555939
H   -0.034047   -0.115932  -0.337780
H    0.168179    0.399121   2.515883
C   -0.762472   -1.417598   1.812233
C   -2.218014   -0.961538   1.645381
C   -2.728437    0.129355   2.609106
N   -2.568029    1.491737   2.121806
C   -1.668503    2.398765   2.629206
N   -0.854445    2.072303   3.576533
N   -1.712378    3.629814   1.947956
H   -0.634008   -1.900831   2.790704
H   -0.556619   -2.203548   1.065406
H   -2.853756   -1.850537   1.775618
H   -2.401581   -0.626117   0.609859
H   -2.210649    0.080407   3.575347
H   -3.799329   -0.039315   2.801529
H   -2.979497    1.714099   1.223588
H   -0.313321    2.874606   3.902970
H   -1.152262    4.351365   2.389748
H   -2.648182    3.969385   1.736622
O    1.939638   -1.757653   2.837848
H   -0.168988    1.291761   0.506460
