 26
Energy: -16507.61844215.7 eV PBE+vdW (tier 2 basis)
N   -0.496760    0.464696  -0.416889
C   -0.124707    0.205465   0.974649
C    1.377227   -0.023815   1.121332
O    1.907395   -0.652547   2.013064
H    0.048466    1.232314  -0.805908
H   -1.481340    0.725631  -0.468223
H   -0.302596    1.078411   1.644091
C   -0.927015   -0.966741   1.558934
C   -0.813329   -2.277790   0.778964
C   -1.584142   -3.406966   1.472598
N   -1.588661   -4.669153   0.745380
C   -2.487130   -4.875369  -0.286785
N   -3.415505   -4.017799  -0.543320
N   -2.227187   -6.069976  -0.981428
H   -1.984625   -0.659129   1.605335
H   -0.598362   -1.111360   2.598465
H    0.247099   -2.563705   0.686438
H   -1.204100   -2.147430  -0.238015
H   -2.635509   -3.116910   1.598497
H   -1.165207   -3.595259   2.473385
H   -0.678602   -5.095758   0.602342
H   -4.061453   -4.375689  -1.250481
H   -1.954729   -6.851716  -0.390009
H   -2.966502   -6.331543  -1.624909
O    2.096036    0.631408   0.165398
H    3.034126    0.462801   0.378986
