 26
Energy: -16507.71270115.7 eV PBE+vdW (tier 2 basis)
N    0.839663   -2.561591  -0.502004
C    0.498191   -1.834810   0.717108
C   -0.047950   -0.430841   0.453249
O    0.294880    0.287211  -0.464154
H   -0.005361   -2.787284  -1.027352
H    1.394330   -1.951844  -1.107798
H   -0.284133   -2.399184   1.246660
C    1.739997   -1.706643   1.630296
C    2.236309   -3.057685   2.156487
C    1.438027   -3.635072   3.334924
N    1.571988   -2.899640   4.579790
C    0.650581   -1.989556   5.074680
N   -0.489269   -1.631868   4.592296
N    1.093972   -1.401662   6.269374
H    1.516120   -1.026915   2.465633
H    2.532766   -1.222545   1.039051
H    3.288336   -2.958065   2.468581
H    2.227892   -3.784982   1.330639
H    1.763369   -4.673182   3.507636
H    0.366126   -3.696660   3.097550
H    2.518251   -2.781554   4.926331
H   -0.651054   -1.999610   3.653136
H    1.468431   -2.059961   6.948405
H    0.356817   -0.828145   6.669943
O   -0.958143   -0.060263   1.391277
H   -1.211139    0.862350   1.191261
