 26
Energy: -16507.61708715.7 eV PBE+vdW (tier 2 basis)
N   -0.038495    0.753490  -0.004383
C   -0.044488    0.416962   1.418163
C    1.351928    0.089031   1.954504
O    2.169890   -0.605265   1.386942
H    0.446035    0.017541  -0.523676
H    0.490501    1.611653  -0.164162
H   -0.425553    1.286426   1.971028
C   -0.976899   -0.792213   1.643005
C   -1.125752   -1.286142   3.085482
C   -1.769071   -0.276000   4.034312
N   -1.956578   -0.883899   5.351455
C   -2.433338   -0.163330   6.440535
N   -1.936655   -0.400138   7.606978
N   -3.412007    0.781080   6.119885
H   -0.600803   -1.619319   1.020923
H   -1.956224   -0.510055   1.228998
H   -0.143147   -1.585740   3.487251
H   -1.740832   -2.198487   3.080232
H   -2.746614    0.020000   3.621565
H   -1.157707    0.641754   4.099646
H   -1.171275   -1.454897   5.657059
H   -2.452635    0.090531   8.342001
H   -3.912036    1.144531   6.923241
H   -4.034601    0.534947   5.355482
O    1.586840    0.664562   3.167853
H    2.483420    0.381656   3.437789
