 26
Energy: -16507.77500615.7 eV PBE+vdW (tier 2 basis)
N   -0.195287    0.150151  -0.187980
C   -0.159393    0.190553   1.262725
C    1.204236    0.414136   1.932179
O    1.356075    0.865652   3.050553
H    0.161708   -0.746811  -0.545051
H    0.354160    0.904849  -0.594595
H   -0.765988    1.043875   1.613196
C   -0.764061   -1.088515   1.886359
C   -2.201236   -1.400688   1.443578
C   -2.355841   -2.155725   0.113257
N   -1.748734   -3.480012   0.099265
C   -0.513220   -3.742063  -0.445080
N    0.198866   -2.815398  -0.999865
N   -0.136056   -5.084758  -0.281000
H   -0.741455   -0.956841   2.976602
H   -0.107487   -1.942592   1.659431
H   -2.780478   -0.466448   1.369003
H   -2.686639   -1.994537   2.236408
H   -1.909313   -1.583663  -0.705757
H   -3.429020   -2.269994  -0.106191
H   -2.058742   -4.133471   0.809981
H    1.028804   -3.207142  -1.448554
H    0.702789   -5.337406  -0.791870
H   -0.882022   -5.760451  -0.426829
O    2.258580    0.043125   1.149844
H    3.052058    0.213177   1.693963
