 26
Energy: -16507.73433915.7 eV PBE+vdW (tier 2 basis)
N   -0.676542   -0.594296  -0.225922
C   -0.256399   -0.043749   1.077295
C    0.639595    1.190258   0.822146
O    0.914892    2.006560   1.675498
H   -0.741544   -1.611119  -0.199945
H   -1.583158   -0.231190  -0.516592
H   -1.107426    0.302636   1.685458
C    0.525238   -1.113691   1.863633
C    0.922479   -0.707219   3.284145
C    1.747581   -1.776363   4.014555
N    3.054002   -2.048388   3.411426
C    3.264200   -2.963355   2.382812
N    4.112293   -2.858624   1.416318
N    2.456257   -4.102337   2.448749
H    1.418247   -1.389955   1.281405
H   -0.103921   -2.018475   1.909634
H    0.018659   -0.500391   3.880616
H    1.485097    0.237722   3.260581
H    1.188517   -2.719672   4.060556
H    1.911509   -1.456218   5.054280
H    3.637506   -1.222579   3.311248
H    4.534700   -1.926223   1.388774
H    2.772230   -4.788498   1.768995
H    2.356680   -4.503245   3.377754
O    1.113619    1.249509  -0.435293
H    0.660689    0.479902  -0.887127
