 26
Energy: -16507.67887715.7 eV PBE+vdW (tier 2 basis)
N    0.046321   -0.018333   0.529394
C    0.054359    0.192102   1.990741
C    1.515234    0.116964   2.506888
O    2.426048    0.092287   1.518462
H   -0.614128    0.598779   0.061613
H    1.864170    0.101425   0.690667
H   -0.248786    1.234881   2.173348
C   -0.868052   -0.721580   2.811750
C   -0.545621   -2.213235   2.689658
C   -1.448429   -3.072715   3.575027
N   -1.130369   -4.482151   3.421796
C   -1.954831   -5.539380   3.782901
N   -1.664976   -6.794213   3.701222
N   -3.239178   -5.168032   4.186159
H   -1.909724   -0.533335   2.507031
H   -0.778804   -0.415731   3.863795
H    0.506597   -2.381340   2.972294
H   -0.658629   -2.566941   1.651535
H   -2.497569   -2.927291   3.278392
H   -1.351808   -2.728424   4.624497
H   -0.144639   -4.715521   3.391563
H   -0.753153   -6.939431   3.259105
H   -3.753025   -5.985199   4.503000
H   -3.296685   -4.396427   4.844545
O    1.803797    0.105643   3.683245
H   -0.209556   -0.977023   0.291809
