 26
Energy: -16507.57818915.7 eV PBE+vdW (tier 2 basis)
N    1.563069   -0.257357   0.671305
C    1.325523    0.140826   2.062664
C    2.430787   -0.378704   2.975855
O    2.314755   -0.646361   4.153852
H    2.516506   -0.038811   0.385776
H    0.932321    0.256241   0.056155
H    1.387038    1.242423   2.213709
C   -0.079200   -0.289479   2.514248
C   -0.335304   -1.810666   2.491198
C   -0.392836   -2.491476   3.867651
N   -1.493646   -2.057843   4.711161
C   -1.386166   -1.105918   5.717345
N   -0.344573   -0.485655   6.146952
N   -2.637764   -0.822130   6.292612
H   -0.783951    0.218446   1.838730
H   -0.277313    0.126246   3.511021
H    0.434978   -2.303868   1.877972
H   -1.285343   -2.013158   1.972258
H    0.538776   -2.326879   4.422255
H   -0.478751   -3.579936   3.718401
H   -2.422340   -2.150443   4.312205
H    0.486503   -0.658866   5.575841
H   -2.512954   -0.224408   7.105314
H   -3.187338   -1.647667   6.520210
O    3.632931   -0.444353   2.337242
H    4.278287   -0.729978   3.012792
