 26
Energy: -16507.80996515.7 eV PBE+vdW (tier 2 basis)
N    0.600686   -0.060604  -0.793811
C    0.790816   -0.116224   0.642293
C    2.257191    0.009450   1.079517
O    3.224259   -0.005207   0.348110
H    1.215133    0.641533  -1.205037
H    0.839790   -0.966871  -1.221526
H    0.278280    0.746893   1.108537
C    0.180992   -1.394200   1.259659
C   -1.312912   -1.598924   0.963176
C   -1.660773   -2.258448  -0.381458
N   -1.152062   -3.615016  -0.535618
C    0.007087   -3.915091  -1.213735
N    0.719631   -2.998127  -1.782248
N    0.310980   -5.285199  -1.163363
H    0.325846   -1.337218   2.346180
H    0.755688   -2.266917   0.913177
H   -1.838063   -0.631296   1.008499
H   -1.744782   -2.214968   1.770049
H   -1.267753   -1.665448  -1.213027
H   -2.756590   -2.291794  -0.485604
H   -1.431227   -4.290460   0.167360
H    1.478744   -3.404496  -2.331819
H    1.080157   -5.553543  -1.767470
H   -0.487332   -5.905404  -1.274663
O    2.371016    0.179015   2.433152
H    3.328322    0.260605   2.608940
