 26
Energy: -16507.66255415.7 eV PBE+vdW (tier 2 basis)
N   -0.724150    1.171282   4.145660
C   -0.288852   -0.195932   4.437527
C    1.095331   -0.107097   5.060959
O    1.968454    0.656740   4.704890
H    0.051152    1.677842   3.712249
H   -1.487135    1.152760   3.468317
H   -0.965765   -0.634648   5.187626
C   -0.252375   -1.131846   3.200955
C    0.084981   -2.596185   3.490503
C   -0.072745   -3.523878   2.277062
N   -1.436127   -3.650509   1.783124
C   -1.889771   -2.934823   0.691846
N   -1.099433   -2.172678   0.015720
N   -3.266679   -3.123714   0.475012
H    0.448704   -0.718203   2.460576
H   -1.249986   -1.071373   2.739487
H   -0.544260   -2.967668   4.318474
H    1.123386   -2.689095   3.845242
H    0.297846   -4.526814   2.540287
H    0.524303   -3.155875   1.433280
H   -2.144183   -3.900539   2.464992
H   -1.562563   -1.807187  -0.818801
H   -3.588837   -2.747724  -0.410459
H   -3.590286   -4.078901   0.610466
O    1.275265   -1.015492   6.059341
H    2.199838   -0.903614   6.356963
