 26
Energy: -16507.63279715.7 eV PBE+vdW (tier 2 basis)
N    0.119803   -0.728988  -0.223311
C   -0.130353   -0.269913   1.146117
C    1.179136   -0.180855   1.916412
O    1.498495    0.730782   2.650182
H   -0.760243   -0.761686  -0.739696
H    0.493066   -1.679564  -0.212807
H   -0.486683    0.768038   1.083193
C   -1.155593   -1.122076   1.942464
C   -1.427628   -0.709280   3.394569
C   -1.942800    0.732066   3.587554
N   -3.105042    1.102712   2.797538
C   -4.380145    0.623682   3.054666
N   -4.785277   -0.083630   4.052932
N   -5.296238    0.985962   2.056096
H   -0.812076   -2.167740   1.924972
H   -2.098160   -1.099724   1.371998
H   -0.515149   -0.816524   4.001755
H   -2.156388   -1.420326   3.810418
H   -1.145090    1.449194   3.352360
H   -2.184023    0.888872   4.649716
H   -2.930112    1.360178   1.832636
H   -4.008819   -0.384746   4.645260
H   -5.239328    1.960015   1.768296
H   -6.239502    0.737552   2.342092
O    1.951271   -1.289000   1.739729
H    2.751575   -1.150715   2.282395
