 26
Energy: -16507.61955215.7 eV PBE+vdW (tier 2 basis)
N    0.380387   -0.012442   0.295474
C   -0.257957    0.111715   1.621750
C    0.734976    0.642247   2.660338
O    0.628236    0.454490   3.856698
H   -0.339848   -0.179015  -0.408628
H    0.838332    0.868297   0.058315
H   -1.073966    0.864406   1.611218
C   -0.914814   -1.226340   2.026274
C   -0.078806   -2.372891   2.633171
C    1.318572   -2.689114   2.069614
N    2.342908   -1.851733   2.684305
C    3.253003   -1.008647   2.101028
N    4.025379   -0.185759   2.764177
N    3.315854   -1.039591   0.718363
H   -1.416695   -1.594913   1.117211
H   -1.720319   -1.004298   2.739615
H   -0.688573   -3.284841   2.546277
H    0.029936   -2.196281   3.714196
H    1.352083   -2.567805   0.982154
H    1.545997   -3.748843   2.275023
H    2.215356   -1.687127   3.676623
H    3.987789   -0.381061   3.769436
H    2.396026   -0.967013   0.271240
H    3.953531   -0.318866   0.391575
O    1.726191    1.356449   2.083541
H    2.570510    1.236832   2.603500
