 26
Energy: -16507.63643515.7 eV PBE+vdW (tier 2 basis)
N    0.181843    1.102192   0.204689
C   -0.607688    1.250652   1.437011
C    0.295236    1.916010   2.477477
O    0.622925    1.460082   3.554316
H   -0.392494    0.667533  -0.517835
H    0.472657    2.014310  -0.147386
H   -1.480440    1.929117   1.318280
C   -1.099841   -0.110234   1.926583
C   -2.163817   -0.029696   3.039426
C   -2.054170   -1.162146   4.059672
N   -0.872226   -0.980954   4.880681
C   -0.408669   -1.973355   5.722336
N   -0.969931   -3.101499   6.005342
N    0.830879   -1.665220   6.293850
H   -0.226563   -0.688503   2.259916
H   -1.512723   -0.653726   1.063697
H   -3.169417   -0.045699   2.596558
H   -2.085460    0.925021   3.582619
H   -2.026424   -2.134976   3.529729
H   -2.953397   -1.175323   4.697951
H   -0.186245   -0.314383   4.530310
H   -1.808869   -3.253480   5.441577
H    1.051247   -2.310896   7.045981
H    0.947068   -0.694010   6.569097
O    0.713628    3.136152   2.048589
H    1.305564    3.485517   2.743167
