 26
Energy: -16507.62726315.7 eV PBE+vdW (tier 2 basis)
N    0.157845   -0.255657  -0.406661
C   -0.288415   -0.100528   0.979140
C    0.894183    0.140261   1.916087
O    0.943059   -0.166337   3.088561
H    0.670719    0.567930  -0.717335
H   -0.651501   -0.385008  -1.019183
H   -0.909960    0.811929   1.133297
C   -1.144815   -1.283413   1.455738
C   -0.508154   -2.677261   1.343188
C   -0.586876   -3.348472  -0.038672
N   -1.949381   -3.587824  -0.512075
C   -2.702568   -2.714652  -1.273420
N   -3.979529   -2.663243  -1.091160
N   -1.963510   -1.938482  -2.186869
H   -2.100220   -1.261547   0.909935
H   -1.393900   -1.090512   2.507211
H   -1.001195   -3.339448   2.073103
H    0.549616   -2.639167   1.647304
H   -0.068715   -4.318729   0.008108
H   -0.050234   -2.736333  -0.771586
H   -2.554995   -4.076926   0.142754
H   -4.439485   -2.092931  -1.805092
H   -2.551621   -1.517174  -2.898800
H   -1.167385   -2.417787  -2.602893
O    1.900174    0.828201   1.302062
H    2.576145    0.976590   1.991334
