 26
Energy: -16507.78639315.7 eV PBE+vdW (tier 2 basis)
N    0.421319   -0.292775  -0.065000
C   -0.043152    0.061292   1.291192
C    1.113168    0.811602   2.001610
O    1.188854    0.973937   3.204349
H    0.849550   -1.220278  -0.071501
H   -0.348951   -0.311128  -0.731068
H   -0.836881    0.817168   1.163963
C   -0.593501   -1.101484   2.134492
C   -1.498952   -0.673006   3.311960
C   -1.222043   -1.454270   4.596787
N    0.090460   -1.117521   5.107877
C    0.833158   -1.977714   5.890076
N    0.458169   -3.091968   6.426918
N    2.155057   -1.555568   6.060735
H    0.256119   -1.690378   2.514418
H   -1.158131   -1.764260   1.462866
H   -2.555081   -0.802772   3.037374
H   -1.363979    0.397206   3.525699
H   -1.280980   -2.539059   4.389259
H   -2.007827   -1.232634   5.340246
H    0.588751   -0.388400   4.597889
H   -0.502533   -3.326905   6.170341
H    2.603812   -2.055012   6.821901
H    2.290893   -0.550424   6.114925
O    2.026706    1.295979   1.150504
H    1.727720    0.937424   0.264239
