 26
Energy: -16507.81065515.7 eV PBE+vdW (tier 2 basis)
N   -0.189961    0.559439  -0.356226
C   -0.006732    0.071045   1.013897
C    1.438300   -0.239436   1.421830
O    1.933229    0.156996   2.465925
H    0.274657    1.461456  -0.469330
H    0.271880   -0.084091  -1.002934
H   -0.350724    0.854479   1.703607
C   -0.875948   -1.197623   1.219358
C   -0.482437   -2.067564   2.434044
C    0.377975   -3.293419   2.044766
N    1.316246   -3.726066   3.072548
C    2.660812   -3.468758   3.047751
N    3.246547   -2.855795   2.061050
N    3.316714   -3.914793   4.194686
H   -0.812720   -1.800711   0.299578
H   -1.920425   -0.867450   1.292059
H   -1.387134   -2.413865   2.953937
H    0.076222   -1.459836   3.160611
H    0.969246   -3.075161   1.150662
H   -0.277165   -4.141907   1.793598
H    0.931302   -3.906213   3.992943
H    4.259843   -2.844632   2.172357
H    3.002563   -4.804724   4.569878
H    4.326599   -3.838894   4.164469
O    2.049640   -1.069994   0.562476
H    2.669157   -1.698902   1.121166
