 26
Energy: -16507.62787415.7 eV PBE+vdW (tier 2 basis)
N   -0.284727    0.589555  -0.099978
C   -0.329160    0.381474   1.347376
C    1.063804    0.384152   1.982963
O    2.029131   -0.208686   1.544648
H    0.379051   -0.068705  -0.514966
H    0.066472    1.523934  -0.313187
H   -0.909448    1.201670   1.791222
C   -1.024001   -0.963761   1.640687
C   -1.178519   -1.337821   3.118593
C   -2.060508   -0.375127   3.913014
N   -2.261932   -0.867374   5.266835
C   -2.746991   -0.024014   6.250170
N   -2.932053    1.228536   6.004723
N   -2.903290   -0.647332   7.496361
H   -0.451685   -1.752365   1.127708
H   -2.007333   -0.917539   1.150000
H   -0.195051   -1.414195   3.608202
H   -1.615154   -2.350081   3.160878
H   -3.023123   -0.221121   3.389372
H   -1.599391    0.615472   4.006946
H   -2.536423   -1.841636   5.339283
H   -3.163443    1.736996   6.861562
H   -3.634803   -0.252688   8.075817
H   -2.893568   -1.662403   7.513874
O    1.111603    1.133926   3.118665
H    2.023836    1.055739   3.462451
