 26
Energy: -16507.71295715.7 eV PBE+vdW (tier 2 basis)
N   -0.465220   -1.020260  -0.178167
C    0.346524   -0.170193   0.684283
C    1.336064    0.706814  -0.088525
O    1.788544    0.450122  -1.184463
H   -1.123768   -0.453952  -0.713169
H    0.139627   -1.472041  -0.868300
H   -0.323060    0.499945   1.244938
C    1.141191   -1.020708   1.700371
C    0.237648   -1.792292   2.662165
C    1.034633   -2.688130   3.607203
N    0.147960   -3.421686   4.493907
C    0.650012   -4.340488   5.408560
N    1.863602   -4.753014   5.537180
N   -0.341993   -4.830015   6.266793
H    1.821762   -0.363189   2.261853
H    1.776465   -1.723338   1.135420
H   -0.475337   -2.398912   2.087441
H   -0.357273   -1.073753   3.252559
H    1.768514   -2.080121   4.173292
H    1.613834   -3.417740   3.018759
H   -0.654280   -2.895803   4.829482
H    2.507222   -4.218295   4.949731
H    0.022049   -5.589851   6.834767
H   -1.211167   -5.083559   5.804067
O    1.684070    1.822346   0.613007
H    2.343376    2.294115   0.066844
