 26
Energy: -16507.92675615.7 eV PBE+vdW (tier 2 basis)
N    0.056765   -0.036191  -0.119073
C    0.012631   -0.014452   1.344026
C    1.367279   -0.400660   1.986979
O    2.133860   -1.167961   1.433762
H    0.665702    0.715327  -0.447492
H    0.531277   -0.898938  -0.402618
H   -0.246739    1.007232   1.652117
C   -1.086910   -0.994555   1.817166
C   -1.367312   -1.034767   3.324437
C   -2.342134    0.031600   3.859281
N   -2.220594    1.398277   3.358042
C   -1.224883    2.271033   3.688625
N   -0.127474    1.858219   4.254686
N   -1.490408    3.580992   3.302754
H   -0.784893   -1.998943   1.481757
H   -1.999086   -0.746963   1.252066
H   -0.428178   -0.991342   3.889967
H   -1.817128   -2.006902   3.578002
H   -2.265062    0.064851   4.955807
H   -3.371500   -0.268782   3.617776
H   -2.833626    1.676397   2.603026
H    0.440538    2.640626   4.584954
H   -0.779070    4.260851   3.543184
H   -2.438313    3.916943   3.439812
O    1.654610    0.126894   3.185681
H    0.915450    0.730170   3.545530
