 26
Energy: -16507.92068615.7 eV PBE+vdW (tier 2 basis)
N    0.943223   -0.924307   0.023096
C    0.195525   -0.125973   1.007328
C    1.196911    0.557897   1.958071
O    2.407045   -0.039243   1.957907
H    1.312681   -0.308459  -0.703341
H    2.311581   -0.747166   1.256293
H   -0.399807    0.682939   0.550814
C   -0.730849   -1.000638   1.884317
C   -1.638930   -1.966994   1.115547
C   -2.503173   -1.314642   0.026027
N   -3.056413   -2.262882  -0.933209
C   -2.231279   -2.860353  -1.863959
N   -0.982079   -2.531581  -1.953547
N   -2.890154   -3.833452  -2.622233
H   -1.321229   -0.313608   2.507235
H   -0.111016   -1.591308   2.576113
H   -2.288397   -2.486670   1.837098
H   -1.026512   -2.746694   0.641788
H   -1.910451   -0.596926  -0.555044
H   -3.340026   -0.755793   0.468075
H   -3.820794   -2.842595  -0.603101
H   -0.543234   -2.966955  -2.767340
H   -2.352080   -4.188035  -3.404992
H   -3.845188   -3.605848  -2.885537
O    0.920937    1.502851   2.663864
H    0.336816   -1.589951  -0.478011
