 26
Energy: -16507.56663115.7 eV PBE+vdW (tier 2 basis)
N    0.405073   -0.333944   0.045456
C    0.048540   -0.182423   1.448885
C    1.259309   -0.145021   2.392408
O    2.406565   -0.396672   2.085284
H    1.093746   -1.081015  -0.062262
H    0.870901    0.509482  -0.289086
H   -0.437317    0.798732   1.569438
C   -1.007426   -1.231934   1.884989
C   -0.700559   -2.699706   1.563255
C    0.512306   -3.293066   2.280784
N    0.565855   -4.732418   2.068231
C    1.532046   -5.575675   2.599424
N    1.662666   -6.837629   2.358426
N    2.366353   -4.976714   3.542923
H   -1.937056   -0.963546   1.364957
H   -1.198146   -1.113582   2.961326
H   -0.580970   -2.816537   0.473741
H   -1.586297   -3.292377   1.840353
H    0.434908   -3.097338   3.362549
H    1.434762   -2.796662   1.925682
H    0.137504   -5.073550   1.215899
H    0.909334   -7.181534   1.756817
H    3.109475   -5.613442   3.814007
H    2.707046   -4.046152   3.319782
O    0.902759    0.228551   3.653172
H    1.725239    0.232018   4.180801
