 26
Energy: -16507.87794615.7 eV PBE+vdW (tier 2 basis)
N   -1.017800   -0.247569   2.769356
C    0.345441   -0.773997   2.566268
C    0.903692   -0.233787   1.222825
O    2.007184   -0.511213   0.802011
H   -1.098805    0.294349   3.625617
H   -0.748116    0.570892   1.224556
H    1.019313   -0.374361   3.341735
C    0.421956   -2.305657   2.582952
C    0.218617   -2.925443   3.974974
C   -0.514994   -4.273418   3.946435
N   -1.890332   -4.171065   3.425192
C   -2.790446   -3.305147   4.045783
N   -3.346514   -2.366901   3.348722
N   -2.956330   -3.547963   5.400994
H    1.389414   -2.607134   2.161339
H   -0.344946   -2.670147   1.878754
H   -0.366180   -2.243490   4.612967
H    1.191459   -3.051803   4.473660
H   -0.543864   -4.706904   4.955067
H    0.012706   -4.997826   3.310028
H   -1.911940   -3.977885   2.426052
H   -4.110877   -1.915828   3.860835
H   -3.690556   -3.022655   5.859751
H   -2.894525   -4.517070   5.696370
O    0.038331    0.571257   0.589994
H   -1.742891   -0.978234   2.791763
