 26
Energy: -16507.80376715.7 eV PBE+vdW (tier 2 basis)
N    0.370276    0.135898   0.132013
C    0.157553   -0.120050   1.567045
C    1.523037   -0.393009   2.246334
O    1.635542   -0.791270   3.385144
H    0.212224   -0.707971  -0.420542
H   -0.262481    0.858138  -0.221349
H   -0.175326    0.830805   2.016201
C   -0.853576   -1.225905   1.912484
C   -2.266342   -0.961694   1.382486
C   -3.025359    0.186850   2.086897
N   -3.912210    0.936364   1.201861
C   -3.362325    1.758755   0.221852
N   -2.193050    2.310643   0.225572
N   -4.199678    1.959014  -0.873557
H   -0.852204   -1.360493   3.003567
H   -0.480706   -2.175774   1.495045
H   -2.859614   -1.884793   1.457045
H   -2.211566   -0.724452   0.308716
H   -2.326908    0.899620   2.548339
H   -3.631013   -0.199458   2.917154
H   -4.709270    0.395237   0.877183
H   -1.687931    2.080131   1.083214
H   -3.895319    2.749040  -1.434779
H   -5.193649    1.991546  -0.667891
O    2.567016   -0.111407   1.448455
H    2.123925    0.179098   0.596170
