 26
Energy: -16507.74888915.7 eV PBE+vdW (tier 2 basis)
N   -0.520673    0.784954   0.546687
C   -0.059080    0.048550   1.714905
C    1.420099   -0.340281   1.657019
O    2.077905   -0.455310   0.644561
H   -0.007256    1.661546   0.452969
H   -0.323785    0.252671  -0.303503
H   -0.185528    0.694989   2.596367
C   -0.887780   -1.245617   1.926461
C   -2.401734   -1.040285   1.806218
C   -2.977596   -0.008298   2.788131
N   -4.356513    0.367731   2.533523
C   -4.679312    1.228540   1.483611
N   -3.887371    1.864105   0.695065
N   -6.067291    1.365189   1.334520
H   -0.625493   -1.662119   2.910358
H   -0.570463   -1.990937   1.179567
H   -2.899811   -2.009785   1.965048
H   -2.648230   -0.724617   0.783986
H   -2.385539    0.917305   2.755951
H   -2.910849   -0.383812   3.820722
H   -5.051694   -0.350794   2.713061
H   -2.910207    1.565223   0.780602
H   -6.277339    2.087207   0.650979
H   -6.570750    1.510977   2.206171
O    1.929627   -0.572305   2.900702
H    2.857682   -0.848204   2.767273
