 26
Energy: -16507.67476715.7 eV PBE+vdW (tier 2 basis)
N    2.479608    0.460888   2.011775
C    1.173085   -0.122714   1.648310
C    0.907599    0.123351   0.140204
O    1.978718    0.604598  -0.514170
H    3.005725   -0.135854   2.646163
H    2.365675    1.366975   2.467797
H    1.262350   -1.218044   1.739920
C   -0.017402    0.346617   2.491936
C    0.029611   -0.133537   3.942297
C   -1.159961    0.364294   4.763345
N   -1.073141   -0.106412   6.135653
C   -1.783140    0.410108   7.212149
N   -1.764416   -0.038973   8.421956
N   -2.501669    1.573217   6.934145
H   -0.933276   -0.005697   1.997025
H   -0.057602    1.449613   2.458348
H    0.955348    0.199482   4.437888
H    0.046299   -1.237531   3.955607
H   -2.099778    0.049465   4.266009
H   -1.154232    1.464130   4.779771
H   -0.778461   -1.068046   6.258965
H   -1.091867   -0.803564   8.526840
H   -3.051910    1.846759   7.743017
H   -3.044437    1.575149   6.075657
O   -0.150698   -0.120261  -0.395132
H    2.664973    0.697987   0.207524
