 26
Energy: -16507.40362115.7 eV PBE+vdW (tier 2 basis)
N   -0.851914    0.667975  -1.395151
C   -0.409406    0.581717  -0.003129
C    1.042827    1.024972   0.145261
O    1.461780    1.652940   1.097496
H   -1.827599    0.376651  -1.463280
H   -0.802904    1.627138  -1.739097
H   -0.959399    1.243150   0.692040
C   -0.603420   -0.873119   0.483305
C   -0.194941   -1.162965   1.936391
C    1.230050   -1.701443   2.080839
N    1.531574   -1.947104   3.479368
C    2.708448   -2.508384   3.945988
N    3.035050   -2.313661   5.179537
N    3.376385   -3.327418   3.029789
H   -0.078681   -1.541056  -0.216432
H   -1.676481   -1.086925   0.362019
H   -0.879320   -1.905236   2.370901
H   -0.301067   -0.249659   2.544173
H    1.949811   -1.000331   1.615754
H    1.291027   -2.652404   1.526425
H    1.176121   -1.262837   4.140587
H    3.881088   -2.830379   5.429545
H    3.287606   -3.092047   2.046559
H    4.332690   -3.535471   3.291431
O    1.841849    0.621745  -0.877240
H    2.734828    0.948150  -0.650081
