 26
Energy: -16507.76040415.7 eV PBE+vdW (tier 2 basis)
N    0.481380   -0.580193   0.414100
C   -0.029346   -0.583567   1.783772
C    0.807552   -1.306405   2.846157
O    0.750659   -1.042140   4.033837
H    0.691188   -1.534290   0.116314
H    1.368556   -0.077616   0.374093
H   -0.117253    0.459678   2.117278
C   -1.451500   -1.203117   1.840813
C   -1.528071   -2.709831   1.503707
C   -2.212341   -3.580875   2.576710
N   -1.693293   -3.440481   3.929022
C   -0.461676   -3.861999   4.368306
N    0.434222   -4.525727   3.699002
N   -0.203405   -3.500735   5.689604
H   -2.069921   -0.624583   1.141794
H   -1.843341   -1.027330   2.852701
H   -0.522304   -3.109843   1.317820
H   -2.083244   -2.863067   0.567617
H   -2.175604   -4.637199   2.256869
H   -3.277431   -3.317974   2.635434
H   -2.341072   -3.150481   4.649904
H    0.059370   -4.865470   2.809413
H    0.733834   -3.796192   5.950575
H   -0.319121   -2.502574   5.857320
O    1.522011   -2.335920   2.335278
H    1.590305   -3.041966   3.038028
