 26
Energy: -16507.91452515.7 eV PBE+vdW (tier 2 basis)
N   -0.283416    0.456407  -0.085782
C   -0.095309    0.402149   1.361814
C    1.383761    0.476241   1.807268
O    2.292957    0.193429   1.050012
H    0.445762   -0.120472  -0.516021
H   -0.097798    1.403547  -0.418306
H   -0.616368    1.267076   1.798283
C   -0.703910   -0.901080   1.923515
C   -2.236167   -0.970434   1.901513
C   -2.950154    0.187770   2.620797
N   -2.313233    0.526840   3.906966
C   -1.707699    1.749232   4.114088
N   -0.478849    1.792925   4.543545
N   -2.490723    2.837400   3.787272
H   -0.329039   -1.059771   2.946140
H   -0.301985   -1.739839   1.334900
H   -2.545189   -1.926678   2.352547
H   -2.592628   -0.984710   0.862026
H   -4.006883   -0.077863   2.776603
H   -2.936344    1.088774   1.993375
H   -1.727215   -0.212791   4.284240
H   -0.208647    2.730926   4.848962
H   -2.103433    3.754960   3.966035
H   -3.491924    2.755780   3.924877
O    1.615869    0.825140   3.081541
H    0.780789    1.093898   3.598237
