 26
Energy: -16507.89080015.7 eV PBE+vdW (tier 2 basis)
N    1.147670   -1.313148   0.337468
C    0.843913   -0.694460   1.646826
C    2.049140   -0.934711   2.580613
O    2.895840   -1.867331   2.127193
H    0.325771   -1.765710  -0.060783
H    1.467609   -0.615831  -0.333744
H    0.728860    0.394586   1.554453
C   -0.448275   -1.320637   2.218504
C   -0.855866   -0.983719   3.659910
C   -1.300079    0.462169   3.925805
N   -0.217817    1.440096   3.812031
C   -0.120958    2.367505   2.789141
N    0.973006    2.844150   2.288029
N   -1.341663    2.789651   2.249594
H   -0.339973   -2.415704   2.142062
H   -1.267324   -1.035777   1.537207
H   -0.045251   -1.249585   4.354266
H   -1.702441   -1.637451   3.922249
H   -1.736324    0.507214   4.937489
H   -2.094629    0.739668   3.219908
H    0.694338    1.061921   4.074890
H    1.790220    2.374200   2.688814
H   -1.187526    3.580018   1.629665
H   -2.068780    2.980528   2.933925
O    2.216967   -0.347854   3.634980
H    2.513668   -2.089672   1.224200
