 26
Energy: -16507.58804115.7 eV PBE+vdW (tier 2 basis)
N    0.900466   -0.107303  -0.072856
C    0.342926    0.058921   1.265552
C    1.351412    0.350931   2.383203
O    1.169098    1.117887   3.305831
H    1.419291    0.723358  -0.356705
H    1.556137   -0.889441  -0.096738
H   -0.317710    0.938698   1.250604
C   -0.501476   -1.161238   1.691853
C   -1.759534   -1.411142   0.846138
C   -1.515650   -2.178550  -0.453230
N   -2.783908   -2.469292  -1.108351
C   -2.794837   -3.001975  -2.385904
N   -1.701396   -3.154803  -3.050450
N   -4.093848   -3.358467  -2.794992
H   -0.799964   -1.000725   2.737884
H    0.140438   -2.058232   1.689539
H   -2.254379   -0.453991   0.618359
H   -2.470172   -1.984002   1.466639
H   -0.950582   -3.106435  -0.242324
H   -0.903401   -1.591971  -1.145609
H   -3.508786   -2.839741  -0.499838
H   -1.894454   -3.448254  -4.011415
H   -4.153707   -3.597656  -3.779172
H   -4.814395   -2.690311  -2.531012
O    2.501731   -0.373706   2.248982
H    3.055210   -0.137295   3.018250
