 26
Energy: -16507.69419815.7 eV PBE+vdW (tier 2 basis)
N   -1.030475   -0.301784   0.209862
C   -0.434444    0.157117   1.460253
C    1.085904   -0.033018   1.504634
O    1.703250   -0.871635   0.881934
H   -0.696418    0.270248  -0.566713
H   -0.703752   -1.250976   0.012675
H   -0.635787    1.234385   1.564198
C   -1.044516   -0.559144   2.685868
C   -2.544019   -0.309115   2.906828
C   -3.478587   -1.191044   2.058258
N   -4.886721   -1.065050   2.392458
C   -5.443083   -1.662680   3.515128
N   -4.902752   -2.504121   4.329010
N   -6.765523   -1.253810   3.735008
H   -0.490654   -0.227513   3.575391
H   -0.851038   -1.641554   2.591629
H   -2.775363    0.750945   2.712594
H   -2.773592   -0.481548   3.968853
H   -3.196986   -2.249993   2.171473
H   -3.350828   -0.951360   0.995936
H   -5.325693   -0.192428   2.116510
H   -3.905440   -2.626666   4.140943
H   -7.188153   -1.811985   4.471647
H   -7.344013   -1.234668   2.898770
O    1.685595    0.846519   2.355578
H    2.637742    0.625289   2.350971
