 26
Energy: -16507.63342815.7 eV PBE+vdW (tier 2 basis)
N    0.041553   -0.436256  -0.232940
C   -0.222445   -0.127745   1.177570
C    1.085536    0.170689   1.895455
O    1.274656    1.097121   2.654861
H    0.594109   -1.292527  -0.303657
H   -0.842283   -0.617226  -0.711264
H   -0.776832    0.821001   1.206369
C   -1.016521   -1.216878   1.946419
C   -1.286488   -0.966896   3.434612
C   -2.059913    0.322679   3.766725
N   -3.303338    0.523697   3.033424
C   -4.417067   -0.257178   3.262100
N   -4.415147   -1.162633   4.180879
N   -5.467064    0.044085   2.373111
H   -0.477281   -2.170197   1.833841
H   -1.974330   -1.343627   1.415439
H   -0.338337   -0.933657   3.994459
H   -1.856607   -1.818645   3.828324
H   -1.433306    1.206620   3.586234
H   -2.307398    0.310989   4.836249
H   -3.228135    0.911956   2.100805
H   -5.347428   -1.564052   4.304174
H   -6.340306   -0.410371   2.619055
H   -5.604730    1.038492   2.206173
O    2.036457   -0.770042   1.632164
H    2.824252   -0.507504   2.146280
