 26
Energy: -16507.71807015.7 eV PBE+vdW (tier 2 basis)
N   -0.321633   -1.194819  -0.358927
C   -0.175047   -0.550699   0.959172
C    1.319630   -0.283066   1.250954
O    1.868273    0.707643   0.804075
H    0.144743   -2.104888  -0.351829
H    0.153595   -0.631325  -1.066205
H   -0.626433    0.449394   0.876786
C   -0.918000   -1.370556   2.008509
C   -0.911383   -0.752097   3.415565
C   -1.072335   -1.798314   4.543488
N    0.133410   -2.109792   5.304324
C    1.171226   -2.862923   4.830364
N    1.231778   -3.209954   3.576591
N    2.087273   -3.264120   5.793411
H   -0.479613   -2.378845   2.059198
H   -1.950717   -1.501777   1.654502
H   -1.715640   -0.006136   3.492616
H    0.024229   -0.200873   3.594374
H   -1.453106   -2.740748   4.124088
H   -1.809319   -1.456102   5.281541
H    0.296892   -1.571625   6.145081
H    1.963803   -3.908155   3.431014
H    3.050351   -3.337095   5.489015
H    1.973935   -2.925097   6.741734
O    2.037349   -1.212920   1.913405
H    1.511178   -1.925906   2.398737
