 26
Energy: -16507.87754415.7 eV PBE+vdW (tier 2 basis)
N   -1.345533    0.418974   0.826077
C   -0.297399   -0.042708   1.761346
C    0.957287   -0.455449   0.948131
O    0.811326   -0.246466  -0.368941
H   -0.126321    0.128773  -0.416000
H   -2.160556   -0.212551   0.819105
H    0.030171    0.800822   2.388315
C   -0.750556   -1.187290   2.679478
C   -1.162916   -2.443310   1.896912
C   -2.279900   -3.270586   2.551751
N   -3.448113   -2.531813   3.024879
C   -4.258182   -1.749101   2.242335
N   -3.938498   -1.446042   1.022624
N   -5.389638   -1.296329   2.936198
H   -1.598583   -0.814182   3.273664
H    0.061595   -1.418042   3.382047
H   -0.293285   -3.101966   1.759025
H   -1.506913   -2.172300   0.891812
H   -1.893585   -3.802533   3.432464
H   -2.613018   -4.036920   1.835068
H   -3.551114   -2.416703   4.023985
H   -4.718335   -0.984627   0.548281
H   -6.043951   -0.773708   2.364467
H   -5.855035   -1.991130   3.514127
O    1.960649   -0.910956   1.456291
H   -1.678827    1.348080   1.071616
