 26
Energy: -16507.69100215.7 eV PBE+vdW (tier 2 basis)
N   -0.300715    0.260931   0.343343
C    0.003052   -0.174491   1.701244
C    1.505581   -0.246229   1.996481
O    2.389816   -0.282336   1.165706
H    0.266365   -0.267531  -0.322511
H   -0.023836    1.235270   0.220308
H   -0.420758    0.562950   2.399498
C   -0.661175   -1.532317   2.021988
C   -0.199524   -2.698858   1.145151
C   -0.777246   -4.040605   1.603450
N   -0.266918   -4.430593   2.910884
C   -1.066734   -5.101503   3.819116
N   -2.316190   -5.310640   3.583311
N   -0.338336   -5.520764   4.946888
H   -1.745172   -1.392119   1.902293
H   -0.478176   -1.776675   3.077836
H    0.902543   -2.760670   1.131721
H   -0.509137   -2.536090   0.101557
H   -0.565429   -4.819272   0.850476
H   -1.869060   -3.990330   1.702898
H    0.714125   -4.688668   2.942386
H   -2.783125   -5.712803   4.399152
H   -0.924360   -5.865775   5.699682
H    0.342089   -4.844362   5.285822
O    1.759998   -0.282458   3.337135
H    2.731497   -0.343565   3.423511
