 26
Energy: -16507.62635215.7 eV PBE+vdW (tier 2 basis)
N   -1.525718   -0.134431   0.888570
C   -0.325719    0.568742   1.329572
C    0.594501    0.744224   0.132440
O    0.573241    0.064337  -0.873602
H   -1.943401   -0.660847   1.654267
H   -1.289374   -0.785480   0.138198
H   -0.600200    1.581059   1.668998
C    0.458985   -0.091604   2.498680
C    1.087950   -1.445965   2.165285
C    1.672386   -2.179144   3.381848
N    2.777425   -1.489780   4.046805
C    2.609934   -0.501269   5.007507
N    3.395335    0.522255   4.990595
N    1.558970   -0.738285   5.902033
H   -0.250144   -0.204479   3.335018
H    1.229027    0.612175   2.845770
H    1.882597   -1.317866   1.411510
H    0.339862   -2.109675   1.701067
H    2.032892   -3.169932   3.066944
H    0.879092   -2.356658   4.120298
H    3.541084   -1.225202   3.428322
H    3.281853    1.096726   5.829792
H    1.557463   -0.109024   6.697150
H    1.439621   -1.707876   6.184164
O    1.493886    1.743435   0.330186
H    2.067451    1.752562  -0.460417
