 26
Energy: -16507.60993215.7 eV PBE+vdW (tier 2 basis)
N   -0.076188    0.389280  -0.132544
C   -0.030110    0.056232   1.287150
C    1.377251   -0.312336   1.769665
O    2.309418   -0.605571   1.050568
H    0.557924   -0.226667  -0.646110
H    0.286317    1.331127  -0.279382
H   -0.346230    0.938800   1.862364
C   -1.020334   -1.081783   1.632795
C   -0.711419   -2.415584   0.951088
C   -1.749241   -3.485618   1.286902
N   -1.429728   -4.738229   0.622345
C   -2.007798   -5.968179   0.899119
N   -1.787310   -7.075378   0.272263
N   -2.836474   -5.983248   2.022082
H   -2.015993   -0.728946   1.326835
H   -1.038839   -1.214674   2.724820
H    0.283085   -2.784302   1.247184
H   -0.686688   -2.270768  -0.141660
H   -2.755723   -3.108451   1.011203
H   -1.754769   -3.662755   2.373047
H   -1.032621   -4.662156  -0.306536
H   -1.059181   -6.962985  -0.438372
H   -3.293030   -6.886366   2.108868
H   -3.484320   -5.206848   2.115841
O    1.468268   -0.300859   3.128598
H    2.381100   -0.576126   3.343894
