 26
Energy: -16507.68961915.7 eV PBE+vdW (tier 2 basis)
N   -0.271671    0.613618   0.559996
C   -0.365861    0.055243   1.899970
C    0.962413   -0.024955   2.661048
O    2.071244   -0.060120   2.169343
H    0.351360    0.082559  -0.054214
H    0.113753    1.557321   0.597172
H   -1.006714    0.731488   2.485989
C   -1.071151   -1.332046   1.912731
C   -0.203922   -2.594199   1.783536
C    0.654618   -2.717537   0.517432
N   -0.119500   -2.602663  -0.700554
C    0.227790   -1.801083  -1.770778
N    1.302688   -1.102971  -1.936091
N   -0.755850   -1.787170  -2.764687
H   -1.807025   -1.293237   1.097291
H   -1.636695   -1.418614   2.850600
H   -0.877200   -3.464965   1.848392
H    0.470039   -2.683854   2.650628
H    1.212417   -3.669850   0.549635
H    1.411908   -1.922989   0.510759
H   -0.833181   -3.300964  -0.874889
H    2.020203   -1.331519  -1.243907
H   -0.508553   -1.124980  -3.494729
H   -1.699544   -1.632207  -2.418152
O    0.759470   -0.070362   4.011365
H    1.646632   -0.143871   4.414903
