 26
Energy: -16507.67044915.7 eV PBE+vdW (tier 2 basis)
N    0.327903    0.803712   0.178619
C    0.185752    0.356182   1.568458
C    1.454601   -0.309004   2.106478
O    2.169170    0.137837   2.980523
H    0.497506    0.006500  -0.436908
H    1.123078    1.435794   0.080959
H    0.048101    1.250628   2.192978
C   -1.040971   -0.554473   1.701081
C   -1.331631   -0.985383   3.139764
C   -2.523773   -1.942649   3.290661
N   -2.354209   -3.239866   2.661840
C   -2.828199   -3.565833   1.398279
N   -3.547807   -2.864647   0.592007
N   -2.420515   -4.848418   1.005062
H   -0.899470   -1.438873   1.061818
H   -1.894630    0.001650   1.285563
H   -1.526071   -0.098488   3.764991
H   -0.441613   -1.468723   3.577679
H   -3.437536   -1.488362   2.880822
H   -2.719111   -2.100604   4.362804
H   -1.545296   -3.773980   2.962770
H   -3.667792   -1.903947   0.918763
H   -2.529449   -5.562985   1.720578
H   -2.880520   -5.111566   0.137938
O    1.739109   -1.478356   1.456891
H    2.582173   -1.794887   1.834462
