 26
Energy: -16508.02786315.7 eV PBE+vdW (tier 2 basis)
N    0.421166   -0.082650  -0.151973
C    0.259357    0.033107   1.315724
C    1.630261   -0.314284   1.985151
O    1.631945   -0.691788   3.165182
H    1.309794    0.370356  -0.382657
H   -0.334094    0.390139  -0.650042
H    0.043801    1.078263   1.608560
C   -0.919050   -0.818871   1.828783
C   -0.734941   -2.341968   1.954077
C   -0.375014   -3.102871   0.670719
N    0.972971   -2.795178   0.188999
C    2.101461   -3.328635   0.669743
N    3.232705   -2.626295   0.625417
N    2.111802   -4.615455   1.131496
H   -1.795564   -0.609576   1.190107
H   -1.175349   -0.447894   2.830046
H   -1.678867   -2.765515   2.333083
H    0.032470   -2.539262   2.717269
H   -1.062241   -2.839306  -0.146164
H   -0.492859   -4.185738   0.822635
H    1.006091   -1.809083  -0.175807
H    4.080004   -3.094902   0.924466
H    2.781225   -4.843277   1.855535
H    1.228934   -5.104720   1.195531
O    2.645648   -0.190807   1.197632
H    3.135852   -1.553025   0.825420
