 26
Energy: -16507.64613415.7 eV PBE+vdW (tier 2 basis)
N   -0.337620   -0.358897  -0.854069
C   -0.158080    0.096064   0.524949
C    1.292338    0.439807   0.817779
O    1.651413    1.302450   1.592951
H   -1.322376   -0.561259  -1.027274
H    0.178950   -1.225214  -1.013325
H   -0.690554    1.053092   0.626601
C   -0.649886   -0.868607   1.641102
C   -2.171320   -1.033896   1.703280
C   -2.946862    0.247982   2.056796
N   -2.529261    0.911401   3.284055
C   -2.866277    0.384080   4.517580
N   -3.646342   -0.639578   4.606364
N   -2.244383    1.065593   5.575201
H   -0.284519   -0.506456   2.615130
H   -0.175505   -1.849213   1.480289
H   -2.413549   -1.797125   2.455139
H   -2.559013   -1.414347   0.743225
H   -4.008411   -0.004479   2.170644
H   -2.873429    0.990165   1.247831
H   -1.639016    1.397351   3.252514
H   -3.891928   -0.832894   5.579809
H   -2.609507    0.820301   6.488989
H   -2.173713    2.073153   5.455967
O    2.166983   -0.376850   0.168671
H    3.057769   -0.098247   0.456850
