 26
Energy: -16507.65351515.7 eV PBE+vdW (tier 2 basis)
N   -0.064043    0.195892  -0.428760
C    0.286103   -0.197170   0.945877
C    1.724969   -0.712763   0.995771
O    2.084200   -1.858248   0.822037
H    0.563119    0.927420  -0.764283
H    0.030493   -0.606717  -1.059217
H    0.232150    0.708918   1.568533
C   -0.688263   -1.250537   1.478063
C   -2.140708   -0.743456   1.593270
C   -3.155522   -1.499908   0.723944
N   -2.945513   -1.327364  -0.713766
C   -2.227120   -2.198045  -1.521505
N   -1.574533   -1.878445  -2.592662
N   -2.224183   -3.530863  -1.110197
H   -0.326310   -1.585834   2.459731
H   -0.630475   -2.135891   0.827634
H   -2.186428    0.324238   1.325418
H   -2.481762   -0.808559   2.637495
H   -4.172735   -1.157604   0.972521
H   -3.116776   -2.571152   0.957432
H   -2.767429   -0.359705  -0.970721
H   -1.576485   -0.863464  -2.729427
H   -3.111907   -3.885702  -0.767215
H   -1.824702   -4.121100  -1.833920
O    2.610252    0.312235   1.194951
H    3.499933   -0.088725   1.139205
