 26
Energy: -16507.53125215.7 eV PBE+vdW (tier 2 basis)
N   -0.207375    0.668552   0.394618
C    0.045407    0.000074   1.669194
C    1.512814   -0.403981   1.679879
O    2.110643   -0.857797   0.726573
H   -1.210015    0.730684   0.218011
H    0.208671    0.120876  -0.361438
H   -0.107466    0.720591   2.487422
C   -0.865122   -1.231920   1.939696
C   -0.681891   -1.929895   3.298418
C    0.282816   -3.114884   3.251161
N    0.507455   -3.631133   4.599830
C    1.397053   -4.669694   4.855693
N    2.129199   -4.611040   5.915862
N    1.405936   -5.671229   3.882997
H   -0.729406   -1.948723   1.113633
H   -1.897206   -0.859601   1.858137
H   -1.652056   -2.289530   3.669994
H   -0.323539   -1.198655   4.042003
H    1.231800   -2.830458   2.761968
H   -0.162436   -3.901641   2.622878
H    0.651769   -2.902235   5.295795
H    2.642265   -5.483584   6.067044
H    1.884762   -6.518785   4.165112
H    0.518293   -5.859168   3.425951
O    2.085001   -0.227237   2.900530
H    3.002811   -0.556234   2.824640
