 26
Energy: -16507.75227815.7 eV PBE+vdW (tier 2 basis)
N    0.199863    0.195554  -0.079313
C   -0.076736    0.211521   1.368023
C    1.179684    0.455726   2.236783
O    1.037033    0.910625   3.356473
H   -0.685671    0.181802  -0.588100
H    0.671439    1.058745  -0.355229
H   -0.735685    1.049528   1.655166
C   -0.796634   -1.077363   1.830391
C    0.027508   -2.373670   1.838196
C    0.223802   -3.064248   0.464139
N    1.551167   -3.635587   0.275901
C    2.649269   -2.809800   0.167214
N    2.632129   -1.589642  -0.279795
N    3.852547   -3.388304   0.535170
H   -1.705689   -1.204717   1.217408
H   -1.148156   -0.880209   2.852366
H   -0.446686   -3.085580   2.529634
H    1.018382   -2.164656   2.267315
H    0.039496   -2.348659  -0.347342
H   -0.503747   -3.874928   0.328140
H    1.711441   -4.574051   0.623689
H    1.712372   -1.335539  -0.655540
H    3.853884   -3.955592   1.376739
H    4.624971   -2.731745   0.485677
O    2.397137    0.180306   1.755631
H    2.441088   -0.402670   0.919171
