 26
Energy: -16507.63526915.7 eV PBE+vdW (tier 2 basis)
N    0.209213   -1.079558  -0.060621
C   -0.266424   -0.423742   1.159831
C    0.911004   -0.053452   2.050442
O    1.035174    0.996692   2.645626
H    0.638127   -1.978914   0.163188
H   -0.580011   -1.269445  -0.679215
H   -0.711144    0.535956   0.864305
C   -1.305526   -1.240429   1.978634
C   -1.793562   -0.617784   3.292895
C   -2.486668    0.746168   3.125811
N   -3.094417    1.263550   4.338733
C   -4.299325    0.777804   4.829288
N   -5.122418   -0.041749   4.269347
N   -4.597280    1.283097   6.100631
H   -0.869564   -2.230272   2.184556
H   -2.165562   -1.412968   1.310260
H   -0.952281   -0.501915   3.994471
H   -2.494118   -1.317867   3.771459
H   -3.269528    0.683224   2.352853
H   -1.765361    1.497934   2.778091
H   -2.442656    1.581801   5.049068
H   -4.738105   -0.437861   3.408982
H   -4.427324    2.279620   6.210289
H   -5.543357    1.028509   6.370089
O    1.806001   -1.073564   2.164326
H    2.506951   -0.753282   2.764454
