 26
Energy: -16507.79423615.7 eV PBE+vdW (tier 2 basis)
N   -1.044513   -0.616901   1.031239
C   -0.029966   -0.112334   1.979774
C    1.372462   -0.225564   1.329533
O    2.377197    0.220919   1.840311
H   -1.555255    0.145964   0.591510
H    0.375922   -1.092975   0.045281
H   -0.178246    0.957306   2.193557
C   -0.037923   -0.869038   3.318141
C    0.300375   -2.365131   3.196608
C   -0.360398   -3.240520   4.269888
N   -1.835816   -3.185600   4.263065
C   -2.533585   -3.315308   3.057618
N   -3.477644   -2.543807   2.622490
N   -2.115149   -4.379124   2.275453
H   -1.038437   -0.732594   3.758274
H    0.673998   -0.374429   3.992378
H    1.390243   -2.505003   3.240290
H   -0.013742   -2.754968   2.217451
H   -0.045731   -2.938535   5.278889
H   -0.031418   -4.282470   4.147342
H   -2.200852   -2.408853   4.805292
H   -3.603209   -1.736876   3.240419
H   -2.730678   -4.549303   1.487402
H   -1.832638   -5.218073   2.770351
O    1.354805   -0.886147   0.160387
H   -1.735494   -1.234787   1.466777
