 26
Energy: -16507.63941915.7 eV PBE+vdW (tier 2 basis)
N    0.740396   -1.025645   0.064373
C    0.159524   -0.482485   1.292809
C    0.873874    0.790151   1.757508
O    2.073384    0.903347   1.908853
H    0.654922   -0.354467  -0.699933
H    1.740957   -1.184987   0.201484
H   -0.890348   -0.226936   1.088690
C    0.215357   -1.543904   2.403138
C   -0.434597   -1.109622   3.718408
C   -0.390561   -2.180014   4.819255
N   -1.158237   -3.391975   4.534549
C   -0.675571   -4.483856   3.815712
N   -1.358377   -5.255215   3.038896
N    0.684756   -4.737063   3.994278
H    1.269591   -1.810067   2.580650
H   -0.271049   -2.443914   2.002576
H   -1.484193   -0.818004   3.541166
H    0.064302   -0.209634   4.114633
H   -0.772228   -1.750044   5.757690
H    0.651298   -2.467975   5.008086
H   -2.144057   -3.224998   4.356531
H   -2.296258   -4.880039   2.871033
H    1.018114   -4.666537   4.951706
H    0.936676   -5.620603   3.560927
O    0.006034    1.819806   1.981362
H    0.553987    2.576024   2.272354
