 26
Energy: -16507.72458915.7 eV PBE+vdW (tier 2 basis)
N    0.954952    0.219056   0.242663
C    0.779152   -0.339853   1.585961
C    1.847628   -1.383919   1.901369
O    2.115352   -2.345811   1.201600
H    0.943822   -0.535865  -0.446756
H    1.863190    0.677733   0.159107
H    0.884592    0.480084   2.310584
C   -0.635081   -0.936236   1.703845
C   -1.048750   -1.437837   3.094390
C   -0.636461   -2.878998   3.427662
N   -1.216232   -3.835605   2.490277
C   -0.617053   -5.048912   2.161356
N   -1.377737   -6.084218   2.026217
N    0.768479   -4.996961   2.027540
H   -0.740733   -1.759035   0.978624
H   -1.312395   -0.137056   1.373815
H   -2.145301   -1.372546   3.170952
H   -0.656684   -0.770950   3.879156
H   -0.940979   -3.104675   4.466549
H    0.452207   -2.998286   3.406996
H   -2.214728   -3.990249   2.609977
H   -0.858897   -6.877447   1.640093
H    1.170881   -5.841055   1.637406
H    1.162527   -4.149721   1.617422
O    2.507770   -1.123418   3.060449
H    3.163842   -1.840556   3.173748
