 26
Energy: -16507.70175515.7 eV PBE+vdW (tier 2 basis)
N   -0.203534    0.064228   0.031314
C    0.006634   -0.046295   1.469641
C    1.485474   -0.152075   1.860287
O    2.390970   -0.452648   1.110463
H    0.410627   -0.590861  -0.456762
H    0.078039    0.990245  -0.290661
H   -0.386255    0.863658   1.946561
C   -0.778892   -1.239060   2.064247
C   -0.344849   -2.608957   1.539112
C   -1.154400   -3.742269   2.165490
N   -0.737563   -5.028426   1.634594
C   -1.389938   -6.200497   2.002915
N   -2.454424   -6.328299   2.716817
N   -0.749215   -7.341021   1.505216
H   -1.837101   -1.067563   1.819032
H   -0.686744   -1.210190   3.160204
H    0.726466   -2.770868   1.748395
H   -0.465426   -2.652826   0.446318
H   -2.221889   -3.602876   1.932251
H   -1.059760   -3.701545   3.268956
H    0.265610   -5.134155   1.509509
H   -2.738818   -5.438544   3.132287
H   -1.311882   -8.169637   1.675912
H   -0.457715   -7.271230   0.533691
O    1.680844    0.111282   3.183071
H    2.637453   -0.005091   3.346323
