 26
Energy: -16507.47860015.7 eV PBE+vdW (tier 2 basis)
N    0.310324    0.270326   0.250562
C    0.143728    0.057476   1.699162
C    1.495973   -0.409192   2.240941
O    1.736480   -1.457688   2.797376
H    1.053940    0.946826   0.075824
H   -0.548822    0.663001  -0.135284
H   -0.088508    0.995740   2.248774
C   -0.979142   -0.956552   1.957967
C   -1.724764   -0.787110   3.287475
C   -0.905301   -1.087839   4.542784
N   -1.735343   -0.949161   5.729732
C   -1.256726   -0.951949   7.033248
N   -1.971035   -0.949222   8.109491
N    0.130060   -0.861303   7.143820
H   -0.571933   -1.973334   1.866282
H   -1.709513   -0.842431   1.143547
H   -2.599260   -1.458900   3.272047
H   -2.125357    0.236988   3.364338
H   -0.072688   -0.375610   4.631808
H   -0.456692   -2.095486   4.449378
H   -2.692094   -1.272194   5.642266
H   -2.969154   -0.881799   7.892584
H    0.417130   -0.968991   8.111716
H    0.676610   -1.428151   6.502556
O    2.451669    0.538366   2.017236
H    3.288104    0.168412   2.360395
