 26
Energy: -16507.73504215.7 eV PBE+vdW (tier 2 basis)
N   -0.299800    1.190140   0.259869
C   -0.004911    0.246259   1.334190
C    1.373234   -0.403707   1.201142
O    1.983778   -0.546247   0.161664
H   -0.060160    0.755330  -0.634577
H    0.301346    2.010941   0.337992
H   -0.024106    0.789543   2.291736
C   -1.070554   -0.871395   1.382912
C   -2.452712   -0.342768   1.768147
C   -3.573216   -1.386816   1.680309
N   -3.835584   -1.873045   0.332275
C   -3.324433   -3.076146  -0.116777
N   -2.679157   -3.867357   0.671313
N   -3.568291   -3.271065  -1.487876
H   -0.757167   -1.654151   2.087510
H   -1.105712   -1.351012   0.392384
H   -2.696509    0.522235   1.131308
H   -2.426392    0.036754   2.803419
H   -4.501841   -0.951658   2.081743
H   -3.330144   -2.272041   2.281308
H   -3.950907   -1.162045  -0.382622
H   -2.467318   -4.754481   0.210076
H   -3.360782   -4.212267  -1.804244
H   -4.486964   -2.967610  -1.802739
O    1.849246   -0.841547   2.401213
H    2.699598   -1.283862   2.210515
