 26
Energy: -16507.82119415.7 eV PBE+vdW (tier 2 basis)
N    0.240144    0.160612   0.219197
C    0.091225   -0.166284   1.637673
C    1.400124   -0.212385   2.436645
O    2.429031   -0.708086   2.008512
H    0.528534    1.135370   0.120895
H    1.013229   -0.396297  -0.156571
H   -0.550366    0.595029   2.100974
C   -0.595882   -1.564650   1.752455
C   -0.270470   -2.434287   2.978336
C   -0.782971   -1.927426   4.337800
N   -0.213177   -2.654171   5.472332
C    1.043117   -2.423174   5.974221
N    1.799975   -1.443828   5.577496
N    1.423543   -3.369864   6.928148
H   -0.282552   -2.130114   0.862697
H   -1.681609   -1.419038   1.649572
H    0.819180   -2.570449   3.043747
H   -0.686610   -3.439227   2.800856
H   -1.875964   -2.031727   4.401662
H   -0.551105   -0.866580   4.475295
H   -0.528210   -3.612864   5.577224
H    2.652852   -1.375403   6.132525
H    2.273030   -3.142059   7.432206
H    0.684246   -3.688321   7.548014
O    1.231946    0.272051   3.677162
H    1.663267   -0.343423   4.389903
