 26
Energy: -16507.63759715.7 eV PBE+vdW (tier 2 basis)
N   -0.347775    0.342197   0.259095
C    0.067427    0.072772   1.630247
C    1.566616   -0.207719   1.763299
O    2.277455   -0.641836   0.881119
H    0.081433   -0.347084  -0.362809
H    0.002851    1.250469  -0.044990
H   -0.161359    0.956343   2.245434
C   -0.708185   -1.132589   2.208847
C   -2.208933   -0.867305   2.324500
C   -2.982926   -2.099637   2.784810
N   -4.405748   -1.786793   2.902151
C   -5.354481   -2.741704   3.247439
N   -6.513217   -2.698386   2.682707
N   -4.911540   -3.682204   4.182114
H   -0.290418   -1.386549   3.194879
H   -0.525238   -2.001694   1.554994
H   -2.585929   -0.532779   1.346181
H   -2.389974   -0.043941   3.033791
H   -2.597195   -2.422613   3.764592
H   -2.803904   -2.938761   2.085200
H   -4.769041   -1.223374   2.136255
H   -7.163379   -3.364520   3.107891
H   -4.252014   -3.342331   4.876440
H   -5.656829   -4.231066   4.595495
O    2.027451    0.063386   3.017370
H    2.973637   -0.182045   3.018991
