 26
Energy: -16507.58553315.7 eV PBE+vdW (tier 2 basis)
N    0.401718    0.482108   0.394283
C    0.225838    0.019757   1.770568
C    1.516895   -0.681462   2.177039
O    2.100960   -1.474175   1.467816
H   -0.501265    0.682411  -0.035668
H    0.844987   -0.262169  -0.149068
H    0.073636    0.888861   2.429315
C   -0.963344   -0.972155   1.949821
C   -1.510896   -1.235768   3.362734
C   -0.603393   -1.958694   4.373503
N   -0.033266   -3.187413   3.842079
C    1.231248   -3.703206   4.041368
N    1.708974   -4.793120   3.550481
N    2.100031   -2.901616   4.821080
H   -0.687648   -1.918313   1.458891
H   -1.794289   -0.553172   1.360517
H   -2.439291   -1.819808   3.247773
H   -1.819055   -0.285078   3.826816
H   -1.197194   -2.155074   5.285580
H    0.219000   -1.296418   4.658635
H   -0.668659   -3.819006   3.369122
H    1.058339   -5.234642   2.895186
H    2.944568   -3.444811   4.993133
H    1.694918   -2.581678   5.699972
O    1.899246   -0.375639   3.438695
H    2.468509   -1.120296   3.758110
