 26
Energy: -16507.71276415.7 eV PBE+vdW (tier 2 basis)
N   -0.701516   -0.194493   0.100596
C   -0.676064   -0.069501   1.573417
C    0.760005    0.276718   2.027467
O    1.682519    0.099247   1.060418
H   -0.981108    0.682163  -0.337997
H    1.135434   -0.154827   0.263662
H   -1.313791    0.758025   1.920660
C   -1.145664   -1.347496   2.300721
C   -0.207156   -2.563495   2.282438
C   -0.029948   -3.256726   0.920247
N    0.739257   -4.484976   0.962944
C    2.133472   -4.486929   0.974094
N    2.945363   -3.495657   0.864789
N    2.645038   -5.782104   1.127953
H   -1.308558   -1.063883   3.348851
H   -2.136810   -1.622057   1.899734
H   -0.614713   -3.304371   2.988526
H    0.778284   -2.283540   2.684087
H    0.460452   -2.589699   0.197832
H   -1.019804   -3.496482   0.496523
H    0.318038   -5.250942   1.480273
H    2.479580   -2.587371   0.921884
H    3.655772   -5.777677   1.022698
H    2.204079   -6.482867   0.537394
O    1.029098    0.639223   3.149842
H   -1.359853   -0.908406  -0.207652
