 26
Energy: -16507.61558815.7 eV PBE+vdW (tier 2 basis)
N    0.208586   -0.556004  -0.031393
C   -0.540667   -0.311979   1.208823
C   -0.073731    0.962891   1.913732
O   -0.693462    2.004147   1.972548
H    1.206133   -0.648182   0.168177
H    0.102886    0.229207  -0.674811
H   -1.586215   -0.119274   0.930621
C   -0.476346   -1.545125   2.115835
C   -1.300818   -1.415369   3.397802
C   -1.207382   -2.670566   4.274592
N   -1.986818   -2.613463   5.511637
C   -3.383160   -2.593718   5.521741
N   -4.139379   -1.957654   6.349455
N   -3.972512   -3.364704   4.519695
H    0.577779   -1.750775   2.364449
H   -0.831486   -2.397323   1.516854
H   -2.357925   -1.233093   3.150680
H   -0.961268   -0.546789   3.985788
H   -0.160720   -2.855660   4.559931
H   -1.520603   -3.549734   3.693962
H   -1.600192   -1.982552   6.207205
H   -3.596014   -1.318479   6.936291
H   -3.535859   -4.266036   4.348672
H   -4.973662   -3.440387   4.673520
O    1.182608    0.829282   2.442547
H    1.408138    1.704275   2.812996
