 26
Energy: -16507.70513415.7 eV PBE+vdW (tier 2 basis)
N    0.372821   -0.641117  -0.362227
C    0.333141   -0.423565   1.097940
C    1.772205   -0.150999   1.606164
O    2.070672   -0.126387   2.779085
H    0.394420   -1.637465  -0.584570
H   -0.439066   -0.243608  -0.829938
H   -0.209824    0.520608   1.271829
C   -0.332887   -1.529231   1.922782
C   -1.822204   -1.715628   1.639494
C   -2.482390   -2.767905   2.540684
N   -2.529108   -2.379424   3.949457
C   -2.010129   -3.140077   4.995410
N   -2.481966   -3.218979   6.193001
N   -0.866599   -3.868502   4.662956
H   -0.180993   -1.280059   2.982590
H    0.206144   -2.476399   1.739850
H   -1.983725   -2.016368   0.590878
H   -2.345399   -0.753035   1.769240
H   -1.939774   -3.720477   2.472251
H   -3.505521   -2.963494   2.179927
H   -3.354531   -1.858174   4.222433
H   -3.400704   -2.772219   6.262974
H   -0.484633   -4.312711   5.493138
H   -0.158309   -3.350108   4.149517
O    2.649176    0.082304   0.612825
H    2.098369   -0.034542  -0.212843
