 26
Energy: -16507.55491015.7 eV PBE+vdW (tier 2 basis)
N    0.207929   -0.506703   0.161033
C    0.166342   -0.129464   1.572886
C    1.557076    0.081735   2.174688
O    2.592706   -0.345708   1.708223
H    0.376225    0.322324  -0.409302
H    1.013296   -1.114983  -0.002831
H   -0.370310    0.827121   1.651145
C   -0.628913   -1.143342   2.438411
C    0.056465   -2.465360   2.806779
C    0.391412   -3.395390   1.638739
N    0.754929   -4.710737   2.144964
C    1.150075   -5.766953   1.337510
N    1.917315   -6.673152   1.844301
N    0.577743   -5.783145   0.064455
H   -1.560128   -1.343820   1.888904
H   -0.908588   -0.638258   3.373744
H   -0.617201   -3.012197   3.484486
H    0.974827   -2.267342   3.385037
H    1.203385   -2.958024   1.026606
H   -0.499193   -3.480924   0.995524
H    1.292754   -4.717380   3.007499
H    2.061207   -7.448882   1.193629
H    1.060626   -6.372657  -0.602283
H    0.286009   -4.896297  -0.332201
O    1.507221    0.786300   3.338825
H    2.426447    0.837174   3.667533
