 26
Energy: -16507.66213915.7 eV PBE+vdW (tier 2 basis)
N   -1.089584    0.293261   0.077069
C   -0.569797    0.023488   1.417573
C    0.944363    0.186140   1.482098
O    1.664248   -0.282177   2.344115
H   -0.753508    1.188419  -0.274811
H   -2.108178    0.337451   0.105554
H   -0.904676    0.770232   2.173635
C   -1.048347   -1.345767   1.941785
C   -0.887580   -2.540062   0.991755
C    0.557402   -2.950732   0.666240
N    1.401362   -3.261726   1.820490
C    1.116583   -4.299282   2.702992
N    1.332775   -4.309068   3.975499
N    0.545970   -5.426903   2.106957
H   -2.116991   -1.241216   2.185056
H   -0.544221   -1.541560   2.898288
H   -1.400227   -2.331139   0.041443
H   -1.396268   -3.402177   1.447561
H    1.067591   -2.155273   0.103450
H    0.530768   -3.813403  -0.014940
H    1.735140   -2.428257   2.300456
H    1.623045   -3.383387   4.303282
H    0.531077   -6.203211   2.761796
H    0.939726   -5.685653   1.206723
O    1.425823    1.003564   0.508466
H    2.383994    1.089169   0.679922
