 26
Energy: -16507.59066015.7 eV PBE+vdW (tier 2 basis)
N   -0.671202   -0.818091   0.024814
C   -0.226103   -0.162285   1.249617
C    1.277861    0.134127   1.257386
O    2.090106   -0.346502   0.494815
H    0.048734   -1.472104  -0.290280
H   -0.756648   -0.131184  -0.724025
H   -0.743654    0.804407   1.335994
C   -0.605208   -0.986254   2.504382
C    0.046009   -2.371486   2.560149
C   -0.373764   -3.202118   3.774149
N    0.146968   -2.636407   5.008465
C   -0.106303   -3.144559   6.271718
N   -0.008245   -2.348873   7.284005
N   -0.351055   -4.518815   6.317872
H   -1.699451   -1.096154   2.491073
H   -0.348515   -0.389083   3.391805
H    1.144494   -2.287264   2.554476
H   -0.235851   -2.935228   1.658939
H    0.031878   -4.218639   3.645973
H   -1.480332   -3.287448   3.786307
H    0.215418   -1.624392   5.048556
H   -0.125775   -2.849712   8.167683
H   -0.789812   -4.833459   7.174663
H   -0.749721   -4.951895   5.491635
O    1.619199    0.996502   2.253940
H    2.590022    1.099758   2.208587
