 26
Energy: -16507.72386715.7 eV PBE+vdW (tier 2 basis)
N   -0.629721   -0.156277  -1.386912
C   -1.094002    0.136233  -0.028451
C   -0.195213    1.082693   0.763409
O   -0.566260    2.038911   1.413933
H    0.332714   -0.497208  -1.371608
H   -0.635507    0.691081  -1.954553
H   -2.073243    0.629525  -0.105685
C   -1.287611   -1.186640   0.739532
C   -1.751861   -1.050397   2.194059
C   -3.134009   -0.411245   2.403145
N   -4.240148   -1.169481   1.836364
C   -4.816041   -0.845147   0.624938
N   -4.449489    0.199819  -0.036945
N   -5.779268   -1.790803   0.230878
H   -0.339228   -1.747005   0.720053
H   -2.010565   -1.772367   0.153882
H   -1.024364   -0.461028   2.775533
H   -1.749705   -2.053237   2.653057
H   -3.177515    0.589568   1.958031
H   -3.308396   -0.295205   3.484055
H   -4.291681   -2.150396   2.089365
H   -5.048168    0.350962  -0.850885
H   -6.326451   -1.497708  -0.571385
H   -6.375089   -2.128277   0.983345
O    1.128125    0.732385   0.686419
H    1.604597    1.388442   1.230434
