 26
Energy: -16507.68331615.7 eV PBE+vdW (tier 2 basis)
N    0.091065    0.695249   0.104693
C   -0.433728    0.493341   1.462367
C    0.684151    0.446698   2.504969
O    0.916798    1.303601   3.332358
H    0.721393   -0.067465  -0.148905
H    0.630743    1.560017   0.052957
H   -1.031000    1.378652   1.721464
C   -1.327935   -0.750054   1.505281
C   -1.984266   -0.994687   2.865005
C   -2.865685   -2.249996   2.855565
N   -3.545116   -2.523905   4.113760
C   -4.700066   -1.835578   4.446292
N   -5.253277   -1.026097   3.609488
N   -5.121841   -2.117284   5.756770
H   -0.731254   -1.628798   1.209160
H   -2.097798   -0.614555   0.731221
H   -2.607953   -0.132745   3.143503
H   -1.213257   -1.101150   3.646817
H   -2.262386   -3.134802   2.599467
H   -3.646805   -2.145123   2.091523
H   -2.943006   -2.740621   4.901796
H   -6.156566   -0.695749   3.956186
H   -5.029204   -3.092287   6.031844
H   -6.044666   -1.755207   5.971887
O    1.463471   -0.672756   2.377242
H    2.170069   -0.578895   3.044610
