 26
Energy: -16507.62778915.7 eV PBE+vdW (tier 2 basis)
N   -0.363623    0.183628   0.052358
C   -0.208936    0.007543   1.504447
C    1.175238    0.492445   1.950889
O    2.167963   -0.198880   2.088813
H    0.368285   -0.327195  -0.445348
H   -0.278463    1.166696  -0.207571
H   -0.963557    0.641982   1.993111
C   -0.414699   -1.455006   1.889117
C   -0.351137   -1.701683   3.402258
C    0.152509   -3.115145   3.752901
N    0.612400   -3.281215   5.118879
C    1.829605   -2.804456   5.599618
N    2.192345   -2.781638   6.840360
N    2.745122   -2.421581   4.625159
H    0.371567   -2.047256   1.392720
H   -1.372879   -1.783743   1.465184
H   -1.333473   -1.525637   3.866583
H    0.333753   -0.978949   3.871028
H    0.984433   -3.381464   3.084104
H   -0.635324   -3.859576   3.564491
H   -0.101728   -3.367342   5.831737
H    1.484830   -3.212029   7.442123
H    3.575548   -2.025409   5.052973
H    2.417887   -1.883725   3.826619
O    1.201562    1.844175   2.112496
H    2.126828    2.078472   2.324008
