 26
Energy: -16507.81741415.7 eV PBE+vdW (tier 2 basis)
N   -0.995963   -0.190156  -0.003236
C   -0.395422   -0.375036   1.334987
C    0.801423   -1.349320   1.198238
O    1.192697   -1.531964  -0.069532
H   -1.333581    0.761323  -0.134089
H    0.517470   -1.005203  -0.591483
H    0.065071    0.586608   1.614677
C   -1.340635   -0.804410   2.461141
C   -1.970217   -2.185554   2.258796
C   -2.599079   -2.756852   3.539097
N   -1.732999   -2.721544   4.725206
C   -0.799979   -3.731396   4.993833
N   -0.818151   -4.274137   6.165105
N    0.035994   -4.039574   3.926187
H   -2.120782   -0.036504   2.583728
H   -0.769077   -0.819322   3.399279
H   -1.214519   -2.894811   1.891012
H   -2.763089   -2.158560   1.492829
H   -2.955167   -3.780953   3.330520
H   -3.483419   -2.156643   3.797711
H   -2.257223   -2.562355   5.581273
H   -0.000675   -4.875030   6.305876
H    0.411522   -3.250176   3.396134
H    0.755758   -4.716352   4.155165
O    1.352837   -1.878643   2.143725
H   -1.790749   -0.816515  -0.137122
