 26
Energy: -16507.89201015.7 eV PBE+vdW (tier 2 basis)
N   -0.195900    0.988621  -1.258453
C   -0.191976    0.276759   0.017812
C    1.001525    0.746215   0.840122
O    2.133521    0.774593   0.358820
H    0.754251    0.982882  -1.637183
H   -0.798005    0.515846  -1.933446
H   -1.111680    0.517442   0.570570
C   -0.080776   -1.272941  -0.131464
C    0.010378   -2.127578   1.155480
C    1.412958   -2.672652   1.505223
N    2.372692   -1.705367   2.039353
C    2.418854   -1.316507   3.356954
N    2.519258   -0.045530   3.638021
N    2.420884   -2.321173   4.297102
H    0.790848   -1.474058  -0.775640
H   -0.965646   -1.585409  -0.706482
H   -0.636762   -3.009857   1.034870
H   -0.390136   -1.573858   2.018790
H    1.862457   -3.125461   0.608494
H    1.297540   -3.488944   2.231731
H    2.593223   -0.926583   1.413200
H    2.752637    0.134542   4.614960
H    2.069767   -2.121398   5.222764
H    2.402420   -3.287630   4.001617
O    0.709617    0.970141   2.111249
H    1.557053    0.789905   2.720535
