 26
Energy: -16507.84462315.7 eV PBE+vdW (tier 2 basis)
N   -0.170691   -0.196919  -0.226380
C   -0.277727    0.150469   1.189096
C    1.101246    0.584472   1.678228
O    2.120590   -0.004725   1.350553
H    0.715630   -0.687006  -0.370461
H   -0.922785   -0.827298  -0.504686
H   -0.976912    0.991935   1.313633
C   -0.749456   -1.039447   2.081289
C   -1.228819   -0.773982   3.519577
C   -0.206562   -0.320691   4.578565
N    1.013750   -1.117658   4.595001
C    2.281239   -0.607183   4.654671
N    2.520242    0.667567   4.526956
N    3.264149   -1.563896   4.903102
H    0.053430   -1.793705   2.080373
H   -1.598413   -1.496515   1.547748
H   -1.704300   -1.704728   3.872197
H   -2.032361   -0.020066   3.511408
H   -0.690453   -0.363075   5.569135
H    0.089314    0.716724   4.414833
H    0.914982   -2.093061   4.849260
H    3.521106    0.860941   4.563089
H    4.191382   -1.278443   4.606471
H    3.052346   -2.505050   4.583654
O    1.049765    1.581698   2.565758
H    1.779875    1.405351   3.283382
