 26
Energy: -16507.79338815.7 eV PBE+vdW (tier 2 basis)
N   -0.013510    0.622678   0.303322
C    0.193258   -0.006446   1.623830
C    1.531900   -0.743565   1.617668
O    2.600152   -0.222404   1.890909
H    0.787128    1.211099   0.066674
H   -0.074570   -0.096529  -0.420733
H    0.310924    0.809527   2.351732
C   -1.044146   -0.840193   1.978963
C   -1.232049   -1.246618   3.448162
C   -0.262343   -2.292625   4.005494
N    1.057716   -1.735481   4.225055
C    2.213199   -2.505350   4.265948
N    2.329256   -3.776292   4.072631
N    3.343134   -1.727954   4.530899
H   -1.072556   -1.738428   1.342510
H   -1.903979   -0.221753   1.682223
H   -2.248833   -1.653873   3.553100
H   -1.209140   -0.348882   4.090253
H   -0.161195   -3.115206   3.281815
H   -0.681659   -2.728535   4.931573
H    1.098352   -0.880829   4.771800
H    1.416858   -4.236648   4.036448
H    4.182627   -2.298117   4.476168
H    3.411444   -0.900586   3.938075
O    1.435492   -2.011146   1.134733
H    2.334055   -2.394566   1.168366
