 26
Energy: -16507.71207515.7 eV PBE+vdW (tier 2 basis)
N    1.062209   -0.807500  -0.470612
C    0.043902   -0.452809   0.508738
C    0.481328    0.336395   1.743173
O   -0.279465    0.966912   2.458279
H    1.776722   -1.400513  -0.046918
H    1.540184    0.021823  -0.823262
H   -0.673271    0.215854   0.008303
C   -0.722502   -1.723142   0.986662
C   -2.143542   -1.852875   0.431107
C   -3.096700   -0.711301   0.838271
N   -3.086988   -0.357417   2.248347
C   -3.652527   -1.186685   3.191441
N   -4.329667   -2.230022   2.840691
N   -3.368293   -0.778363   4.505996
H   -0.766751   -1.751418   2.084783
H   -0.127478   -2.593957   0.677658
H   -2.569684   -2.800655   0.786782
H   -2.112474   -1.901974  -0.669145
H   -4.121335   -0.995953   0.566392
H   -2.858207    0.208589   0.283512
H   -2.289636    0.199943   2.550758
H   -4.758681   -2.679014   3.652995
H   -3.968973   -1.206829   5.201871
H   -3.301945    0.228234   4.636341
O    1.812406    0.256626   2.001223
H    1.955892    0.763319   2.824696
