 26
Energy: -16507.70766415.7 eV PBE+vdW (tier 2 basis)
N    1.460419   -1.764897   0.397546
C    0.892186   -0.568487   1.003534
C    1.761199    0.024059   2.115988
O    2.556283   -0.598667   2.788338
H    1.767058   -2.404155   1.134554
H    2.297789   -1.528700  -0.134790
H    0.791131    0.201881   0.224912
C   -0.506584   -0.866385   1.596661
C   -1.512228   -1.414681   0.580297
C   -1.878351   -0.420340  -0.520042
N   -2.907631   -0.971127  -1.382960
C   -3.341276   -0.286478  -2.512068
N   -2.872765    0.805800  -3.009448
N   -4.428958   -0.916902  -3.128251
H   -0.895820    0.052234   2.061089
H   -0.381092   -1.599369   2.409278
H   -2.426433   -1.697556   1.128272
H   -1.111960   -2.328819   0.121296
H   -0.995193   -0.210977  -1.143088
H   -2.190533    0.542521  -0.067049
H   -3.637394   -1.491506  -0.904051
H   -2.182145    1.234872  -2.389579
H   -4.643978   -0.469861  -4.015028
H   -4.332601   -1.924617  -3.223523
O    1.523018    1.354085   2.293673
H    2.085617    1.635382   3.041885
