 26
Energy: -16507.70048015.7 eV PBE+vdW (tier 2 basis)
N    0.163173   -0.230986   0.177787
C   -0.223809   -0.266292   1.583785
C    1.037088   -0.247702   2.434552
O    2.154726   -0.014147   2.024700
H   -0.524648    0.271776  -0.378715
H    1.067217    0.230687   0.075117
H   -0.748679    0.656595   1.913327
C   -1.201245   -1.431645   1.875206
C   -0.737513   -2.825708   1.438276
C    0.405735   -3.441807   2.263883
N    0.153824   -3.578860   3.689374
C   -0.669419   -4.571023   4.203789
N   -1.190919   -5.582490   3.598245
N   -0.930383   -4.386539   5.569090
H   -2.130203   -1.195127   1.334566
H   -1.470135   -1.420060   2.941435
H   -0.414786   -2.780272   0.388117
H   -1.608093   -3.496735   1.479291
H    1.327194   -2.853808   2.145493
H    0.645536   -4.437771   1.863018
H    0.140296   -2.704537   4.205968
H   -1.036443   -5.541464   2.588749
H   -0.114207   -4.137065   6.122110
H   -1.407041   -5.200053   5.948428
O    0.779596   -0.454388   3.761551
H    1.640032   -0.344117   4.211203
