 26
Energy: -16507.77815115.7 eV PBE+vdW (tier 2 basis)
N    0.403380   -0.474909   3.313730
C    0.203765   -1.544264   2.319790
C    1.150885   -1.315128   1.119048
O    1.079070   -1.933463   0.080099
H    0.256983   -0.840925   4.258099
H    1.861827   -0.069193   2.287618
H    0.581093   -2.470547   2.784457
C   -1.244440   -1.768214   1.854201
C   -2.209466   -2.090678   2.999936
C   -1.939965   -3.441358   3.694347
N   -2.322814   -3.484055   5.105827
C   -1.701366   -2.680624   6.052194
N   -2.406585   -2.138570   6.982460
N   -0.310230   -2.530670   5.859415
H   -1.240936   -2.564515   1.096157
H   -1.587512   -0.860312   1.331779
H   -3.242995   -2.071437   2.624762
H   -2.155397   -1.296906   3.761106
H   -0.876591   -3.706759   3.615012
H   -2.476951   -4.252478   3.184937
H   -3.326565   -3.475992   5.272510
H   -1.821948   -1.695143   7.695932
H    0.151639   -2.169690   6.689330
H    0.155555   -3.375995   5.532702
O    2.088054   -0.380018   1.363118
H   -0.267490    0.282842   3.173435
