 26
Energy: -16507.81008215.7 eV PBE+vdW (tier 2 basis)
N    0.426113   -0.569698  -0.245734
C    0.214366    0.118143   1.026872
C    1.533381    0.542936   1.678377
O    2.604789    0.005013   1.493391
H    1.150025   -1.283166  -0.124261
H    0.793362    0.080643  -0.941648
H   -0.372513    1.029111   0.835959
C   -0.568228   -0.751579   2.039199
C   -2.060698   -0.988917   1.726277
C   -2.413897   -2.237392   0.913756
N   -2.051203   -2.114425  -0.482493
C   -2.296422   -3.152729  -1.363331
N   -2.947204   -4.249264  -1.157271
N   -1.726090   -2.928656  -2.624713
H   -0.494828   -0.252083   3.015374
H   -0.044819   -1.715868   2.149600
H   -2.488031   -0.100791   1.233634
H   -2.585124   -1.083940   2.688074
H   -1.937234   -3.119991   1.389944
H   -3.501852   -2.399001   0.984194
H   -1.183654   -1.581348  -0.644164
H   -3.200864   -4.352453  -0.172249
H   -2.065738   -3.612317  -3.295190
H   -1.825902   -1.975995  -2.964684
O    1.367316    1.597123   2.523395
H    2.243080    1.771152   2.921218
