 26
Energy: -16507.58918115.7 eV PBE+vdW (tier 2 basis)
N   -0.117081    0.638010   0.092521
C    0.028475    0.264542   1.508167
C    1.524338    0.118070   1.791955
O    2.094135   -0.863211   2.215832
H   -1.105951    0.749208  -0.132109
H    0.340445    1.530756  -0.091163
H   -0.328220    1.054543   2.205611
C   -0.739043   -1.027081   1.793975
C   -0.868785   -1.354697   3.283182
C   -1.568575   -2.689093   3.579439
N   -0.897096   -3.859126   3.041676
C   -1.266232   -4.481487   1.854667
N   -2.278319   -4.247531   1.091652
N   -0.364168   -5.489372   1.494648
H   -0.252810   -1.850897   1.254457
H   -1.744191   -0.919113   1.354247
H   -1.429196   -0.556877   3.799058
H    0.131697   -1.376282   3.741548
H   -2.596706   -2.684337   3.189504
H   -1.660528   -2.807161   4.670789
H    0.094029   -3.924280   3.255060
H   -2.784639   -3.406520   1.375185
H   -0.718477   -6.019172   0.703688
H   -0.071546   -6.091929   2.259342
O    2.181505    1.281220   1.510886
H    3.125989    1.107674   1.689888
