 26
Energy: -16507.68015315.7 eV PBE+vdW (tier 2 basis)
N    0.539585   -0.878847   0.240251
C    0.158690   -0.297441   1.529032
C    1.315813    0.128686   2.433254
O    1.346057    1.139646   3.103737
H    1.152140   -1.682296   0.389188
H    1.067464   -0.206864  -0.316619
H   -0.401814    0.628545   1.332453
C   -0.748593   -1.271320   2.308716
C   -2.112181   -1.458331   1.640902
C   -2.971251   -2.565903   2.263907
N   -2.432370   -3.908473   2.092640
C   -1.730417   -4.545958   3.097407
N   -1.599752   -4.015819   4.265751
N   -1.182334   -5.766416   2.661799
H   -0.881859   -0.906990   3.337436
H   -0.226941   -2.236742   2.396309
H   -1.963837   -1.663050   0.568581
H   -2.681310   -0.515652   1.697335
H   -3.977506   -2.534535   1.817572
H   -3.079095   -2.415464   3.345440
H   -2.160671   -4.162915   1.148685
H   -1.150970   -4.663360   4.916802
H   -0.815017   -6.333761   3.418397
H   -1.791257   -6.310195   2.054347
O    2.337683   -0.779522   2.432038
H    2.997768   -0.434875   3.063788
