 26
Energy: -16507.71671315.7 eV PBE+vdW (tier 2 basis)
N    0.039656   -0.268737   0.170862
C   -0.181660   -0.125589   1.605360
C    1.107821   -0.183693   2.427364
O    2.141111   -0.717475   2.081075
H    0.614279   -1.097891   0.003000
H    0.581631    0.520073  -0.183031
H   -0.643101    0.857687   1.788864
C   -1.143908   -1.215628   2.123860
C   -2.541383   -1.109365   1.513277
C   -3.486395   -2.223273   1.973252
N   -3.762165   -2.201287   3.408035
C   -3.241001   -3.160945   4.255452
N   -2.399490   -4.039124   3.828934
N   -3.766384   -3.058862   5.556267
H   -1.208036   -1.146723   3.218754
H   -0.712030   -2.205058   1.904007
H   -2.463928   -1.143297   0.416816
H   -2.979524   -0.128963   1.766655
H   -3.056716   -3.207181   1.739196
H   -4.441976   -2.139337   1.434836
H   -4.660384   -1.826650   3.687550
H   -2.052296   -4.621784   4.593298
H   -3.265390   -3.619957   6.236932
H   -3.893660   -2.105160   5.887324
O    0.968479    0.429076   3.639563
H    1.819859    0.303245   4.102466
