 26
Energy: -16507.74015715.7 eV PBE+vdW (tier 2 basis)
N    0.362810    1.154821   0.724939
C    0.591443    0.333399   1.915663
C    1.930770   -0.378541   1.827935
O    2.679988   -0.585278   2.766473
H   -0.476380    1.718227   0.864505
H    0.196326    0.566225  -0.093066
H    0.679065    1.019425   2.764984
C   -0.536281   -0.703261   2.205509
C   -0.320636   -1.722746   3.335387
C   -0.376840   -1.181800   4.770541
N    0.656934   -0.209286   5.101630
C    0.343448    1.130163   5.226310
N   -0.880636    1.545804   5.188449
N    1.484619    1.934938   5.329481
H   -0.711200   -1.252971   1.266401
H   -1.445577   -0.117719   2.410303
H    0.626481   -2.265720   3.180673
H   -1.109670   -2.487013   3.252844
H   -0.302917   -2.032759   5.466744
H   -1.337296   -0.683606   4.954669
H    1.573388   -0.393004   4.694592
H   -0.933165    2.548197   5.381598
H    1.307535    2.872082   5.672196
H    2.288955    1.503376   5.776254
O    2.197815   -0.842041   0.579717
H    3.055933   -1.304984   0.640949
