 26
Energy: -16507.72287615.7 eV PBE+vdW (tier 2 basis)
N    0.405599   -0.055632  -0.953589
C   -0.035808    0.557846   0.293669
C    1.114598    0.873657   1.252856
O    2.185993    0.304839   1.271264
H    1.074418   -0.799780  -0.741112
H    0.914817    0.622607  -1.520465
H   -0.539332    1.507791   0.056519
C   -1.044552   -0.355265   1.024733
C   -2.333136   -0.562981   0.226791
C   -3.305403   -1.547561   0.874150
N   -3.789723   -1.056047   2.155048
C   -4.553104   -1.862205   2.993645
N   -4.837834   -3.110990   2.858786
N   -5.045045   -1.156784   4.098539
H   -1.269601    0.069115   2.012830
H   -0.559352   -1.328855   1.206926
H   -2.079041   -0.928249  -0.777405
H   -2.837958    0.407886   0.078131
H   -2.790936   -2.505121   1.051874
H   -4.136847   -1.756199   0.174127
H   -4.076281   -0.080383   2.153104
H   -4.545568   -3.468609   1.946795
H   -5.490317   -1.790244   4.756525
H   -4.363337   -0.553707   4.551667
O    0.792194    1.870540   2.125520
H    1.562131    1.971931   2.719117
