 26
Energy: -16507.72357615.7 eV PBE+vdW (tier 2 basis)
N    0.993005   -0.171536  -0.117923
C    0.415293   -0.090602   1.230079
C    1.436513    0.008841   2.365539
O    1.280232    0.636320   3.390358
H    1.599205   -0.990800  -0.187798
H    1.587674    0.639158  -0.296308
H   -0.177307    0.833985   1.292117
C   -0.512731   -1.296302   1.526986
C   -1.959413   -1.205940   1.016243
C   -2.181188   -1.286509  -0.502973
N   -1.739107   -0.123528  -1.272463
C   -2.317534    1.129521  -1.098924
N   -1.708745    2.268355  -1.165328
N   -3.687131    1.117822  -0.828447
H   -0.560293   -1.417026   2.619147
H   -0.024459   -2.207870   1.141856
H   -2.428977   -0.284856   1.395104
H   -2.516419   -2.039227   1.474818
H   -3.248337   -1.468579  -0.691727
H   -1.649962   -2.159099  -0.913919
H   -0.715198   -0.061213  -1.265279
H   -0.698349    2.130753  -1.257600
H   -4.073691    2.054028  -0.905226
H   -4.226018    0.430391  -1.347065
O    2.560858   -0.729566   2.118675
H    3.122860   -0.630092   2.911454
