 26
Energy: -16507.65390515.7 eV PBE+vdW (tier 2 basis)
N    0.884752   -0.039289  -0.339300
C   -0.006341    0.083658   0.806646
C    0.837454    0.398896   2.036844
O    1.992910    0.767764   2.015182
H    1.538874    0.740950  -0.375057
H    0.350341   -0.086978  -1.207463
H   -0.696470    0.955993   0.742443
C   -0.904345   -1.157067   0.978349
C   -0.169077   -2.494936   1.146903
C    0.291067   -3.172993  -0.155917
N   -0.799368   -3.537071  -1.056795
C   -1.318075   -2.746702  -2.065537
N   -2.576512   -2.835079  -2.342225
N   -0.391207   -1.895506  -2.691870
H   -1.583306   -1.210664   0.113841
H   -1.548117   -0.980680   1.849480
H   -0.833456   -3.192968   1.681508
H    0.714200   -2.367975   1.794235
H    0.845235   -4.090181   0.096807
H    0.989201   -2.508475  -0.676145
H   -1.546050   -4.085798  -0.637432
H   -2.812948   -2.312271  -3.189084
H   -0.719267   -1.558531  -3.591003
H    0.555264   -2.264021  -2.755260
O    0.127885    0.285164   3.195568
H    0.738521    0.564837   3.904556
