 26
Energy: -16507.68551615.7 eV PBE+vdW (tier 2 basis)
N    0.317342   -0.490744  -0.314912
C    0.126331   -0.153554   1.093728
C    1.456343   -0.013190   1.815575
O    1.695249    0.798442   2.686705
H    0.712992   -1.426412  -0.415865
H   -0.588656   -0.477016  -0.790397
H   -0.327830    0.842754   1.137168
C   -0.760681   -1.126106   1.933221
C   -2.146938   -1.406365   1.342848
C   -3.210937   -0.313950   1.513685
N   -2.844444    1.017790   1.030760
C   -2.765012    1.309691  -0.315393
N   -2.823496    0.367979  -1.198843
N   -2.640432    2.683861  -0.564324
H   -0.850632   -0.722334   2.955205
H   -0.220596   -2.082640   2.020075
H   -2.554527   -2.306367   1.829317
H   -2.061658   -1.654932   0.276812
H   -3.434442   -0.191369   2.583212
H   -4.134736   -0.654747   1.016216
H   -3.150920    1.785959   1.614963
H   -2.688964    0.741909  -2.141080
H   -2.337796    2.898410  -1.508539
H   -2.094306    3.198175   0.122657
O    2.364009   -0.953824   1.426140
H    3.159745   -0.793959   1.969300
