 26
Energy: -16507.64352215.7 eV PBE+vdW (tier 2 basis)
N    0.384380   -0.400609  -0.452083
C    0.201756   -0.145301   0.974233
C    1.468254    0.012840   1.827528
O    1.496249    0.520168   2.928971
H    1.020645   -1.183698  -0.601300
H    0.818551    0.403710  -0.903951
H   -0.319702    0.817828   1.076265
C   -0.710594   -1.210070   1.623255
C   -0.146087   -2.633292   1.607631
C   -1.088970   -3.666935   2.226358
N   -2.312668   -3.795150   1.452849
C   -3.373307   -4.570746   1.908765
N   -3.496933   -5.162473   3.046203
N   -4.392717   -4.683678   0.956389
H   -1.666876   -1.180827   1.084495
H   -0.910743   -0.906987   2.661433
H    0.804083   -2.673986   2.162135
H    0.089494   -2.942657   0.575212
H   -1.361340   -3.349286   3.245294
H   -0.560103   -4.634534   2.322087
H   -2.180216   -3.824803   0.445172
H   -2.631562   -5.123219   3.588939
H   -5.205574   -5.143731   1.356323
H   -4.636497   -3.812440   0.492470
O    2.583372   -0.504197   1.231711
H    3.308964   -0.368497   1.872218
