 26
Energy: -16507.69459715.7 eV PBE+vdW (tier 2 basis)
N   -0.593583   -0.149154  -0.374850
C    0.090989   -0.031623   0.905729
C    1.600329   -0.281500   0.927806
O    2.346043    0.059272   1.829227
H   -0.367385   -1.031390  -0.834878
H   -0.313542    0.599587  -1.006595
H   -0.009060    1.013771   1.238609
C   -0.572292   -0.969860   1.945791
C   -1.961792   -0.514817   2.420123
C   -1.990128    0.406121   3.655294
N   -1.487827    1.767351   3.490988
C   -0.147828    2.101980   3.347875
N    0.164302    3.014894   2.485189
N    0.749595    1.452488   4.189363
H    0.099125   -1.096686   2.807254
H   -0.657951   -1.961467   1.473243
H   -2.553835   -1.406357   2.682081
H   -2.490900   -0.037968   1.580308
H   -1.452741   -0.078356   4.485881
H   -3.030814    0.494531   4.000361
H   -2.044407    2.349738   2.869722
H    1.147234    3.281489   2.588270
H    1.605352    1.166111   3.717983
H    0.367835    0.714472   4.771380
O    2.057273   -0.949842  -0.166539
H    3.018430   -1.059665  -0.027914
