 26
Energy: -16507.81175715.7 eV PBE+vdW (tier 2 basis)
N   -0.164844    0.675230   0.460534
C    0.031640    0.080378   1.800444
C    1.528035   -0.255775   1.969623
O    1.974944   -0.828063   2.947471
H   -0.721932    1.525772   0.506246
H    1.621532    0.587041   0.339078
H   -0.145950    0.879066   2.542458
C   -0.861429   -1.153623   2.108842
C   -1.698697   -1.106100   3.396750
C   -0.919210   -1.233764   4.717725
N   -0.043677   -0.102579   5.032589
C   -0.549268    1.182058   5.132727
N    0.026318    2.148784   4.491742
N   -1.703443    1.280460   5.914537
H   -0.237804   -2.060152   2.121338
H   -1.558593   -1.269735   1.264827
H   -2.422946   -1.936133   3.360882
H   -2.297959   -0.181451   3.422684
H   -0.275290   -2.123759   4.689664
H   -1.635331   -1.391995   5.537197
H    0.823421   -0.126317   4.490370
H   -0.342601    3.060033   4.779339
H   -1.987195    2.229917   6.127261
H   -1.734661    0.669069   6.725676
O    2.292729    0.159117   0.953721
H   -0.635316    0.028798  -0.172508
