 26
Energy: -16507.59456215.7 eV PBE+vdW (tier 2 basis)
N    0.287057   -0.099492   0.134957
C    0.313716   -0.220825   1.585983
C    1.652547   -0.577978   2.251872
O    1.864675   -0.505207   3.444872
H    0.552225   -0.976517  -0.312747
H    0.957227    0.599620  -0.182803
H    0.059352    0.764965   2.006411
C   -0.765511   -1.206987   2.083769
C   -0.529772   -2.666704   1.686963
C   -1.586319   -3.626363   2.257128
N   -2.957212   -3.403304   1.793945
C   -3.343076   -3.549590   0.461090
N   -4.236681   -2.861674  -0.163103
N   -2.669257   -4.563237  -0.221387
H   -1.720987   -0.851570   1.671998
H   -0.818774   -1.126583   3.179925
H    0.455277   -3.002507   2.051128
H   -0.519273   -2.779288   0.592264
H   -1.294300   -4.661240   2.031520
H   -1.607747   -3.551450   3.354713
H   -3.425929   -2.621842   2.239720
H   -4.548377   -2.060946   0.393477
H   -3.103583   -4.731460  -1.124031
H   -2.520456   -5.419607   0.304805
O    2.599958   -1.000479   1.365833
H    3.389494   -1.202144   1.905505
