 26
Energy: -16507.67213315.7 eV PBE+vdW (tier 2 basis)
N   -0.243641   -0.202391  -0.357729
C    0.262043    0.279577   0.920222
C    1.793605    0.296954   1.007974
O    2.556732   -0.178337   0.191401
H    0.140102   -1.127842  -0.556269
H    0.095342    0.394547  -1.112715
H   -0.041986    1.334082   1.024089
C   -0.396408   -0.470361   2.104876
C   -0.250345   -1.997491   2.134855
C    1.160644   -2.513230   2.458539
N    1.227721   -3.952403   2.677088
C    0.812817   -4.499909   3.877640
N    0.462109   -3.746416   4.863832
N    0.805625   -5.905328   3.843226
H   -1.466756   -0.227899   2.053011
H   -0.017473   -0.046572   3.045990
H   -0.601157   -2.432914   1.184569
H   -0.924380   -2.378278   2.914866
H    1.521716   -2.034999   3.378541
H    1.870031   -2.275623   1.654147
H    1.055471   -4.532633   1.862602
H    0.302397   -4.296947   5.710453
H    0.666669   -6.330544   4.753705
H    1.595614   -6.320809   3.354989
O    2.228385    0.942928   2.126426
H    3.204276    0.905353   2.098969
