 26
Energy: -16507.55707215.7 eV PBE+vdW (tier 2 basis)
N    0.409669    0.152669   0.199990
C    0.231561   -0.200291   1.608248
C    1.385046   -1.113853   1.996572
O    1.824677   -2.003542   1.299015
H   -0.445519    0.567018  -0.170988
H    0.600041   -0.695854  -0.337509
H    0.308609    0.716013   2.210699
C   -1.114774   -0.913132   1.921943
C   -1.384775   -1.302354   3.380549
C   -1.464458   -0.120986   4.346404
N   -1.845314   -0.596037   5.676613
C   -1.894974    0.249018   6.779917
N   -1.501022   -0.199507   7.922901
N   -2.361452    1.535416   6.496667
H   -1.164905   -1.813876   1.291323
H   -1.914399   -0.240426   1.569712
H   -0.610928   -2.004549   3.731805
H   -2.337470   -1.851936   3.424998
H   -2.224309    0.586075   3.976348
H   -0.504874    0.425029   4.374359
H   -1.385222   -1.461640   5.951046
H   -1.706144    0.460912   8.677220
H   -2.602455    2.076261   7.319434
H   -3.068075    1.602057   5.769503
O    1.852375   -0.851640   3.246310
H    2.554096   -1.510400   3.419135
