 26
Energy: -16507.68694315.7 eV PBE+vdW (tier 2 basis)
N   -0.596834   -0.412773   1.327781
C   -0.787572   -0.969621   2.664626
C    0.463362   -0.888759   3.542223
O    1.601691   -0.793723   3.129932
H   -0.534158    0.604242   1.385753
H    0.300834   -0.717223   0.946431
H   -1.572292   -0.379533   3.159233
C   -1.295774   -2.437858   2.624220
C   -0.249224   -3.547035   2.447715
C    0.540112   -3.534045   1.127187
N    1.442251   -4.661485   0.968557
C    2.681786   -4.700899   1.605939
N    3.293878   -3.766758   2.243313
N    3.282571   -5.963988   1.494756
H   -2.035151   -2.474092   1.810503
H   -1.836667   -2.633412   3.560804
H   -0.775363   -4.512729   2.518679
H    0.462185   -3.538152   3.288333
H    1.150102   -2.624177   1.041358
H   -0.153759   -3.524935   0.273234
H    0.989796   -5.568181   0.894212
H    2.724872   -2.926819   2.372566
H    4.239649   -5.925828   1.834694
H    3.231528   -6.370740   0.563791
O    0.165029   -0.976970   4.866622
H    1.020430   -0.972795   5.340511
