 26
Energy: -16507.74320015.7 eV PBE+vdW (tier 2 basis)
N    1.903548   -0.605228   1.412460
C    0.560424   -0.561094   2.024578
C    0.668155   -0.979898   3.513571
O   -0.296315   -1.179686   4.218848
H    2.070584    0.184989   0.793699
H    2.472514   -0.867382   3.126493
H    0.240229    0.493771   2.051783
C   -0.511283   -1.390369   1.309451
C   -0.914599   -0.857069  -0.063753
C   -1.892216   -1.783416  -0.799622
N   -1.307949   -3.084551  -1.115407
C   -1.881064   -4.304287  -0.780389
N   -1.733460   -5.294589  -1.594248
N   -2.589912   -4.302272   0.424027
H   -1.387254   -1.435758   1.973607
H   -0.134657   -2.422836   1.204696
H   -0.023140   -0.713823  -0.697043
H   -1.383649    0.134904   0.043298
H   -2.231620   -1.294320  -1.727186
H   -2.791374   -1.944568  -0.189423
H   -0.867626   -3.159629  -2.027481
H   -2.065564   -6.170497  -1.183516
H   -2.877913   -5.224278   0.730756
H   -2.196745   -3.749677   1.180973
O    1.936911   -1.073411   3.946547
H    2.028140   -1.456209   0.862360
