 26
Energy: -16507.70123015.7 eV PBE+vdW (tier 2 basis)
N    0.927207    0.558707   0.805062
C    0.543991   -0.260077   1.950195
C    1.736319   -0.839428   2.722163
O    2.888472   -0.845925   2.345654
H    1.519062    0.015250   0.170562
H    1.515677    1.332424   1.116844
H   -0.002565    0.380670   2.660125
C   -0.417994   -1.388919   1.521170
C    0.206579   -2.454698   0.597362
C   -0.633153   -2.735623  -0.661156
N   -0.824611   -1.576231  -1.515507
C    0.222525   -0.931679  -2.154874
N    1.345893   -1.442863  -2.534079
N   -0.063398    0.411515  -2.426965
H   -1.248553   -0.883415   1.007463
H   -0.836522   -1.859673   2.419854
H    0.348675   -3.397955   1.144377
H    1.212064   -2.150412   0.269734
H   -1.632729   -3.098859  -0.382667
H   -0.168409   -3.547621  -1.242053
H   -1.644698   -1.006524  -1.347591
H    1.360604   -2.457580  -2.399390
H    0.722471    0.839797  -2.910123
H   -0.305365    0.937514  -1.586557
O    1.348115   -1.369636   3.918591
H    2.159782   -1.721680   4.333370
