 26
Energy: -16507.64744615.7 eV PBE+vdW (tier 2 basis)
N    0.217540   -0.302204   0.312718
C   -0.014996    0.000826   1.730478
C    1.287714    0.424655   2.395636
O    2.377261    0.434544   1.859515
H    1.192758   -0.098768   0.082138
H   -0.365163    0.282083  -0.282102
H   -0.696629    0.861614   1.841742
C   -0.678670   -1.179288   2.489954
C    0.202804   -2.398694   2.797212
C    0.867074   -3.081287   1.591599
N   -0.072763   -3.373591   0.516000
C   -0.138058   -4.577227  -0.157234
N   -0.413953   -4.582005  -1.419550
N    0.128534   -5.702470   0.640815
H   -1.536094   -1.493710   1.877752
H   -1.086657   -0.795853   3.436063
H   -0.432268   -3.134540   3.316072
H    0.993731   -2.120275   3.513356
H    1.335934   -4.017620   1.918794
H    1.684195   -2.449171   1.206728
H   -0.220574   -2.577703  -0.104660
H   -0.582362   -5.533571  -1.756911
H   -0.092197   -6.579087   0.181335
H   -0.254421   -5.662968   1.582273
O    1.102483    0.791294   3.691644
H    1.986056    1.029485   4.033757
