 26
Energy: -16507.64118515.7 eV PBE+vdW (tier 2 basis)
N    0.687525    0.790570   0.133606
C    0.426486    0.206093   1.448783
C    1.565802   -0.586053   2.100519
O    1.692571   -0.757499   3.293985
H    1.056461    0.095519  -0.514824
H    1.404961    1.511977   0.208546
H    0.242144    1.042495   2.137896
C   -0.861141   -0.659979   1.471401
C   -0.771114   -2.094558   0.931626
C   -0.570305   -2.236487  -0.586555
N   -0.516012   -3.611772  -1.052259
C    0.642781   -4.374201  -0.928565
N    1.818995   -3.989403  -0.571177
N    0.425484   -5.719399  -1.248754
H   -1.623073   -0.087762   0.920849
H   -1.193831   -0.717285   2.517059
H   -1.710070   -2.608012   1.194228
H    0.021982   -2.650605   1.454966
H    0.361244   -1.755448  -0.914599
H   -1.381877   -1.722428  -1.122800
H   -1.376361   -4.141242  -0.945395
H    1.820158   -3.022786  -0.238730
H    1.307707   -6.221678  -1.290673
H   -0.137591   -5.870845  -2.081755
O    2.425335   -1.124187   1.184868
H    3.071869   -1.651032   1.695008
