 26
Energy: -16507.75503115.7 eV PBE+vdW (tier 2 basis)
N    0.933725    1.092230   3.234489
C    1.665629    0.452221   2.133260
C    0.862977    0.481372   0.833429
O   -0.344865    0.584857   0.767628
H   -0.062388    0.889883   3.104398
H    1.013072    2.107355   3.159822
H    2.600853    1.004536   1.957274
C    2.015987   -1.021045   2.469759
C    3.305943   -1.220083   3.278703
C    3.409863   -0.424924   4.594521
N    2.265817   -0.531267   5.476710
C    1.956999   -1.692272   6.162414
N    2.741253   -2.673212   6.466250
N    0.639953   -1.717520   6.633578
H    2.111041   -1.595164   1.537269
H    1.156748   -1.449872   3.008057
H    4.174174   -0.957413   2.652152
H    3.396687   -2.294026   3.499219
H    3.542864    0.645148   4.382061
H    4.319303   -0.735040   5.131367
H    1.492839    0.066020   5.185500
H    3.702924   -2.487792   6.172688
H    0.410766   -2.628010   7.020047
H   -0.067353   -1.375254   5.989982
O    1.656577    0.344521  -0.262288
H    1.058611    0.324752  -1.035287
