 26
Energy: -16507.64432115.7 eV PBE+vdW (tier 2 basis)
N   -0.297537    0.120248  -0.298525
C   -0.118708    0.183770   1.151023
C    1.325879    0.299229   1.644458
O    1.694572    0.987908   2.572849
H    0.227356   -0.665561  -0.685344
H    0.064295    0.963195  -0.744077
H   -0.613959    1.096075   1.515111
C   -0.775876   -1.032457   1.835504
C   -2.295039   -1.066289   1.662386
C   -2.914187   -2.314318   2.285835
N   -4.360009   -2.314137   2.111507
C   -5.087425   -3.460953   2.378929
N   -4.493902   -4.567608   2.669001
N   -6.473996   -3.230938   2.321157
H   -0.517670   -1.015809   2.905499
H   -0.328465   -1.951350   1.421157
H   -2.547341   -1.020692   0.594145
H   -2.727068   -0.162753   2.127823
H   -2.638332   -2.393703   3.354059
H   -2.530783   -3.224568   1.806170
H   -4.825955   -1.451828   2.378114
H   -5.162379   -5.339942   2.724186
H   -7.024967   -4.082462   2.345059
H   -6.768126   -2.619024   1.563402
O    2.183013   -0.491212   0.931798
H    3.060301   -0.370601   1.343795
