 26
Energy: -16507.72918915.7 eV PBE+vdW (tier 2 basis)
N    0.136002   -0.514255   0.077870
C   -0.116281    0.293900   1.270519
C    1.122627    1.079891   1.705649
O    2.267147    0.765452   1.455536
H    1.049359   -0.967482   0.175410
H    0.207969    0.083589  -0.746151
H   -0.909419    1.020349   1.039373
C   -0.594172   -0.571233   2.460682
C   -1.998893   -1.193710   2.293726
C   -2.033253   -2.677497   1.921137
N   -1.561335   -2.897790   0.560446
C   -1.127051   -4.126986   0.097400
N   -0.320167   -4.335052  -0.892257
N   -1.619052   -5.227877   0.803604
H   -0.587412    0.066923   3.354765
H    0.154640   -1.359753   2.639687
H   -2.578035   -0.621512   1.550997
H   -2.540515   -1.088884   3.244137
H   -3.075426   -3.027328   2.029894
H   -1.432843   -3.251944   2.650461
H   -1.047765   -2.100699   0.163729
H    0.053433   -3.449922  -1.245611
H   -1.417134   -6.089817   0.305649
H   -2.589049   -5.165256   1.098563
O    0.797233    2.178789   2.439869
H    1.642417    2.591215   2.706546
