 26
Energy: -16507.70388915.7 eV PBE+vdW (tier 2 basis)
N    0.383927    0.432539   0.411998
C    0.271589    0.330240   1.863456
C    1.538763    0.647354   2.658502
O    1.570345    1.271581   3.704288
H    0.673435    1.369460   0.131647
H    1.088663   -0.216033   0.058747
H   -0.462416    1.078348   2.194151
C   -0.239692   -1.080256   2.237512
C   -0.399596   -1.364626   3.734914
C   -1.434937   -0.469040   4.442474
N   -1.558219   -0.685624   5.869379
C   -0.620457   -0.293922   6.815954
N   -0.614221   -0.920165   7.947799
N    0.149982    0.814460   6.477551
H    0.451316   -1.817755   1.799353
H   -1.199292   -1.204384   1.713389
H    0.568546   -1.272002   4.251506
H   -0.702303   -2.415237   3.860268
H   -2.426662   -0.633633   3.993515
H   -1.212366    0.594233   4.271246
H   -2.021002   -1.539169   6.165630
H    0.049918   -0.497854   8.600719
H    0.949380    0.954813   7.082916
H    0.376075    0.988351   5.500366
O    2.660954    0.133957   2.088874
H    3.399553    0.363200   2.686017
