 26
Energy: -16507.70977415.7 eV PBE+vdW (tier 2 basis)
N   -0.130275    0.252203  -0.240978
C    0.200968    0.323575   1.174931
C    1.674645    0.034116   1.477225
O    2.420743   -0.625958   0.784729
H    0.398704    0.950030  -0.764419
H    0.156282   -0.655682  -0.613421
H   -0.010519    1.344724   1.529442
C   -0.665187   -0.658569   1.993752
C   -2.163843   -0.372331   1.897700
C   -2.980599   -1.337538   2.765891
N   -4.422727   -1.157063   2.673048
C   -5.129773   -1.731040   1.629241
N   -4.555845   -2.534177   0.800847
N   -6.469014   -1.303800   1.603344
H   -0.337131   -0.621075   3.044196
H   -0.458915   -1.682050   1.637725
H   -2.493102   -0.456694   0.854518
H   -2.360078    0.666180   2.215614
H   -2.694386   -1.236532   3.824797
H   -2.776302   -2.372120   2.461324
H   -4.771253   -0.249527   2.965750
H   -5.235837   -2.960854   0.167800
H   -7.048280   -1.832202   0.959620
H   -6.905624   -1.226912   2.519118
O    2.071411    0.597755   2.656010
H    3.002616    0.329675   2.782963
