 26
Energy: -16507.87456315.7 eV PBE+vdW (tier 2 basis)
N   -0.433115   -0.797827  -0.018588
C   -0.035056    0.029318   1.118759
C    1.432210    0.455744   1.053935
O    2.252703   -0.090100   0.332618
H   -0.839204   -0.215727  -0.749443
H    0.412927   -1.205598  -0.426333
H   -0.645780    0.943494   1.146733
C   -0.293359   -0.702112   2.470560
C    0.367048   -2.076940   2.656867
C    1.881877   -2.113217   2.939077
N    2.277859   -1.359378   4.118824
C    3.043894   -0.221340   4.123343
N    3.830463    0.220175   3.183386
N    2.943501    0.507439   5.302985
H   -1.381181   -0.846388   2.528015
H   -0.014714   -0.027608   3.293471
H    0.174073   -2.696903   1.767420
H   -0.148573   -2.586545   3.487457
H    2.441580   -1.719363   2.084001
H    2.193265   -3.163669   3.052582
H    1.867956   -1.631838   5.005363
H    3.987414   -0.482711   2.457004
H    3.494163    1.359376   5.265979
H    2.004414    0.651896   5.662030
O    1.729311    1.407760   1.951895
H    2.691787    1.275397   2.237909
