 26
Energy: -16507.70141315.7 eV PBE+vdW (tier 2 basis)
N   -0.845224    0.635747  -0.231525
C   -0.499314    0.422964   1.173312
C    0.991607    0.235050   1.460422
O    1.611678    0.806645   2.334774
H   -0.374693    1.462885  -0.599291
H   -0.538371   -0.156910  -0.797413
H   -0.778268    1.331582   1.724522
C   -1.303012   -0.774685   1.720926
C   -0.999940   -1.181267   3.167440
C   -1.301387   -0.092230   4.211582
N   -1.070536   -0.500345   5.585740
C    0.210801   -0.530747   6.136932
N    1.311561   -0.077068   5.653685
N    0.217955   -1.160480   7.391750
H   -1.119176   -1.637005   1.061052
H   -2.366165   -0.514965   1.604376
H    0.050334   -1.495376   3.269561
H   -1.603164   -2.071065   3.406754
H   -2.352512    0.224918   4.123357
H   -0.692336    0.803926   4.028218
H   -1.676808   -1.243694   5.920915
H    1.227387    0.251490   4.688678
H    1.125479   -1.042355   7.834013
H   -0.538287   -0.871204   8.007700
O    1.572687   -0.674270   0.626590
H    2.506207   -0.737826   0.907619
