 26
Energy: -16507.56356115.7 eV PBE+vdW (tier 2 basis)
N   -0.457198    0.124360  -0.012222
C   -0.645347   -0.181803   1.403835
C    0.603377   -0.137585   2.291487
O    0.592539    0.017932   3.495843
H   -0.000798    1.029397  -0.126593
H    0.159611   -0.559856  -0.451648
H   -1.306031    0.589377   1.827085
C   -1.380294   -1.533824   1.571876
C   -0.546772   -2.791395   1.261780
C    0.107006   -3.446725   2.489827
N   -0.855252   -4.077250   3.381296
C   -1.191013   -3.589672   4.642218
N   -0.882989   -2.473376   5.196950
N   -1.969444   -4.515728   5.357127
H   -2.240117   -1.474595   0.891383
H   -1.784531   -1.598061   2.591457
H    0.242452   -2.570769   0.524279
H   -1.192685   -3.544604   0.788035
H    0.698284   -2.716883   3.062240
H    0.820317   -4.213312   2.151587
H   -0.919559   -5.085746   3.301709
H   -0.240599   -1.897984   4.647881
H   -2.321975   -4.086257   6.208199
H   -2.719917   -4.938042   4.815475
O    1.764694   -0.312656   1.593411
H    2.476998   -0.282835   2.262084
