 26
Energy: -16507.84694915.7 eV PBE+vdW (tier 2 basis)
N    0.176693    1.179231   0.613822
C    0.673912    0.251004   1.633069
C    2.017381   -0.361306   1.233603
O    2.415793   -0.484461   0.093496
H    0.274814    0.742779  -0.306547
H    0.767849    2.011930   0.592670
H    0.825012    0.811785   2.567333
C   -0.327289   -0.904329   1.906852
C   -1.446668   -0.617269   2.920910
C   -2.563010    0.344216   2.476407
N   -2.158821    1.724369   2.270788
C   -1.861237    2.548896   3.345018
N   -2.131940    2.395959   4.597932
N   -1.149319    3.692440   2.945899
H    0.243637   -1.764825   2.284224
H   -0.752484   -1.219426   0.939381
H   -0.998785   -0.249150   3.857433
H   -1.921324   -1.580349   3.169081
H   -3.378249    0.319046   3.215155
H   -3.000061   -0.011940   1.530706
H   -1.490686    1.804879   1.492366
H   -2.553229    1.483116   4.783134
H   -1.118333    4.370114   3.702931
H   -1.488052    4.108258   2.081715
O    2.723574   -0.787965   2.315314
H    3.539408   -1.198078   1.966694
