 26
Energy: -16507.68891115.7 eV PBE+vdW (tier 2 basis)
N   -0.296808    0.234180  -0.057361
C    0.044991    0.031405   1.350529
C    1.544475   -0.018499   1.651381
O    2.112413    0.642883   2.496785
H    0.131295    1.087787  -0.416565
H    0.056770   -0.537862  -0.624441
H   -0.318960    0.906995   1.907218
C   -0.652771   -1.239996   1.869885
C   -0.399249   -1.590753   3.340346
C   -0.848757   -0.521861   4.355990
N   -2.252150   -0.149220   4.296975
C   -3.263476   -0.968471   4.780459
N   -3.158076   -2.059542   5.458336
N   -4.537948   -0.489604   4.449976
H   -0.335715   -2.087140   1.242162
H   -1.729194   -1.109292   1.684545
H    0.672083   -1.784458   3.510553
H   -0.917843   -2.536558   3.554137
H   -0.256594    0.395079   4.229349
H   -0.632965   -0.875991   5.374825
H   -2.523698    0.443764   3.519819
H   -2.187598   -2.371991   5.528625
H   -5.252280   -1.026749   4.933650
H   -4.662008    0.510482   4.586495
O    2.202353   -0.911535   0.855369
H    3.139706   -0.873769   1.126933
