 26
Energy: -16507.63312915.7 eV PBE+vdW (tier 2 basis)
N   -0.156174   -1.295105  -0.054601
C   -0.089694   -0.299257   1.036343
C    1.140345    0.613673   0.789085
O    1.589103    1.380307   1.611311
H   -1.118905   -1.526236  -0.293249
H    1.086830   -0.231730  -0.859794
H   -0.963484    0.363305   0.919737
C   -0.110626   -0.899024   2.454434
C   -0.502036    0.075662   3.568906
C   -0.546532   -0.614852   4.938502
N   -0.999102    0.232899   6.041393
C   -0.261774    1.324338   6.510197
N   -0.737240    2.438005   6.952967
N    1.116470    1.133852   6.485687
H    0.879029   -1.335294   2.671220
H   -0.827710   -1.737450   2.442192
H   -1.496187    0.501230   3.349388
H    0.206398    0.913264   3.600590
H    0.448613   -1.015063   5.179552
H   -1.221071   -1.485142   4.906508
H   -1.991973    0.443663   6.009447
H   -1.743436    2.509571   6.777791
H    1.596218    1.890911   6.962459
H    1.443209    0.215725   6.770836
O    1.648421    0.487507  -0.451711
H    0.304306   -2.164759   0.218810
