 26
Energy: -16507.71663515.7 eV PBE+vdW (tier 2 basis)
N   -0.425407    0.082522   0.160023
C   -0.063004    0.080827   1.574403
C    1.437700   -0.100751   1.807208
O    2.200571   -0.659857   1.046205
H    0.066617   -0.683468  -0.306519
H   -0.094433    0.937855  -0.287015
H   -0.353908    1.048307   2.011723
C   -0.813624   -1.041960   2.324789
C   -2.326052   -0.817719   2.367741
C   -3.104282   -2.035192   2.866951
N   -3.005796   -3.142921   1.925501
C   -3.244746   -4.440748   2.340350
N   -3.442510   -4.714888   3.584345
N   -3.270616   -5.342300   1.261124
H   -0.418065   -1.124661   3.348028
H   -0.594027   -1.997483   1.822558
H   -2.674576   -0.532515   1.362474
H   -2.556720    0.033635   3.027330
H   -4.158172   -1.759440   3.050420
H   -2.712873   -2.400715   3.825219
H   -3.317824   -2.936501   0.981254
H   -3.486916   -5.725521   3.735182
H   -3.270799   -6.315240   1.548354
H   -2.569390   -5.165745   0.545360
O    1.836988    0.418769   3.002237
H    2.789403    0.214538   3.083377
