 26
Energy: -16507.69949715.7 eV PBE+vdW (tier 2 basis)
N    0.118727   -0.595688  -0.124769
C   -0.157552   -0.104084   1.218138
C    1.021199    0.390461   2.059354
O    0.906682    1.094425   3.048040
H    0.583603    0.115600  -0.689175
H    0.747004   -1.399416  -0.090993
H   -0.798068    0.785447   1.114442
C   -0.932276   -1.175110   2.043203
C   -2.405463   -0.837919   2.291882
C   -2.632147    0.440716   3.127678
N   -1.860808    0.539818   4.351324
C   -2.132157   -0.228793   5.470026
N   -3.160031   -0.973748   5.706151
N   -1.116787   -0.154431   6.431054
H   -0.439126   -1.345861   3.010544
H   -0.865108   -2.120384   1.487385
H   -2.866772   -1.696011   2.802152
H   -2.931980   -0.722248   1.330986
H   -3.702421    0.534077   3.367413
H   -2.384478    1.330138   2.529771
H   -0.888183    0.812181   4.216219
H   -3.776835   -1.033821   4.893657
H   -1.427163   -0.555455   7.311152
H   -0.707837    0.768264   6.551015
O    2.228314   -0.047453   1.619286
H    2.887049    0.299763   2.252664
