 26
Energy: -16507.61480915.7 eV PBE+vdW (tier 2 basis)
N    0.637405   -0.764908   0.277179
C    0.604725   -0.135919   1.598598
C    1.961662   -0.196120   2.290631
O    2.146607   -0.058918   3.483442
H   -0.221747   -0.547684  -0.227829
H    1.416348   -0.412919  -0.277274
H    0.426799    0.962647   1.552530
C   -0.534983   -0.708477   2.464987
C   -0.619970   -2.237981   2.557853
C    0.505718   -2.924976   3.348475
N    0.669654   -2.469658   4.728352
C   -0.335423   -2.607864   5.674476
N   -0.560943   -1.645611   6.504648
N   -1.030682   -3.823119   5.598124
H   -1.478733   -0.336388   2.036687
H   -0.466418   -0.262880   3.467226
H   -0.639124   -2.670620   1.546793
H   -1.578402   -2.493762   3.033729
H    1.474829   -2.785556   2.849211
H    0.328581   -4.010334   3.335854
H    1.101925   -1.549688   4.805378
H   -1.217358   -1.932426   7.236342
H   -1.614653   -4.007217   6.406200
H   -0.466937   -4.629665   5.342498
O    2.992738   -0.333919   1.411210
H    3.806886   -0.295553   1.950000
