 26
Energy: -16507.72962315.7 eV PBE+vdW (tier 2 basis)
N   -0.219735    0.093759  -0.049564
C   -0.056558    0.011017   1.414312
C    1.426159   -0.018993   1.829913
O    1.972748    0.899753   2.406718
H    0.329752   -0.632528  -0.511978
H    0.160217    0.985463  -0.369552
H   -0.455197    0.951295   1.815967
C   -0.820767   -1.168309   2.068083
C   -2.101310   -1.635364   1.358014
C   -1.943021   -2.935545   0.550597
N   -1.304343   -2.842514  -0.755868
C    0.021467   -3.047102  -1.009421
N    0.914249   -3.098266  -0.059954
N    0.301373   -3.131209  -2.371764
H   -1.057030   -0.853631   3.093939
H   -0.151868   -2.033147   2.172074
H   -2.494132   -0.840989   0.706686
H   -2.876586   -1.837491   2.112347
H   -2.940051   -3.369044   0.377427
H   -1.367277   -3.667029   1.133856
H   -1.825581   -2.375114  -1.488420
H    1.801988   -3.456627  -0.419962
H   -0.357487   -3.651412  -2.942421
H    1.270941   -3.303493  -2.609127
O    2.115811   -1.126703   1.475043
H    1.539224   -1.809570   1.009516
