 26
Energy: -16507.53776815.7 eV PBE+vdW (tier 2 basis)
N    0.575672   -1.132965  -0.087332
C    0.197400   -0.353211   1.091179
C    1.420226    0.239147   1.788573
O    1.470547    0.567127   2.954971
H    1.193878   -0.600374  -0.697288
H   -0.255022   -1.378234  -0.625641
H   -0.398374    0.554760   0.839961
C   -0.654691   -1.167624   2.078676
C   -0.018634   -2.457811   2.621211
C   -0.213930   -3.680516   1.725923
N    0.320692   -4.871009   2.373195
C    0.378116   -6.066624   1.680367
N    0.054482   -6.127376   0.433960
N    0.780804   -7.134480   2.504927
H   -1.612258   -1.403591   1.586219
H   -0.896214   -0.499223   2.915033
H   -0.467168   -2.664558   3.607625
H    1.055802   -2.306088   2.804506
H    0.310210   -3.552636   0.772943
H   -1.286770   -3.805200   1.484322
H    0.086555   -4.970015   3.357049
H    0.262302   -7.051304   0.046637
H    1.528341   -6.902195   3.154970
H    0.989347   -7.983218   1.989639
O    2.459870    0.439448   0.929310
H    3.162816    0.863082   1.458933
