 26
Energy: -16507.78389815.7 eV PBE+vdW (tier 2 basis)
N   -1.596293    0.788259   0.571969
C   -1.266318    0.238647   1.876342
C    0.236750    0.305940   2.083699
O    1.070944    0.362565   1.202336
H   -2.435871    0.342649   0.181948
H   -0.816972    0.640675  -0.070000
H   -1.712526    0.866387   2.668315
C   -1.753203   -1.213436   2.173862
C   -1.159817   -2.331684   1.302602
C   -1.817365   -2.560390  -0.068290
N   -3.215780   -2.961858  -0.005840
C   -4.258544   -2.086226  -0.203092
N   -4.051590   -0.838266  -0.471156
N   -5.508473   -2.701472  -0.038524
H   -2.849589   -1.208873   2.086499
H   -1.531176   -1.423392   3.230615
H   -1.216134   -3.277099   1.867421
H   -0.085406   -2.156853   1.130034
H   -1.257785   -3.344966  -0.601377
H   -1.779032   -1.656712  -0.684484
H   -3.431948   -3.785850   0.543981
H   -4.921579   -0.357127  -0.705362
H   -6.290934   -2.117382  -0.312437
H   -5.582441   -3.637749  -0.428519
O    0.575162    0.256363   3.403983
H    1.551549    0.264752   3.426281
