 26
Energy: -16507.65662815.7 eV PBE+vdW (tier 2 basis)
N   -0.264820   -0.320578  -0.135283
C   -0.342511   -0.059710   1.302147
C    0.948601    0.465457   1.933865
O    1.036442    1.445928   2.643990
H    0.465695   -1.005602  -0.334736
H   -0.023440    0.529286  -0.645334
H   -1.078100    0.741700   1.454519
C   -0.814157   -1.336225   2.026889
C   -0.928596   -1.242038   3.552298
C   -1.967496   -0.233336   4.043570
N   -2.081669   -0.290476   5.492043
C   -3.066251    0.434331   6.158565
N   -4.036383    1.114314   5.653742
N   -2.916208    0.370487   7.548549
H   -0.116866   -2.149514   1.772549
H   -1.783993   -1.607285   1.583935
H    0.054108   -0.993911   3.988496
H   -1.195072   -2.234397   3.945096
H   -2.949501   -0.485853   3.613090
H   -1.709882    0.784906   3.697830
H   -1.191777   -0.314834   5.983562
H   -3.946931    1.202759   4.639202
H   -3.712545    0.796007   8.014416
H   -2.712539   -0.557916   7.909272
O    2.029390   -0.308807   1.617394
H    2.793771    0.102267   2.065161
