 26
Energy: -16508.00074015.7 eV PBE+vdW (tier 2 basis)
N    0.140842    0.756725   0.452735
C    0.278801   -0.102687   1.630012
C    1.493613   -1.054060   1.529909
O    1.864833   -1.496298   0.458138
H    0.261667    0.168508  -0.377332
H    0.921597    1.414735   0.423359
H    0.414066    0.550406   2.505579
C   -1.017299   -0.928832   1.800191
C   -1.135557   -1.689404   3.125642
C   -1.348200   -0.745230   4.325380
N   -0.849943   -1.237969   5.601254
C    0.472455   -1.124116   5.940428
N    1.333679   -0.586747   5.126252
N    0.767660   -1.649867   7.194336
H   -1.084151   -1.635257   0.958525
H   -1.856297   -0.225608   1.682949
H   -0.233988   -2.294714   3.296466
H   -1.971605   -2.402085   3.066242
H   -2.416590   -0.518857   4.448725
H   -0.839241    0.210567   4.150086
H   -1.359240   -1.994585   6.043525
H    2.233797   -0.435654   5.584732
H    1.720711   -1.511049   7.508630
H    0.078866   -1.490149   7.923075
O    2.114573   -1.388684   2.670551
H    1.696331   -0.984278   3.504957
