 26
Energy: -16507.72068315.7 eV PBE+vdW (tier 2 basis)
N   -1.586683    0.944460  -0.307725
C   -0.544664    1.014616   0.705139
C    0.788993    1.553490   0.168950
O    0.987159    1.959803  -0.955767
H   -1.611285    1.813287  -0.842810
H   -1.366183    0.213971  -0.986090
H   -0.850830    1.776096   1.445514
C   -0.434218   -0.311999   1.489207
C   -0.088616   -1.572202   0.684637
C    1.331042   -1.638473   0.097067
N    2.408193   -1.525003   1.070960
C    2.740048   -2.598223   1.876273
N    2.182657   -3.749988   1.712760
N    3.688963   -2.251990   2.854442
H   -1.413557   -0.462094   1.964147
H    0.287569   -0.181576   2.307922
H   -0.809110   -1.715015  -0.137082
H   -0.216693   -2.442503   1.343233
H    1.487280   -0.857220  -0.661242
H    1.454904   -2.605758  -0.405595
H    2.517243   -0.610558   1.498463
H    2.620826   -4.459646   2.304188
H    4.077786   -3.053087   3.340469
H    4.419674   -1.622566   2.530738
O    1.761700    1.606677   1.136532
H    2.526231    2.040679   0.709030
