 26
Energy: -16507.50950315.7 eV PBE+vdW (tier 2 basis)
N    0.145273   -0.476680  -0.127223
C   -0.008294   -0.098547   1.286406
C    1.017136    0.992354   1.596296
O    1.853184    0.974538   2.472324
H    0.031158    0.339939  -0.727713
H   -0.583830   -1.143054  -0.383008
H   -0.997202    0.359895   1.508428
C    0.172746   -1.325463   2.182755
C   -0.280523   -1.117853   3.629014
C   -0.058671   -2.361384   4.488283
N   -0.505544   -2.126314   5.852124
C   -0.670542   -3.103049   6.823424
N   -0.984452   -2.905546   8.060464
N   -0.561916   -4.414008   6.357250
H    1.228186   -1.631748   2.148085
H   -0.408341   -2.148319   1.735188
H   -1.349685   -0.853745   3.658397
H    0.274627   -0.274100   4.067286
H    1.013088   -2.642862   4.439958
H   -0.636157   -3.203132   4.076817
H   -0.327420   -1.199573   6.221298
H   -1.170469   -1.915745   8.243687
H   -0.601685   -5.067040   7.134136
H    0.209222   -4.605300   5.724691
O    0.868869    2.048690   0.745206
H    1.559719    2.694043   0.991242
