 26
Energy: -16507.66619015.7 eV PBE+vdW (tier 2 basis)
N    1.000007    0.801360   0.621535
C    0.734052    0.313103   1.974699
C    1.863447   -0.507540   2.596171
O    2.320725   -0.347801   3.710978
H    1.794441    1.440763   0.617330
H    1.233696    0.027337  -0.001813
H    0.612254    1.187965   2.627659
C   -0.582910   -0.490525   1.974552
C   -0.958779   -1.169949   3.296728
C   -1.166464   -0.236112   4.501480
N   -2.259826    0.721069   4.347308
C   -2.138204    2.009239   3.838908
N   -3.039655    2.671499   3.195397
N   -0.902619    2.616382   4.078937
H   -0.516017   -1.261818   1.191080
H   -1.368628    0.209325   1.656516
H   -0.193013   -1.911555   3.578333
H   -1.882914   -1.748820   3.135724
H   -0.243329    0.315384   4.713504
H   -1.367797   -0.850089   5.392737
H   -3.158657    0.303165   4.128084
H   -3.837841    2.077600   2.953344
H   -0.943083    3.598062   3.820382
H   -0.521647    2.477394   5.011015
O    2.322487   -1.484582   1.757176
H    3.027761   -1.948175   2.248512
