 26
Energy: -16507.67386115.7 eV PBE+vdW (tier 2 basis)
N   -0.673933   -0.576785  -0.416166
C   -0.346816   -0.577268   1.020505
C    1.146891   -0.853887   1.216202
O    1.666454   -1.952174   1.255539
H   -0.390738   -1.463669  -0.838968
H   -0.159712    0.161330  -0.898617
H   -0.552376    0.432147   1.399252
C   -1.195170   -1.626828   1.744710
C   -1.098087   -1.597607   3.278549
C   -2.114590   -0.672974   3.975265
N   -2.120833    0.722681   3.563824
C   -1.090682    1.596799   3.882581
N   -0.110637    1.417491   4.699105
N   -1.180233    2.803043   3.174672
H   -0.878561   -2.615466   1.380486
H   -2.237379   -1.490457   1.416223
H   -0.073969   -1.333751   3.583118
H   -1.268271   -2.610638   3.672623
H   -1.960442   -0.709484   5.064733
H   -3.130665   -1.055897   3.799116
H   -2.578282    0.913065   2.678212
H   -0.083331    0.460227   5.055640
H   -0.498124    3.469532   3.525850
H   -2.114123    3.204066   3.136907
O    1.865245    0.302160   1.259803
H    2.804159    0.038329   1.325648
