 26
Energy: -16507.81316115.7 eV PBE+vdW (tier 2 basis)
N    1.199203    0.541856  -0.680590
C    1.006214    0.019098   0.686546
C   -0.498617   -0.038787   1.009934
O   -0.924672   -0.462132   2.068682
H    1.728451    1.412561  -0.681048
H    1.683889   -0.118985  -1.283214
H    1.350702   -1.024705   0.732806
C    1.757089    0.820322   1.766696
C    3.204722    0.375654   2.006221
C    3.335607   -0.885679   2.871073
N    2.862754   -2.118004   2.223899
C    1.996735   -3.025054   2.860099
N    2.089180   -4.312142   2.806352
N    0.971900   -2.430392   3.579950
H    1.197565    0.744228   2.709885
H    1.724202    1.886188   1.484012
H    3.743218    1.184310   2.524475
H    3.729889    0.231173   1.046610
H    2.757251   -0.758263   3.795765
H    4.389858   -1.008761   3.171046
H    3.590650   -2.611338   1.716597
H    2.977729   -4.603374   2.387946
H    0.351595   -3.138395   3.961352
H    0.451004   -1.676249   3.123215
O   -1.283985    0.397497   0.019139
H   -0.621134    0.646372  -0.692449
