 26
Energy: -16507.60294015.7 eV PBE+vdW (tier 2 basis)
N   -0.379818    0.305448   0.236272
C   -0.214361    0.268453   1.687700
C    1.112367    0.920388   2.055146
O    1.845256    1.500420   1.280731
H   -1.335237    0.544855  -0.017469
H    0.245212    1.007043  -0.163147
H   -0.973657    0.876705   2.218148
C   -0.329103   -1.171410   2.236713
C    0.758930   -2.108824   1.711577
C    0.584449   -3.560145   2.157718
N    0.713272   -3.687449   3.601751
C    0.274755   -4.750896   4.372138
N    0.421858   -4.883660   5.649052
N   -0.460512   -5.712365   3.676403
H   -1.316049   -1.553649   1.932610
H   -0.328803   -1.144214   3.334459
H    1.754480   -1.753399   2.031291
H    0.761743   -2.074014   0.613119
H    1.318830   -4.190683   1.618578
H   -0.418689   -3.911360   1.872710
H    1.422298   -3.112532   4.041294
H    0.850244   -4.050868   6.062544
H   -0.666025   -6.501183   4.282379
H   -0.088147   -5.998675   2.775924
O    1.392357    0.804118   3.382191
H    2.237246    1.275144   3.517721
