 26
Energy: -16507.77204515.7 eV PBE+vdW (tier 2 basis)
N   -1.147792   -0.570223   1.088371
C   -0.010269    0.335399   1.362633
C    1.013160    0.220811   0.210875
O    1.941870    0.984268   0.068411
H   -1.914848   -0.073517   0.637367
H   -0.048842   -1.231866  -0.225610
H   -0.322870    1.390392   1.393479
C    0.670833    0.007625   2.703331
C    1.353735   -1.363591   2.760241
C    1.914026   -1.718805   4.144911
N    0.907131   -1.996181   5.158459
C    0.486274   -1.050703   6.071187
N    0.989349    0.136533   6.084122
N   -0.541148   -1.540581   6.899688
H   -0.081539    0.099127   3.501450
H    1.414751    0.789249   2.905220
H    2.188953   -1.387404   2.042289
H    0.662629   -2.162578   2.441035
H    2.525286   -0.894274   4.533089
H    2.562294   -2.603539   4.053348
H    0.252890   -2.745516   4.963613
H    0.656434    0.671134   6.889018
H   -0.759451   -0.920811   7.672847
H   -0.405027   -2.496345   7.221794
O    0.787724   -0.832459  -0.600557
H   -1.514628   -0.972498   1.950519
