 26
Energy: -16507.82516015.7 eV PBE+vdW (tier 2 basis)
N    1.053547    0.175419  -0.357554
C    0.760568    0.186357   1.064601
C    1.587580   -0.810711   1.891009
O    2.436829   -1.567414   1.466986
H    2.057643    0.283286  -0.504210
H    0.793562   -0.749555  -0.733381
H    1.055418    1.174215   1.461892
C   -0.759169    0.063400   1.350226
C   -1.417739   -1.326635   1.334866
C   -1.495239   -2.061684  -0.018246
N   -0.203490   -2.476196  -0.524709
C    0.311308   -3.593539  -0.145405
N    1.538777   -4.001602  -0.664551
N   -0.221043   -4.496835   0.770734
H   -1.252859    0.716959   0.615285
H   -0.948144    0.499896   2.340720
H   -2.450709   -1.194666   1.695588
H   -0.924418   -1.977972   2.074582
H   -1.947830   -1.388942  -0.763824
H   -2.207684   -2.908338   0.087400
H    1.891439   -1.365985   3.665449
H    1.976560   -3.236183  -1.170873
H   -1.199842   -4.354314   0.996351
H   -0.000329   -5.470837   0.587489
O    1.298374   -0.726223   3.225733
H    2.171889   -4.366901   0.043842
