 26
Energy: -16507.60130115.7 eV PBE+vdW (tier 2 basis)
N   -0.054953    0.106958   0.371513
C    0.026424   -0.047097   1.828106
C    1.482458   -0.043536   2.288479
O    1.949401   -0.712897   3.189140
H    0.466477    0.926831   0.063144
H   -1.027783    0.244583   0.097194
H   -0.413320    0.813224   2.382299
C   -0.699826   -1.309769   2.298645
C   -0.180943   -2.620086   1.679554
C   -0.255871   -3.799863   2.651483
N    0.621870   -3.576297   3.801431
C    0.250373   -3.802802   5.117238
N    0.694013   -3.184868   6.161376
N   -0.711154   -4.804814   5.279609
H   -1.772522   -1.188495   2.083673
H   -0.614034   -1.352422   3.393390
H    0.863889   -2.499003   1.353644
H   -0.740350   -2.867456   0.767726
H    0.024660   -4.723955   2.116336
H   -1.288242   -3.935765   3.009661
H    1.259568   -2.789552   3.698255
H    1.275490   -2.386164   5.891568
H   -0.826757   -5.025049   6.264532
H   -0.572279   -5.635346   4.710375
O    2.225646    0.867238   1.605545
H    3.124296    0.826642   1.986985
