 26
Energy: -16507.67979015.7 eV PBE+vdW (tier 2 basis)
N   -0.165817   -0.281975   0.277429
C   -0.545326   -0.282784   1.691380
C    0.609172   -0.170973   2.687403
O    0.636611    0.560759   3.656372
H    0.305237    0.587975   0.029515
H    0.491717   -1.039467   0.086022
H   -1.157191    0.607948   1.885878
C   -1.372323   -1.541069   2.028292
C   -2.754836   -1.579802   1.363296
C   -3.747186   -0.505250   1.840774
N   -4.016800   -0.507614   3.282027
C   -3.152901    0.090380   4.197227
N   -2.819160   -0.556837   5.262145
N   -2.717642    1.358657   3.809462
H   -1.479563   -1.618704   3.119906
H   -0.794952   -2.424381   1.712066
H   -3.195378   -2.572926   1.548613
H   -2.644987   -1.485787   0.271936
H   -4.703415   -0.645472   1.315315
H   -3.390188    0.494006   1.562462
H   -4.297198   -1.416317   3.646029
H   -2.314054    0.044960   5.918070
H   -2.084889    1.808959   4.460043
H   -3.427049    1.977331   3.428494
O    1.642339   -1.012578   2.381339
H    2.306741   -0.884670   3.085546
