 26
Energy: -16507.69603115.7 eV PBE+vdW (tier 2 basis)
N   -0.092887    1.100140   1.432297
C    0.116436    0.046385   2.425442
C    1.488790    0.139681   3.098044
O    2.542467    0.315724   2.521479
H    0.651229    1.056458   0.732323
H   -0.021336    2.020314   1.868784
H   -0.649398    0.156149   3.207506
C   -0.043117   -1.328775   1.753767
C    0.048534   -2.518452   2.710868
C   -0.169764   -3.881171   2.038826
N   -1.489956   -4.068107   1.454725
C   -1.715314   -3.897939   0.100910
N   -0.746041   -3.657382  -0.713929
N   -3.082189   -3.985715  -0.217636
H    0.715267   -1.429374   0.962175
H   -1.016868   -1.314263   1.245226
H   -0.678506   -2.393824   3.532772
H    1.038771   -2.549319   3.193614
H    0.002391   -4.678058   2.779026
H    0.547394   -4.021804   1.220446
H   -2.281630   -3.856636   2.052920
H   -1.067426   -3.667167  -1.683987
H   -3.260702   -4.029195  -1.215287
H   -3.587873   -4.713951   0.281578
O    1.410328    0.005240   4.455323
H    2.329883    0.061432   4.783614
