 26
Energy: -16507.65566515.7 eV PBE+vdW (tier 2 basis)
N    0.706935   -0.066761   0.330804
C    0.076443   -0.046596   1.647279
C    1.097803    0.202503   2.743378
O    0.846174    0.711263   3.823875
H   -0.009472   -0.108124  -0.393693
H    1.306859   -0.884805   0.218911
H   -0.586419    0.828820   1.666720
C   -0.764647   -1.320026   2.045630
C   -2.261267   -1.078716   2.280131
C   -2.622817   -0.418925   3.626146
N   -2.140462    0.936294   3.822734
C   -2.680453    2.005653   3.124046
N   -3.795793    2.065620   2.475420
N   -1.849020    3.128821   3.135498
H   -0.330137   -1.807329   2.933808
H   -0.640439   -2.035835   1.220413
H   -2.780348   -2.049795   2.242627
H   -2.672738   -0.478400   1.452944
H   -2.219329   -1.027376   4.449619
H   -3.716496   -0.426704   3.751671
H   -1.137657    1.003363   4.008548
H   -4.271981    1.161729   2.461011
H   -2.348146    3.962329   2.841015
H   -1.310169    3.268110   3.985044
O    2.331331   -0.267436   2.443634
H    2.886367   -0.092523   3.228769
