 26
Energy: -16507.67514915.7 eV PBE+vdW (tier 2 basis)
N   -0.075796   -1.514657   1.029350
C    0.281432   -0.083161   1.084235
C    1.328114    0.222814  -0.018591
O    1.904656    1.283585  -0.109591
H   -1.071874   -1.669343   1.168156
H    0.900113   -1.506593  -0.517590
H   -0.611099    0.492748   0.787851
C    0.765083    0.424982   2.447017
C   -0.324947    0.443590   3.518448
C    0.191687    0.934138   4.871082
N   -0.871550    0.932259   5.861959
C   -0.691789    0.993430   7.238101
N   -1.626610    1.059021   8.125476
N    0.633575    0.883389   7.659917
H    1.177713    1.432555   2.297293
H    1.610225   -0.204938   2.776094
H   -0.758762   -0.559441   3.657077
H   -1.148508    1.097960   3.182639
H    0.648683    1.936231   4.741964
H    0.985290    0.258410   5.222453
H   -1.773347    1.271622   5.548267
H   -2.554068    0.988904   7.697882
H    0.692572    1.012219   8.665803
H    1.316290    1.441328   7.155692
O    1.505700   -0.796272  -0.877087
H    0.419220   -2.046782   1.746106
