 26
Energy: -16507.87469615.7 eV PBE+vdW (tier 2 basis)
N   -0.067948   -0.273872   0.017878
C   -0.207727    0.132461   1.427316
C    1.082772    0.813436   1.938889
O    2.244995    0.249229   1.610786
H    0.188013    0.532085  -0.554068
H    4.068545   -1.196376  -0.105355
H   -0.978109    0.909614   1.572202
C   -0.642490   -1.067676   2.297209
C    0.350284   -2.200278   2.614439
C    0.963986   -2.964498   1.432336
N    2.091875   -2.243404   0.869284
C    2.813713   -2.769322  -0.059261
N    3.967486   -2.130082  -0.493609
N    2.553801   -3.965665  -0.703856
H   -1.535077   -1.502140   1.812637
H   -0.995139   -0.657626   3.255154
H   -0.192242   -2.926437   3.238991
H    1.172765   -1.821806   3.240672
H    0.184050   -3.138319   0.666291
H    1.289191   -3.959226   1.797099
H    2.135144   -0.722036   1.234522
H    4.119620   -2.151660  -1.497786
H    3.363074   -4.488370  -1.021077
H    1.834195   -4.544706  -0.287761
O    1.018356    1.831644   2.605359
H   -0.971858   -0.599105  -0.329079
