 26
Energy: -16507.73247415.7 eV PBE+vdW (tier 2 basis)
N    0.078764   -0.041032   0.178467
C    0.007859   -0.134514   1.636677
C    1.324428   -0.621267   2.233121
O    1.447972   -1.275440   3.247515
H    0.952638    0.401812  -0.101521
H   -0.689860    0.544170  -0.177464
H   -0.135008    0.861447   2.121368
C   -1.149583   -1.025077   2.116051
C   -2.535885   -0.490043   1.724314
C   -3.006113   -0.948517   0.329849
N   -4.048554   -0.115570  -0.257472
C   -3.727005    1.110095  -0.801101
N   -2.496011    1.499283  -0.890737
N   -4.858538    1.842607  -1.186173
H   -1.073243   -1.106601   3.207639
H   -1.001746   -2.040939   1.716288
H   -2.523558    0.610519   1.746915
H   -3.278828   -0.806530   2.472492
H   -3.390425   -1.977544   0.380477
H   -2.164778   -0.958583  -0.371637
H   -4.961786   -0.159470   0.183051
H   -2.421200    2.367003  -1.425468
H   -4.646279    2.671260  -1.730932
H   -5.600640    1.292001  -1.610520
O    2.405301   -0.182939   1.521717
H    3.186472   -0.515675   2.004045
