 26
Energy: -16507.62561615.7 eV PBE+vdW (tier 2 basis)
N    2.911985    0.693820   1.522059
C    1.703298   -0.121658   1.516511
C    0.528276    0.762542   1.135455
O    0.493845    1.971067   1.244132
H    2.694425    1.641791   1.831722
H    3.616561    0.298235   2.142601
H    1.789385   -0.892994   0.733644
C    1.389005   -0.869766   2.843814
C    0.998526    0.034540   4.014267
C    0.936067   -0.688267   5.368519
N    2.232576   -1.132443   5.883356
C    2.854554   -2.328125   5.530922
N    4.123401   -2.525731   5.398148
N    1.979694   -3.393792   5.320367
H    2.291087   -1.449294   3.091356
H    0.594681   -1.608320   2.659258
H    0.013271    0.492267   3.827041
H    1.707734    0.875257   4.097301
H    0.274020   -1.560687   5.296696
H    0.489921   -0.017527   6.117947
H    2.902552   -0.379240   6.008013
H    4.643112   -1.644147   5.435409
H    2.498109   -4.261424   5.219061
H    1.219848   -3.471239   5.990505
O   -0.529851    0.032645   0.688058
H   -1.242083    0.676489   0.507833
