 26
Energy: -16507.65006315.7 eV PBE+vdW (tier 2 basis)
N    1.053279   -0.184871  -0.137396
C    0.370852    0.017990   1.136187
C    1.225698   -0.036004   2.411348
O    0.848669    0.315673   3.510298
H    1.772666    0.524261  -0.275974
H    1.536110   -1.083226  -0.150489
H   -0.045720    1.037225   1.131092
C   -0.825145   -0.944859   1.298271
C   -0.439212   -2.423576   1.380455
C   -1.631574   -3.363669   1.609245
N   -2.332809   -3.149643   2.866805
C   -3.520004   -2.440581   2.919200
N   -4.104879   -2.034132   1.844466
N   -3.938949   -2.216613   4.240828
H   -1.499587   -0.781786   0.447300
H   -1.374676   -0.651820   2.202550
H    0.299599   -2.579400   2.186994
H    0.053833   -2.746017   0.448954
H   -1.280017   -4.406698   1.573075
H   -2.379641   -3.232499   0.817400
H   -1.751753   -3.071059   3.695316
H   -5.017345   -1.623995   2.053442
H   -4.884554   -1.856994   4.311757
H   -3.786067   -2.996047   4.876231
O    2.478362   -0.540768   2.200938
H    2.909498   -0.532955   3.077924
