 26
Energy: -16507.71929615.7 eV PBE+vdW (tier 2 basis)
N   -0.656083    0.607603   1.670855
C    0.738452    0.187926   1.709604
C    1.529449    0.570307   0.455703
O    1.051252    0.771133  -0.641025
H   -1.087010    0.273368   0.805761
H   -0.715986    1.625509   1.633856
H    1.225832    0.685111   2.561709
C    0.849411   -1.345242   1.896738
C    0.087801   -1.892070   3.108043
C    0.564479   -1.324821   4.453925
N   -0.027603   -1.959769   5.619586
C    0.400168   -3.200474   6.078099
N    1.421315   -3.889700   5.699400
N   -0.433125   -3.708373   7.082537
H    1.915473   -1.608946   1.968527
H    0.470204   -1.831457   0.983446
H    0.196960   -2.986669   3.121041
H   -0.984523   -1.677897   2.994975
H    0.330916   -0.252330   4.514308
H    1.659438   -1.407748   4.542940
H   -1.020380   -1.787202   5.746276
H    1.872270   -3.482146   4.877568
H   -0.022228   -4.540607   7.496193
H   -0.705448   -3.029292   7.788734
O    2.868164    0.640735   0.703423
H    3.293958    0.846591  -0.151929
