 26
Energy: -16507.72757915.7 eV PBE+vdW (tier 2 basis)
N    0.133138   -0.492589  -0.484372
C   -0.257050   -0.332360   0.934552
C    1.024672   -0.395307   1.802577
O    2.155212   -0.339504   1.080681
H    1.818488   -0.307569   0.136951
H   -0.005765   -1.455417  -0.795149
H   -0.617143    0.701813   1.055134
C   -1.364941   -1.280762   1.420627
C   -0.963288   -2.770111   1.495988
C   -0.671176   -3.296131   2.914338
N   -1.822935   -3.302541   3.795029
C   -2.117224   -2.302264   4.717673
N   -1.446290   -1.252075   5.027040
N   -3.351966   -2.539954   5.348899
H   -2.216083   -1.151402   0.736193
H   -1.717366   -0.940335   2.403401
H   -0.073417   -2.973952   0.874098
H   -1.764014   -3.388686   1.061711
H    0.117747   -2.702445   3.391639
H   -0.285343   -4.324977   2.835178
H   -2.626044   -3.835319   3.476712
H   -0.629265   -1.093394   4.430453
H   -3.481846   -1.871979   6.104165
H   -3.473509   -3.495687   5.676697
O    1.016465   -0.458824   3.013910
H   -0.423539    0.104005  -1.093387
