 26
Energy: -16507.64149915.7 eV PBE+vdW (tier 2 basis)
N    0.974935    0.117857   0.214047
C    0.465824   -0.133833   1.568527
C    1.472135    0.078284   2.702696
O    1.197487    0.495727   3.806950
H    1.283711    1.088058   0.135560
H    1.803598   -0.455134   0.042465
H   -0.340715    0.588559   1.759833
C   -0.133796   -1.550862   1.715298
C   -1.333612   -1.812566   0.791458
C   -0.939859   -2.365501  -0.595573
N   -1.936297   -2.210374  -1.638711
C   -2.296690   -0.990844  -2.212898
N   -3.281779   -0.808669  -3.032291
N   -1.517829    0.087534  -1.850818
H   -0.437995   -1.664938   2.764992
H    0.658898   -2.299487   1.543956
H   -1.899255   -0.879682   0.654149
H   -2.021838   -2.521124   1.275413
H   -0.710651   -3.438410  -0.515115
H   -0.009066   -1.889105  -0.933005
H   -2.665161   -2.911415  -1.681882
H   -3.778152   -1.684323  -3.213311
H   -1.634735    0.897541  -2.444293
H   -0.636436   -0.008671  -1.350144
O    2.738732   -0.292331   2.348051
H    3.289726   -0.156340   3.143167
