 26
Energy: -16507.58707615.7 eV PBE+vdW (tier 2 basis)
N   -0.029274   -0.139446  -0.023869
C   -0.197714    0.246190   1.378350
C    1.099324    0.396069   2.179928
O    1.330720    1.278162   2.979507
H    0.534757    0.551748  -0.519047
H    0.475763   -1.025012  -0.086224
H   -0.658743    1.244499   1.401354
C   -1.126929   -0.726744   2.134222
C   -2.591432   -0.725996   1.672026
C   -2.874271   -1.537730   0.397814
N   -4.291338   -1.604426   0.037221
C   -5.253057   -2.233393   0.826037
N   -6.486511   -1.883470   0.968695
N   -4.788165   -3.360649   1.505326
H   -1.093001   -0.453882   3.199175
H   -0.707129   -1.745047   2.068246
H   -2.931086    0.312014   1.522678
H   -3.210155   -1.141747   2.480967
H   -2.484225   -2.559232   0.522324
H   -2.333857   -1.108564  -0.454110
H   -4.646821   -0.753123  -0.386115
H   -6.665796   -0.971215   0.539895
H   -5.563844   -3.869901   1.918331
H   -4.164972   -3.962396   0.974632
O    1.990648   -0.605393   1.912688
H    2.761609   -0.436201   2.487979
