 26
Energy: -16507.57132515.7 eV PBE+vdW (tier 2 basis)
N   -0.654546    0.612684   0.417832
C   -0.368342    0.339436   1.825084
C    1.097721    0.579180   2.170054
O    1.476137    0.988722   3.251487
H   -1.622082    0.361780   0.212237
H   -0.550145    1.604685   0.204892
H   -0.916066    0.995314   2.527646
C   -0.740289   -1.131712   2.121344
C   -0.478809   -1.643276   3.542356
C   -1.184712   -0.866023   4.668657
N   -2.623776   -0.659657   4.488523
C   -3.518989   -1.704754   4.298355
N   -4.460098   -1.568531   3.425049
N   -3.264448   -2.825946   5.091253
H   -0.201528   -1.760088   1.397774
H   -1.812082   -1.238678   1.888345
H    0.600295   -1.643180   3.762525
H   -0.801045   -2.694154   3.580937
H   -0.737099    0.129633   4.782988
H   -1.002890   -1.381892   5.623487
H   -2.867735    0.101359   3.860809
H   -5.137992   -2.333445   3.479672
H   -4.017660   -3.503686   5.108113
H   -2.887186   -2.637055   6.015652
O    1.955797    0.246874   1.173038
H    2.848419    0.407365   1.537638
