 26
Energy: -16507.70232815.7 eV PBE+vdW (tier 2 basis)
N   -0.575631    0.769087   0.343233
C   -0.211450    0.522012   1.734074
C    1.300479    0.426947   1.952851
O    2.110499    0.104781   1.108598
H   -0.038931    0.139324  -0.258168
H   -0.302617    1.713425   0.070312
H   -0.584119    1.357166   2.346688
C   -0.862910   -0.782026   2.247088
C   -2.389675   -0.711214   2.271031
C   -3.022206   -2.041278   2.671275
N   -4.475159   -1.938752   2.667782
C   -5.239473   -2.948080   3.227521
N   -4.685132   -3.921295   3.865175
N   -6.612173   -2.771137   2.976406
H   -0.478986   -1.002867   3.254225
H   -0.532050   -1.608832   1.596447
H   -2.742122   -0.404807   1.273711
H   -2.715256    0.070450   2.975999
H   -2.720707   -2.339460   3.684055
H   -2.674859   -2.848547   1.999642
H   -4.872479   -1.531261   1.826251
H   -5.387674   -4.516005   4.311453
H   -7.204202   -3.393399   3.516329
H   -6.931320   -1.807095   3.038817
O    1.650421    0.725098   3.236068
H    2.617540    0.594778   3.291923
