 26
Energy: -16507.98368915.7 eV PBE+vdW (tier 2 basis)
N   -0.063411    0.430564   0.336813
C    0.584043   -0.150818   1.522700
C    1.965099   -0.749560   1.171969
O    2.072137   -1.621880   0.327607
H   -0.023156   -0.258474  -0.419426
H    0.473892    1.235767   0.010906
H    0.707172    0.664237   2.247409
C   -0.350543   -1.235588   2.088718
C    0.145016   -2.093119   3.261389
C    0.346428   -1.391508   4.612674
N    1.569683   -0.582039   4.663655
C    1.601609    0.789531   4.625600
N    2.483810    1.371787   3.863306
N    0.638052    1.428677   5.381984
H   -0.579207   -1.919004   1.256309
H   -1.296860   -0.739757   2.353267
H    1.077892   -2.612744   2.983918
H   -0.593082   -2.894045   3.422747
H    0.388919   -2.150261   5.409308
H   -0.507922   -0.737135   4.833132
H    2.353311   -0.980534   4.151203
H    2.560741    2.376600   4.022662
H    0.692844    2.438773   5.416460
H    0.368540    0.992360   6.257056
O    3.040874   -0.264116   1.810996
H    2.820674    0.451122   2.514876
