 26
Energy: -16507.63290715.7 eV PBE+vdW (tier 2 basis)
N   -0.651178   -0.702515  -0.133538
C   -0.537849   -0.309714   1.274739
C    0.781304    0.389800   1.607662
O    0.895520    1.519240   2.035342
H   -0.586245    0.114346  -0.741541
H    0.113763   -1.328560  -0.390466
H   -1.316153    0.439638   1.471304
C   -0.761973   -1.538653   2.171717
C   -0.671937   -1.275981   3.679020
C   -1.743339   -0.322034   4.205790
N   -1.654229   -0.212476   5.654569
C   -2.409410    0.740569   6.318001
N   -3.120749    1.591431   5.662859
N   -2.307360    0.611599   7.715234
H   -0.024003   -2.307344   1.895397
H   -1.750880   -1.943281   1.909394
H    0.322793   -0.884586   3.945808
H   -0.764103   -2.246291   4.195296
H   -2.746639   -0.660538   3.885495
H   -1.616309    0.689837   3.800662
H   -1.570843   -1.095740   6.149847
H   -3.519237    2.297326   6.286891
H   -2.719999    1.387616   8.222067
H   -1.368592    0.406390   8.049651
O    1.864691   -0.405199   1.344903
H    2.648398    0.133685   1.565846
