 26
Energy: -16507.58899215.7 eV PBE+vdW (tier 2 basis)
N    0.342089   -0.423379  -0.448937
C   -0.597447    0.179667   0.504605
C   -0.007998    1.401978   1.211711
O   -0.371250    2.549253   1.057212
H    1.194054   -0.719035   0.030730
H    0.618813    0.255743  -1.158705
H   -1.450244    0.567117  -0.070441
C   -1.093491   -0.881414   1.493852
C   -2.130253   -0.361992   2.491319
C   -2.629682   -1.457843   3.429202
N   -3.613634   -0.915758   4.364328
C   -4.196916   -1.691284   5.360529
N   -4.398766   -1.162749   6.519293
N   -4.480873   -3.004059   4.974420
H   -0.228591   -1.297357   2.035013
H   -1.514038   -1.701419   0.892527
H   -2.989113    0.073885   1.957367
H   -1.694886    0.452481   3.094786
H   -1.773008   -1.919796   3.956806
H   -3.093720   -2.255686   2.829639
H   -3.349723   -0.017592   4.764391
H   -4.950708   -1.778412   7.122408
H   -5.090774   -3.497745   5.616238
H   -4.756804   -3.131469   4.004706
O    1.035369    1.067551   2.031160
H    1.367184    1.909265   2.398719
