 26
Energy: -16507.69469915.7 eV PBE+vdW (tier 2 basis)
N   -0.049804   -0.019045  -0.101108
C   -0.125502    0.045033   1.358630
C    1.252428    0.202772   2.008681
O    2.231744   -0.460500   1.735312
H    0.605746   -0.754906  -0.374251
H    0.325571    0.852854  -0.476628
H   -0.732163    0.920633   1.631551
C   -0.806920   -1.225710   1.893606
C   -1.027427   -1.243518   3.408051
C   -1.792705   -2.474037   3.897663
N   -3.150302   -2.496395   3.379090
C   -3.964180   -3.613883   3.538501
N   -3.653942   -4.764214   4.027393
N   -5.271441   -3.380135   3.096115
H   -0.196719   -2.095860   1.600534
H   -1.764319   -1.319390   1.363740
H   -1.561495   -0.330400   3.723489
H   -0.063002   -1.220321   3.937624
H   -1.774212   -2.501563   5.003824
H   -1.281587   -3.384374   3.547166
H   -3.648047   -1.612605   3.449420
H   -2.721172   -4.758906   4.445548
H   -5.811405   -4.240780   3.108367
H   -5.334999   -2.902654   2.200673
O    1.271229    1.189818   2.950162
H    2.180157    1.203045   3.311467
