 26
Energy: -16507.59503315.7 eV PBE+vdW (tier 2 basis)
N   -0.619614    0.583244   0.435325
C   -0.159661    0.005959   1.696802
C    1.353378   -0.046911   1.935027
O    1.880030   -0.090507   3.026651
H   -0.183812    0.126685  -0.365232
H   -0.355972    1.567008   0.380528
H   -0.540371    0.651777   2.501264
C   -0.758809   -1.400408   1.956169
C   -0.137245   -2.599569   1.226210
C   -0.267119   -2.602944  -0.307918
N    0.059036   -3.874091  -0.932264
C   -0.831317   -4.943496  -0.927046
N   -2.063399   -4.962041  -0.551459
N   -0.242523   -6.120932  -1.403994
H   -1.828999   -1.323098   1.712456
H   -0.687080   -1.592013   3.035732
H   -0.624845   -3.508119   1.610276
H    0.927272   -2.697587   1.495728
H    0.398862   -1.849648  -0.753145
H   -1.290219   -2.329254  -0.607146
H    1.035797   -4.146579  -0.875128
H   -2.341155   -4.085900  -0.104152
H   -0.944523   -6.846509  -1.519420
H    0.320347   -6.001881  -2.242467
O    2.076029   -0.071819   0.774270
H    3.011286   -0.131176   1.051219
