 26
Energy: -16507.63658615.7 eV PBE+vdW (tier 2 basis)
N   -0.723647   -0.994867   0.389058
C   -0.653215   -0.775073   1.833793
C    0.629677   -0.011477   2.119510
O    1.694227   -0.215429   1.575357
H   -1.423580   -1.707532   0.180397
H    0.178471   -1.346010   0.060628
H   -1.495930   -0.130920   2.127336
C   -0.678967   -2.079315   2.678325
C   -0.686468   -1.932489   4.205915
C   -1.871654   -1.138417   4.784907
N   -3.199267   -1.587897   4.358880
C   -3.644156   -2.891716   4.549616
N   -4.283581   -3.477359   3.594127
N   -3.308582   -3.431704   5.793347
H    0.187469   -2.687715   2.377030
H   -1.574196   -2.638554   2.363391
H    0.243153   -1.456164   4.555573
H   -0.694780   -2.942341   4.642102
H   -1.798592   -0.077806   4.510362
H   -1.811384   -1.161413   5.883168
H   -3.469561   -1.283901   3.427309
H   -4.688680   -4.366078   3.900399
H   -3.787102   -4.297557   6.013460
H   -3.306107   -2.778404   6.571679
O    0.470982    0.919410   3.101939
H    1.353439    1.317748   3.237997
