 26
Energy: -16507.71345115.7 eV PBE+vdW (tier 2 basis)
N   -1.164584    1.165053  -0.115855
C   -0.634107    0.741201   1.181301
C    0.829688    0.300007   1.096026
O    1.286919   -0.421387   0.232967
H   -0.974962    0.435617  -0.807610
H   -0.672619    1.998063  -0.442348
H   -0.694795    1.593422   1.873256
C   -1.487875   -0.414532   1.734419
C   -1.102035   -0.886613   3.136821
C   -2.030489   -1.975744   3.694721
N   -2.042243   -3.229082   2.951164
C   -0.987213   -4.118036   3.053675
N   -0.020519   -3.905992   3.880405
N   -1.112654   -5.191938   2.156068
H   -1.416667   -1.250908   1.019071
H   -2.531324   -0.063259   1.714897
H   -1.125270   -0.033893   3.834842
H   -0.074781   -1.277029   3.154935
H   -3.068009   -1.609144   3.732402
H   -1.722568   -2.216869   4.719570
H   -2.495024   -3.209048   2.044027
H    0.610359   -4.709512   3.923033
H   -0.437351   -5.932238   2.313494
H   -2.056311   -5.559939   2.061915
O    1.586007    0.811573   2.107038
H    2.484681    0.444971   1.986371
