 26
Energy: -16507.63636315.7 eV PBE+vdW (tier 2 basis)
N    0.095605   -0.300061  -0.132092
C    0.039499   -0.121090   1.317183
C    1.470398   -0.156872   1.829189
O    2.337052   -0.901788   1.430043
H    0.642900   -1.133269  -0.356492
H   -0.843496   -0.432699  -0.506985
H   -0.380276    0.872423   1.526722
C   -0.794938   -1.206475   2.061515
C   -0.971880   -1.098570   3.585990
C   -1.843998    0.058955   4.082118
N   -1.156656    1.336331   4.043196
C   -1.817882    2.540116   3.893912
N   -3.089742    2.757403   3.881740
N   -0.943204    3.616804   3.697708
H   -0.340521   -2.180813   1.822386
H   -1.791099   -1.203368   1.590056
H    0.004985   -1.071717   4.095630
H   -1.448436   -2.030203   3.925013
H   -2.185993   -0.160548   5.108731
H   -2.752472    0.110686   3.455159
H   -0.171143    1.320504   3.802290
H   -3.624270    1.888689   3.941358
H   -0.108177    3.603372   4.276836
H   -1.442901    4.498256   3.770345
O    1.682675    0.728776   2.851584
H    2.608510    0.595440   3.136479
