 26
Energy: -16507.59350315.7 eV PBE+vdW (tier 2 basis)
N   -0.399340   -0.208111   0.206276
C   -0.685827    0.128548   1.598225
C    0.567707    0.225116   2.485460
O    1.678792   -0.106018   2.117127
H   -0.101846    0.630643  -0.292704
H    0.417172   -0.825199   0.185421
H   -1.214801    1.092731   1.626914
C   -1.604718   -0.926163   2.275640
C   -0.875543   -2.225207   2.663250
C   -1.387944   -2.897521   3.944497
N   -1.524132   -2.043398   5.128687
C   -0.505553   -1.605185   5.929885
N    0.703963   -1.441898   5.468484
N   -0.864502   -1.380069   7.253237
H   -2.438020   -1.131259   1.589978
H   -2.016190   -0.464170   3.182835
H    0.198465   -2.045181   2.800976
H   -0.949062   -2.967382   1.854204
H   -0.720550   -3.737480   4.191548
H   -2.389944   -3.317588   3.775251
H   -2.461394   -1.927583   5.487387
H    1.363265   -1.290744   6.234981
H   -0.390165   -0.618756   7.723411
H   -1.832175   -1.503497   7.527961
O    0.256734    0.577289   3.750335
H    0.711973   -0.071061   4.388130
