 26
Energy: -16507.78770515.7 eV PBE+vdW (tier 2 basis)
N   -0.387038    0.124740   0.080801
C   -0.080522    0.042160   1.523368
C    1.450634    0.127932   1.705094
O    1.987846    0.376236   2.762904
H    1.411316   -0.225171  -0.111598
H   -1.196587   -0.446893  -0.158268
H   -0.512050    0.878300   2.097103
C   -0.624273   -1.284799   2.084793
C   -0.429007   -1.485832   3.587751
C   -1.037155   -2.792610   4.113879
N   -2.489244   -2.871450   4.040893
C   -3.149939   -3.513717   3.015163
N   -2.504582   -4.100773   2.063983
N   -4.547344   -3.399074   3.136081
H   -0.170435   -2.124011   1.535029
H   -1.700010   -1.318500   1.849409
H   -0.860873   -0.632103   4.137731
H    0.642086   -1.481483   3.834866
H   -0.738086   -2.926287   5.164605
H   -0.653773   -3.649693   3.545974
H   -3.012402   -2.145665   4.517577
H   -3.138882   -4.628017   1.460356
H   -5.055580   -3.989594   2.486270
H   -4.900029   -3.505440   4.084685
O    2.133960   -0.131758   0.573653
H   -0.583956    1.081215  -0.210459
