 26
Energy: -16507.69100115.7 eV PBE+vdW (tier 2 basis)
N   -0.419687    1.002534   0.638129
C   -0.164475    0.423035   1.955911
C    1.328165    0.261023   2.246135
O    2.156935   -0.156058   1.463173
H    0.084015    0.467616  -0.073104
H   -0.056210    1.955073   0.592559
H   -0.595590    1.094473   2.710701
C   -0.863385   -0.949839   2.043638
C   -0.678912   -1.728114   3.351715
C   -1.238053   -1.060187   4.619968
N   -2.683849   -0.846899   4.609930
C   -3.304901    0.275666   4.080909
N   -4.409698    0.129219   3.431914
N   -2.620545    1.477156   4.314796
H   -0.489077   -1.568510   1.212591
H   -1.928862   -0.769224   1.845162
H    0.388097   -1.945077   3.525867
H   -1.162238   -2.711371   3.233965
H   -0.741228   -0.097843   4.792663
H   -0.992222   -1.691077   5.487694
H   -3.232310   -1.671507   4.376065
H   -4.847300    1.030527   3.224861
H   -3.163881    2.299835   4.077521
H   -2.189623    1.557617   5.232507
O    1.654323    0.640515   3.519180
H    2.614972    0.479838   3.608190
