 26
Energy: -16507.60094815.7 eV PBE+vdW (tier 2 basis)
N    0.264935   -1.209506   0.028322
C   -0.045613   -0.434065   1.225812
C    1.207766    0.003425   1.991297
O    2.276153   -0.570937   1.965708
H    0.956138   -1.924566   0.267552
H    0.714519   -0.613166  -0.667443
H   -0.582658    0.477987   0.923098
C   -0.952534   -1.229363   2.194474
C   -2.420828   -1.346130   1.767934
C   -2.682675   -2.193338   0.521220
N   -4.114239   -2.325131   0.298773
C   -4.701150   -2.762350  -0.881491
N   -5.952214   -3.035782  -1.054576
N   -3.845797   -2.813570  -1.979677
H   -0.921948   -0.740803   3.178931
H   -0.510746   -2.230206   2.331541
H   -2.845907   -0.341967   1.612650
H   -2.977298   -1.784844   2.613994
H   -2.180123   -3.175333   0.639563
H   -2.228647   -1.711064  -0.351778
H   -4.673212   -2.516654   1.122863
H   -6.496008   -2.837474  -0.210360
H   -4.308497   -3.243208  -2.774376
H   -2.909479   -3.169902  -1.818853
O    0.984467    1.118534   2.741592
H    1.817384    1.297767   3.220852
