 26
Energy: -16507.65267315.7 eV PBE+vdW (tier 2 basis)
N   -0.018310   -0.641889  -0.313928
C    0.077256   -0.255814   1.089918
C    1.520113   -0.176042   1.594241
O    2.458519   -0.787799   1.127307
H    0.604553   -1.435495  -0.483182
H    0.324522    0.111835  -0.909885
H   -0.372948    0.741437   1.209894
C   -0.699597   -1.247710   1.984879
C   -2.201699   -1.248143   1.701638
C   -2.939217   -2.318362   2.501992
N   -4.359700   -2.305279   2.187016
C   -5.260256   -2.976218   2.992948
N   -4.870009   -3.526616   4.092523
N   -6.585945   -2.896363   2.541635
H   -0.514094   -1.000127   3.040666
H   -0.282788   -2.255518   1.820355
H   -2.353462   -1.405275   0.622018
H   -2.626857   -0.260485   1.941464
H   -2.848664   -2.147151   3.582728
H   -2.493579   -3.312906   2.312094
H   -4.583115   -2.267631   1.198078
H   -5.669250   -3.866472   4.632840
H   -7.165169   -3.685687   2.802936
H   -6.731877   -2.607380   1.579199
O    1.640965    0.655480   2.667159
H    2.576814    0.607581   2.945226
