 26
Energy: -16507.69984115.7 eV PBE+vdW (tier 2 basis)
N   -0.189316   -0.032613  -0.003364
C    0.043203   -0.147906   1.447460
C    1.526797   -0.396423   1.707988
O    2.333352    0.445966   2.042942
H    0.031610   -0.914468  -0.469626
H    0.415841    0.682719  -0.409071
H   -0.162735    0.837506   1.889271
C   -0.920501   -1.180310   2.044609
C   -1.019280   -1.214032   3.574879
C    0.198542   -1.771522   4.333270
N    0.612279   -3.111628   3.941156
C   -0.113257   -4.217409   4.339923
N   -1.106559   -4.103556   5.155224
N    0.347546   -5.399852   3.732988
H   -0.676184   -2.182677   1.657057
H   -1.908050   -0.931996   1.629950
H   -1.887741   -1.827073   3.851611
H   -1.219426   -0.198695   3.955016
H   -0.046344   -1.808958   5.402153
H    1.072499   -1.113033   4.224893
H    1.049720   -3.181856   3.027688
H   -1.457492   -5.020841   5.439683
H   -0.047399   -6.241109   4.139923
H    1.359558   -5.466329   3.652738
O    1.911726   -1.687593   1.424397
H    2.883578   -1.691326   1.524763
