 26
Energy: -16507.71197015.7 eV PBE+vdW (tier 2 basis)
N    0.373769    0.842216   0.489891
C    0.177571    0.029207   1.687472
C    1.358464   -0.901224   1.978470
O    2.207694   -1.233381   1.176282
H    1.063416    1.570362   0.677305
H    0.786892    0.264953  -0.245757
H    0.079598    0.704122   2.550363
C   -1.132697   -0.790069   1.609196
C   -1.174191   -1.807071   0.466957
C   -2.486345   -2.599988   0.389042
N   -3.667813   -1.790153   0.126002
C   -4.525766   -1.409488   1.140994
N   -4.369405   -1.836436   2.347844
N   -5.509267   -0.513037   0.687798
H   -1.945719   -0.060977   1.490969
H   -1.302025   -1.298988   2.567937
H   -0.353605   -2.536221   0.569318
H   -1.006983   -1.295752  -0.496224
H   -2.678252   -3.118565   1.336665
H   -2.399627   -3.361662  -0.401501
H   -3.597871   -1.134106  -0.645124
H   -5.148551   -1.549615   2.943888
H   -6.251848   -0.354860   1.360445
H   -5.882164   -0.722402  -0.235343
O    1.346738   -1.353629   3.263680
H    2.107823   -1.961377   3.344052
