 26
Energy: -16507.75920615.7 eV PBE+vdW (tier 2 basis)
N   -0.082143   -1.414184   1.286827
C    0.302569   -0.048723   1.708412
C    1.791128   -0.050665   2.140896
O    2.352032    0.922288   2.592643
H   -0.585943   -1.419021   0.403141
H    1.670464   -1.798424   1.552091
H    0.269738    0.605659   0.821655
C   -0.586845    0.548524   2.805121
C   -1.980062    0.939618   2.307545
C   -2.947410    1.397921   3.408841
N   -3.362835    0.347000   4.325487
C   -2.753839    0.161151   5.553070
N   -1.836529    0.964057   5.968516
N   -3.233262   -0.989040   6.207116
H   -0.077772    1.424161   3.228128
H   -0.660049   -0.177065   3.631745
H   -2.443667    0.099608   1.758947
H   -1.886720    1.759614   1.575678
H   -3.847282    1.827543   2.942091
H   -2.482965    2.177695   4.025456
H   -3.770895   -0.483639   3.910885
H   -1.564573    0.755778   6.931178
H   -2.919678   -1.060912   7.169454
H   -4.239198   -1.126775   6.137076
O    2.401517   -1.232864   1.937160
H   -0.679781   -1.856306   1.985841
