 26
Energy: -16507.91218515.7 eV PBE+vdW (tier 2 basis)
N   -0.560241    0.925580  -0.860163
C    0.582059    0.985114   0.055853
C    1.628050   -0.048887  -0.432524
O    1.808017   -0.191615  -1.630369
H   -0.199550    0.709865  -1.792666
H   -1.026151    1.831149  -0.910708
H    1.151914    1.936611  -0.037816
C    0.116774    0.911891   1.516776
C   -0.634726   -0.375124   1.919420
C    0.027468   -1.080569   3.105969
N    1.403509   -1.391491   2.761131
C    2.111732   -2.218526   3.456519
N    3.331367   -2.660995   2.977042
N    1.758804   -2.738500   4.687226
H   -0.527355    1.787105   1.690198
H    0.991055    1.060926   2.169101
H   -0.676941   -1.065841   1.064533
H   -1.679587   -0.152516   2.173091
H   -0.545432   -1.994564   3.358558
H   -0.013377   -0.418968   3.993590
H    1.940643   -0.823198   1.407365
H    4.078718   -2.744994   3.658175
H    0.802877   -2.576357   4.980738
H    2.099242   -3.670456   4.897302
O    2.380588   -0.681858   0.466920
H    3.616544   -2.217783   2.107739
