 26
Energy: -16507.75907615.7 eV PBE+vdW (tier 2 basis)
N   -0.346817   -0.502546  -0.205255
C   -0.394019    0.127973   1.110879
C    0.985338    0.490597   1.673984
O    2.017154   -0.059270   1.330263
H    0.433164   -1.164250  -0.229262
H   -0.120330    0.198321  -0.911812
H   -0.989747    1.048730   1.036809
C   -1.103148   -0.794613   2.139773
C   -0.319511   -2.070890   2.527394
C   -0.090203   -2.246066   4.044271
N    0.549427   -1.125572   4.727809
C    1.864464   -0.727698   4.584103
N    2.336449    0.434560   4.944222
N    2.734376   -1.662202   4.058689
H   -2.070031   -1.063433   1.695829
H   -1.316682   -0.192451   3.034583
H    0.653920   -2.080066   2.013343
H   -0.847475   -2.965254   2.167557
H    0.498316   -3.156322   4.232579
H   -1.056093   -2.403430   4.545646
H   -0.065201   -0.357136   4.967478
H    1.636183    0.960660   5.476099
H    3.635956   -1.242194   3.854132
H    2.390618   -2.231840   3.293054
O    0.911437    1.407777   2.658558
H    1.726437    1.318709   3.230169
