 26
Energy: -16507.74745915.7 eV PBE+vdW (tier 2 basis)
N   -0.075022   -0.276784  -0.008337
C   -0.369116    0.406964   1.237007
C   -0.414867   -0.495439   2.479244
O   -0.480522   -1.712582   2.495700
H    0.795444   -0.802781   0.064504
H   -0.816008   -0.949970  -0.218544
H    0.457725    1.105565   1.445801
C   -1.643531    1.287776   1.115640
C   -2.887426    0.672386   0.454535
C   -3.497876   -0.581118   1.100849
N   -2.833238   -1.822967   0.731004
C   -3.403466   -2.696605  -0.170487
N   -4.454864   -2.362977  -0.840336
N   -2.739622   -3.932050  -0.221324
H   -1.352864    2.166465   0.522879
H   -1.899786    1.659082   2.119001
H   -2.689856    0.449703  -0.604025
H   -3.657966    1.459319   0.451725
H   -4.541834   -0.675455   0.774478
H   -3.495907   -0.491968   2.199513
H   -2.151605   -2.197973   1.384128
H   -4.739157   -3.109272  -1.477807
H   -1.753807   -3.913327   0.027957
H   -2.902657   -4.451021  -1.076874
O   -0.335633    0.231336   3.626547
H   -0.367537   -0.412307   4.361222
