 26
Energy: -16507.72231815.7 eV PBE+vdW (tier 2 basis)
N   -0.265064   -0.335427  -0.675705
C    0.397278   -0.209397   0.619413
C    1.868059   -0.630742   0.593444
O    2.384319   -1.332801  -0.250307
H   -0.264191   -1.312770  -0.975134
H    0.262790    0.170501  -1.388412
H    0.366709    0.851499   0.912325
C   -0.329397   -1.035222   1.707485
C   -1.850061   -0.831978   1.804408
C   -2.334596    0.599292   2.052715
N   -2.222192    1.412686   0.846769
C   -2.950929    2.559167   0.601066
N   -3.172809    3.102636  -0.551086
N   -3.504227    3.149436   1.740976
H    0.138295   -0.799025   2.673980
H   -0.133294   -2.104396   1.522228
H   -2.206307   -1.457829   2.635955
H   -2.344357   -1.217414   0.900130
H   -1.748021    1.037326   2.884322
H   -3.383771    0.570120   2.388957
H   -1.870795    0.920555   0.023699
H   -2.836641    2.502691  -1.309291
H   -3.887917    4.062438   1.515445
H   -2.908689    3.169388   2.563859
O    2.552279   -0.128015   1.659006
H    3.466362   -0.464449   1.579944
