 26
Energy: -16507.79791415.7 eV PBE+vdW (tier 2 basis)
N   -0.236795    0.048096   0.067319
C   -0.556956    0.493289   1.436994
C    0.695411    0.638337   2.304993
O    1.159503    1.721537   2.635507
H    0.269866   -0.839226   0.112761
H    0.398136    0.717553  -0.370923
H   -0.998675    1.497777   1.359918
C   -1.578672   -0.482257   2.038302
C   -2.151143   -0.182151   3.435725
C   -1.271673   -0.448665   4.676365
N   -0.516235    0.717740   5.120092
C    0.798248    0.754500   5.477589
N    1.608530   -0.234644   5.207502
N    1.190207    1.899777   6.159417
H   -1.132081   -1.488699   2.045163
H   -2.416188   -0.518585   1.325666
H   -3.045837   -0.812225   3.548984
H   -2.526362    0.855645   3.475492
H   -0.555190   -1.256095   4.490988
H   -1.924533   -0.777086   5.502731
H   -1.022926    1.593466   5.152594
H    2.524847   -0.080588   5.628700
H    2.119599    2.223248   5.911254
H    0.520331    2.661931   6.194448
O    1.203537   -0.551280   2.659607
H    1.586246   -0.473043   3.628214
