 26
Energy: -16507.63237015.7 eV PBE+vdW (tier 2 basis)
N   -0.090482   -0.933040  -0.307455
C   -0.287073   -0.313296   1.007405
C    0.991418    0.335977   1.543471
O    2.082707   -0.194351   1.522452
H    0.725021   -1.550052  -0.258863
H    0.149943   -0.215085  -0.993212
H   -1.064801    0.458408   0.911241
C   -0.759688   -1.400680   2.001304
C   -1.489865   -0.955340   3.277600
C   -0.719566   -0.101342   4.298804
N    0.550677   -0.698562   4.682198
C    1.736713   -0.063591   4.990976
N    2.841796   -0.619853   5.347978
N    1.735477    1.341094   4.825786
H    0.109737   -2.025923   2.258749
H   -1.444849   -2.040906   1.427411
H   -1.845736   -1.868312   3.783464
H   -2.400545   -0.396259   3.009623
H   -1.373571    0.052905   5.177713
H   -0.517856    0.884834   3.868744
H    0.540782   -1.687370   4.902497
H    2.784396   -1.641046   5.310322
H    2.609666    1.697302   5.208085
H    0.937787    1.813010   5.249028
O    0.762938    1.562018   2.083290
H    1.509658    1.748070   2.702903
