 26
Energy: -16507.71416615.7 eV PBE+vdW (tier 2 basis)
N    0.063227   -0.013018  -0.035006
C   -0.225900    0.041882   1.406354
C    0.937104    0.712086   2.145715
O    1.892758    0.146819   2.646136
H    0.924447   -0.537001  -0.202349
H    0.196224    0.923338  -0.418170
H   -1.118064    0.672790   1.536661
C   -0.479887   -1.360917   1.949668
C   -0.898901   -1.383230   3.430415
C   -0.385009   -2.605113   4.192213
N    1.064012   -2.623434   4.192663
C    1.792164   -3.624652   4.803189
N    1.346526   -4.688879   5.382831
N    3.171030   -3.388070   4.770583
H    0.442074   -1.948647   1.823434
H   -1.246393   -1.830311   1.319122
H   -1.993746   -1.346961   3.517891
H   -0.528337   -0.482526   3.947751
H   -0.758105   -3.529571   3.717856
H   -0.791986   -2.588164   5.220913
H    1.531160   -1.732478   4.044537
H    0.326683   -4.678409   5.451945
H    3.683865   -4.211009   5.072379
H    3.521755   -3.011760   3.894005
O    0.830539    2.069780   2.117872
H    1.642459    2.417759   2.536898
