 26
Energy: -16507.53876815.7 eV PBE+vdW (tier 2 basis)
N    0.045760   -0.035410  -0.338241
C    0.332286   -0.452026   1.035019
C    1.682100   -1.134281   1.259881
O    2.352344   -1.043550   2.267098
H    0.278836   -0.784324  -0.991139
H    0.605247    0.777092  -0.596887
H    0.356455    0.447179   1.663876
C   -0.787212   -1.394659   1.549202
C   -2.002750   -0.706722   2.189548
C   -2.660825    0.446274   1.415500
N   -1.994207    1.720228   1.646995
C   -1.876933    2.728578   0.697327
N   -1.827780    2.612317  -0.583554
N   -1.702104    3.992720   1.280836
H   -0.370395   -2.092307   2.290875
H   -1.110767   -2.008488   0.694048
H   -1.724949   -0.340346   3.191924
H   -2.766721   -1.480388   2.362112
H   -3.724887    0.511511   1.708428
H   -2.638696    0.241811   0.338963
H   -1.975220    2.033030   2.612243
H   -1.772000    1.626597  -0.855054
H   -1.653239    4.706630   0.559074
H   -2.378751    4.232291   2.001541
O    2.055725   -1.912898   0.200047
H    2.902668   -2.325010   0.458517
