 26
Energy: -16507.64849915.7 eV PBE+vdW (tier 2 basis)
N    0.505849   -0.780305  -0.166625
C   -0.006999   -0.163341   1.054457
C    1.071354    0.016552   2.126128
O    1.919057   -0.803680   2.409321
H    1.207165   -0.180039  -0.602166
H    0.983046   -1.653343   0.069744
H   -0.393707    0.831600   0.793280
C   -1.150848   -1.034869   1.616507
C   -1.831561   -0.534148   2.894434
C   -2.556000    0.810303   2.735172
N   -3.274100    1.254464   3.931017
C   -4.368251    0.566882   4.457565
N   -4.679109    0.449511   5.703472
N   -5.184755   -0.029225   3.496534
H   -0.741965   -2.041273   1.797620
H   -1.887062   -1.138977   0.805482
H   -1.102045   -0.454714   3.716662
H   -2.568345   -1.286394   3.211062
H   -3.258695    0.751375   1.890773
H   -1.845680    1.609995   2.484453
H   -2.665555    1.609382   4.662025
H   -3.932375    0.802085   6.308634
H   -6.043631   -0.367677   3.920017
H   -5.352952    0.523912   2.661194
O    0.980634    1.226166   2.755319
H    1.692927    1.235120   3.425558
