 26
Energy: -16507.66914815.7 eV PBE+vdW (tier 2 basis)
N    0.070621   -1.184738   0.290867
C   -0.177115   -0.916265   1.702747
C    1.025068   -1.044606   2.646579
O    1.185116   -0.389499   3.655984
H    0.264237   -2.178647   0.139385
H    0.877159   -0.657866  -0.042457
H   -0.494340    0.133890   1.804815
C   -1.305338   -1.805287   2.270047
C   -2.663708   -1.652436   1.569109
C   -2.858693   -2.471165   0.280841
N   -2.783155   -3.918183   0.472959
C   -1.625600   -4.673678   0.406642
N   -1.488177   -5.679971   1.202861
N   -0.690464   -4.232687  -0.546392
H   -1.419660   -1.541174   3.330550
H   -0.985257   -2.859097   2.253794
H   -2.845711   -0.591438   1.332134
H   -3.453480   -1.943498   2.280785
H   -2.113943   -2.163828  -0.461123
H   -3.847719   -2.236024  -0.141551
H   -3.385363   -4.287896   1.204869
H   -0.667726   -6.241512   0.961776
H    0.024520   -4.925775  -0.741599
H   -1.097055   -3.864404  -1.403722
O    1.910548   -2.004718   2.249106
H    2.601715   -2.023475   2.939230
