 26
Energy: -16507.70196315.7 eV PBE+vdW (tier 2 basis)
N    0.115115   -0.689163  -0.390033
C   -0.029015   -0.377133   1.027726
C    1.209546    0.152803   1.754377
O    1.185024    0.919858   2.694014
H    0.428206    0.127505  -0.913838
H    0.814104   -1.418644  -0.536069
H   -0.767021    0.432986   1.119180
C   -0.544630   -1.605138   1.820392
C   -1.739286   -2.310014   1.168312
C   -2.960453   -1.405164   0.942177
N   -4.006707   -1.994764   0.126177
C   -3.859210   -2.099929  -1.257088
N   -2.915903   -1.640139  -2.000426
N   -4.917155   -2.813915  -1.838547
H   -0.794568   -1.266573   2.836981
H    0.279134   -2.328854   1.928078
H   -2.031517   -3.161078   1.803479
H   -1.434737   -2.731961   0.201304
H   -2.656654   -0.473448   0.444559
H   -3.402993   -1.111477   1.906106
H   -4.519503   -2.761790   0.550995
H   -2.120246   -1.282267  -1.461897
H   -4.856195   -2.768378  -2.851898
H   -5.838980   -2.545657  -1.502679
O    2.371592   -0.358646   1.251960
H    3.085401    0.011674   1.806586
