 26
Energy: -16507.65540915.7 eV PBE+vdW (tier 2 basis)
N    0.051682   -1.410038  -0.001249
C   -0.224478   -0.334108   0.970157
C    0.867314    0.749790   0.826838
O    0.745157    1.880225   1.240876
H   -0.394339   -1.227290  -0.899765
H    1.743179   -0.626626  -0.058931
H   -1.190127    0.166858   0.794824
C   -0.217889   -0.917280   2.396014
C   -0.574724    0.067212   3.510474
C   -0.639908   -0.630225   4.876363
N   -0.983357    0.247059   5.994667
C   -0.116385    1.235248   6.470829
N   -0.447348    2.394392   6.925777
N    1.229666    0.874320   6.439995
H    0.772757   -1.361881   2.589366
H   -0.941435   -1.752096   2.405212
H   -1.548239    0.536771   3.295274
H    0.159128    0.883141   3.552933
H    0.323507   -1.114663   5.088250
H   -1.387747   -1.438597   4.857036
H   -1.943877    0.576503   5.971627
H   -1.435953    2.596071   6.751792
H    1.795639    1.568036   6.919525
H    1.435787   -0.073791   6.741321
O    1.985139    0.299943   0.220914
H   -0.289146   -2.310973   0.332882
