 26
Energy: -16507.66474415.7 eV PBE+vdW (tier 2 basis)
N    0.359935   -0.612250   0.185383
C   -0.103971    0.036550   1.421421
C    0.986105    0.970255   1.957974
O    1.845140    0.686577   2.772765
H    1.200509   -1.162956   0.371902
H    0.597918    0.079610  -0.525865
H   -0.977337    0.653331   1.160587
C   -0.482002   -1.019079   2.456197
C   -1.062632   -0.441136   3.757385
C   -0.685624   -1.257376   5.000079
N    0.765971   -1.288783   5.204899
C    1.533037   -2.441327   5.055617
N    2.726410   -2.512371   4.569403
N    0.903904   -3.609663   5.493144
H    0.422282   -1.603819   2.682954
H   -1.192802   -1.710006   1.984008
H   -2.158732   -0.366884   3.693815
H   -0.704880    0.590854   3.911537
H   -1.038492   -2.292444   4.896694
H   -1.186660   -0.827828   5.883237
H    1.245376   -0.475079   4.824935
H    2.998017   -1.621459   4.143135
H    1.558576   -4.386331   5.486823
H    0.408663   -3.526422   6.376927
O    0.944820    2.186942   1.343851
H    1.715626    2.687361   1.677257
