 26
Energy: -16507.70900815.7 eV PBE+vdW (tier 2 basis)
N    0.577059    0.887111   0.352141
C    0.451726    0.458022   1.743938
C    1.798291    0.091770   2.371868
O    2.670593   -0.555916   1.830985
H    1.075466    0.169493  -0.179227
H    1.143080    1.734277   0.289576
H    0.025954    1.292821   2.317704
C   -0.496936   -0.757786   1.814164
C   -0.768092   -1.338998   3.205316
C   -1.484624   -0.369227   4.156305
N   -1.841483   -0.950538   5.443468
C   -2.940250   -1.784058   5.556475
N   -3.732393   -1.975907   4.557419
N   -3.029766   -2.369024   6.831829
H   -0.072943   -1.545012   1.170876
H   -1.440108   -0.442889   1.344093
H    0.171499   -1.682242   3.669680
H   -1.404443   -2.226944   3.089298
H   -2.418255   -0.025478   3.691368
H   -0.862101    0.513217   4.360696
H   -1.063134   -1.190333   6.048935
H   -4.556108   -2.513317   4.836687
H   -3.907441   -2.851459   6.993445
H   -2.802193   -1.743102   7.600948
O    1.929241    0.577026   3.642948
H    2.805594    0.275126   3.954958
