 26
Energy: -16507.80055415.7 eV PBE+vdW (tier 2 basis)
N   -1.228386   -0.438074   0.370142
C   -0.471506   -0.392755   1.632233
C    1.024225   -0.270546   1.361926
O    1.550572   -0.420671   0.277314
H   -0.565776   -0.590833  -0.395880
H   -1.662295    0.465851   0.191743
H   -0.765889    0.501817   2.201721
C   -0.753997   -1.610197   2.554318
C   -0.162511   -2.965147   2.143720
C   -0.582392   -3.505907   0.761670
N   -1.996562   -3.375062   0.448023
C   -2.926309   -4.190465   1.056521
N   -2.565383   -5.180656   1.804235
N   -4.246678   -3.785840   0.786202
H   -1.848130   -1.688810   2.631412
H   -0.387359   -1.363093   3.560924
H   -0.465945   -3.698076   2.903843
H    0.939047   -2.923404   2.171871
H   -0.323650   -4.570875   0.709301
H   -0.026588   -2.993482  -0.035972
H   -2.276840   -2.405408   0.287176
H   -3.372654   -5.743314   2.082944
H   -4.939959   -4.486222   1.027091
H   -4.391115   -3.426490  -0.154462
O    1.728744   -0.001649   2.491668
H    2.669742    0.016316   2.228766
