 26
Energy: -16507.62156615.7 eV PBE+vdW (tier 2 basis)
N    0.011861    0.306211   0.055524
C    0.312639   -0.044722   1.443981
C    1.688216   -0.693474   1.457866
O    2.081410   -1.498133   0.639457
H    0.178251   -0.507148  -0.540940
H   -0.972326    0.558783  -0.036153
H    0.367966    0.881746   2.032385
C   -0.716246   -1.010960   2.096785
C   -0.481614   -1.405112   3.560771
C   -0.558962   -0.235072   4.540577
N   -0.422823   -0.707338   5.912452
C   -0.798037    0.114967   6.962630
N   -1.387273    1.239938   6.744673
N   -0.429558   -0.422451   8.208536
H   -0.754981   -1.918696   1.475137
H   -1.701663   -0.525210   2.005980
H    0.493369   -1.911802   3.659415
H   -1.240047   -2.149100   3.847732
H   -1.531582    0.269533   4.471337
H    0.204174    0.528160   4.309204
H    0.413413   -1.254958   6.094586
H   -1.700383    1.667364   7.619606
H   -0.838847    0.067518   8.996943
H   -0.556881   -1.428679   8.288437
O    2.436115   -0.303558   2.526488
H    3.276922   -0.798287   2.459084
