 26
Energy: -16507.98699715.7 eV PBE+vdW (tier 2 basis)
N    2.437744    0.263258   1.250806
C    1.056546    0.228275   1.740522
C    0.702947   -1.154201   2.335265
O    1.619577   -2.038873   2.343810
H    2.931073    1.085664   1.591164
H    2.908571   -0.569269   1.614222
H    0.884413    0.957088   2.552718
C    0.057913    0.599877   0.609309
C    0.077023   -0.313191  -0.635137
C   -0.994546   -1.418529  -0.713788
N   -0.821489   -2.491580   0.269068
C   -0.104238   -3.602190   0.082245
N    0.583504   -4.104583   1.108167
N   -0.082223   -4.205421  -1.138594
H    0.320574    1.618287   0.288068
H   -0.953857    0.652633   1.037515
H    1.080788   -0.754083  -0.743899
H   -0.076048    0.307572  -1.531607
H   -0.993256   -1.846609  -1.725825
H   -1.993910   -0.989341  -0.552243
H   -0.863798   -2.165589   1.270523
H    0.988294   -3.390065   1.811526
H   -0.849201   -4.065787  -1.781562
H    0.518994   -5.000957  -1.296362
O   -0.501165   -1.343551   2.669624
H    0.988769   -5.028835   1.030464
