 26
Energy: -16507.71743315.7 eV PBE+vdW (tier 2 basis)
N    0.666214    0.345344   0.347094
C    1.177890    0.112952   1.700570
C    2.536619   -0.592195   1.686200
O    2.785094   -1.609706   1.070516
H    1.276876    0.989474  -0.157409
H    0.682755   -0.534399  -0.174391
H    1.302127    1.087775   2.192460
C    0.168436   -0.727179   2.499552
C    0.553962   -0.966734   3.959783
C   -0.480469   -1.791307   4.740861
N   -1.802041   -1.190363   4.863838
C   -2.029994   -0.161732   5.759353
N   -1.104381    0.231322   6.566695
N   -3.325739    0.369511   5.635455
H    0.037128   -1.691518   1.979141
H   -0.789514   -0.190510   2.431408
H    0.703085   -0.009978   4.481046
H    1.512044   -1.508354   4.016014
H   -0.110522   -1.955402   5.760306
H   -0.612418   -2.776823   4.268142
H   -2.363131   -1.156104   4.019996
H   -1.467284    0.907653   7.242244
H   -3.571768    1.011483   6.381348
H   -4.055628   -0.322784   5.483937
O    3.467436    0.056077   2.441073
H    4.287355   -0.473220   2.374755
