 26
Energy: -16507.74737915.7 eV PBE+vdW (tier 2 basis)
N   -0.289417   -0.038441  -0.059917
C   -0.270865   -0.047810   1.400060
C    1.101183   -0.301384   2.056044
O    1.294530   -0.821572   3.136594
H    0.057358   -0.931239  -0.440643
H    0.330342    0.689872  -0.412060
H   -0.529789    0.973934   1.735447
C   -1.327854   -0.990194   2.002400
C   -1.185184   -2.465984   1.591965
C   -1.901146   -2.810521   0.271943
N   -1.414625   -4.023601  -0.375271
C   -0.212564   -4.005653  -1.051526
N    0.445213   -2.903589  -1.215203
N    0.185046   -5.280305  -1.478236
H   -2.317688   -0.609709   1.707944
H   -1.262616   -0.908026   3.094528
H   -1.579211   -3.109050   2.393533
H   -0.120493   -2.722494   1.494601
H   -1.788686   -1.992317  -0.447947
H   -2.979770   -2.936269   0.446271
H   -1.620655   -4.897301   0.098551
H    1.245476   -3.038540  -1.836300
H   -0.568229   -5.871231  -1.820627
H    0.976567   -5.273716  -2.112161
O    2.128723    0.182794   1.297221
H    2.936246    0.011424   1.819089
