 26
Energy: -16507.65894315.7 eV PBE+vdW (tier 2 basis)
N    0.331060    1.610062   1.227524
C   -0.112627    0.598176   2.187739
C    0.940236    0.127963   3.192458
O    0.736869   -0.099449   4.366577
H    1.158410    1.278907   0.729111
H    0.601742    2.468202   1.707638
H   -0.912301    1.038818   2.801253
C   -0.678250   -0.631946   1.448645
C   -1.976863   -0.328009   0.698219
C   -2.394976   -1.441111  -0.262349
N   -1.459528   -1.550845  -1.374919
C   -1.389613   -2.716081  -2.118406
N   -2.051195   -3.766238  -1.771465
N   -0.568333   -2.569061  -3.250827
H   -0.847433   -1.441921   2.174261
H    0.083655   -0.996725   0.741551
H   -1.862409    0.619871   0.148463
H   -2.792888   -0.168703   1.420059
H   -3.423786   -1.262344  -0.622459
H   -2.410943   -2.419725   0.234697
H   -1.334389   -0.699957  -1.915548
H   -1.801004   -4.568196  -2.354951
H   -0.361159   -3.446565  -3.715798
H    0.275345   -2.022589  -3.093839
O    2.168421   -0.042215   2.615503
H    2.750855   -0.373014   3.326231
