 26
Energy: -16507.61000315.7 eV PBE+vdW (tier 2 basis)
N    0.445553    0.401000   0.657619
C   -0.018128   -0.067068   1.959960
C    1.046597   -0.857675   2.728433
O    2.040974   -1.353870   2.239662
H    1.001386   -0.331980   0.211478
H    1.085628    1.185798   0.780044
H   -0.271188    0.810053   2.573408
C   -1.307298   -0.911800   1.833663
C   -1.147509   -2.188532   1.003909
C   -2.425058   -3.028168   0.937352
N   -2.772199   -3.546823   2.249949
C   -3.925662   -4.252714   2.547747
N   -3.923168   -5.016944   3.588617
N   -5.020772   -3.975790   1.725064
H   -2.061968   -0.264585   1.362982
H   -1.673270   -1.160310   2.839117
H   -0.331981   -2.814685   1.404650
H   -0.858090   -1.932741  -0.025890
H   -2.286926   -3.834624   0.189979
H   -3.244308   -2.383938   0.577607
H   -1.997135   -3.886973   2.812329
H   -4.844701   -5.427181   3.755323
H   -5.766986   -4.657414   1.793369
H   -4.827250   -3.707466   0.765884
O    0.739021   -0.971902   4.049814
H    1.447120   -1.512989   4.451177
