 26
Energy: -16507.65214915.7 eV PBE+vdW (tier 2 basis)
N   -0.461723    0.583125   1.640471
C    0.863688    0.003154   1.444441
C    1.693205    0.561902   0.285319
O    2.899982    0.685599   0.291098
H   -0.397687    1.591364   1.779293
H   -1.040463    0.438855   0.811670
H    1.465101    0.219471   2.339523
C    0.772580   -1.530394   1.265234
C    0.042647   -2.259359   2.397219
C    0.698797   -2.083957   3.772807
N    0.112119   -2.945691   4.786576
C    0.510298   -4.267227   4.948355
N    1.360748   -4.936807   4.249647
N   -0.122455   -4.879499   6.036730
H    1.796371   -1.921153   1.160056
H    0.260900   -1.740810   0.312497
H    0.009793   -3.330983   2.152038
H   -0.998247   -1.914689   2.461118
H    0.568669   -1.049340   4.116729
H    1.790111   -2.254467   3.699397
H   -0.192266   -2.489508   5.638700
H    1.851490   -4.341994   3.577912
H    0.090893   -5.872562   6.060952
H   -1.121649   -4.702302   6.098327
O    0.925824    0.890012  -0.796358
H    1.551273    1.195258  -1.481751
