 26
Energy: -16507.55949215.7 eV PBE+vdW (tier 2 basis)
N   -0.547957   -0.272357   0.796501
C    0.209781   -0.135967   2.044577
C    1.664431    0.242891   1.785424
O    2.589639    0.028109   2.538057
H   -0.371742    0.515595   0.175072
H   -1.546695   -0.283190   1.002326
H   -0.150481    0.706305   2.676522
C    0.098396   -1.409377   2.898152
C    0.688217   -2.659008   2.237743
C    0.321889   -3.965348   2.953328
N    0.761519   -4.042680   4.347391
C   -0.002149   -3.625641   5.426857
N    0.580106   -3.029957   6.412753
N   -1.372645   -3.898293   5.306712
H   -0.971822   -1.570347   3.108380
H    0.576896   -1.223613   3.868737
H    1.785306   -2.568032   2.194642
H    0.336795   -2.724944   1.196604
H    0.759198   -4.813526   2.404352
H   -0.767088   -4.104098   2.929860
H    1.731939   -3.776538   4.500193
H   -0.053693   -2.915330   7.207919
H   -1.883199   -3.759839   6.171912
H   -1.598292   -4.790638   4.873989
O    1.819913    0.933297   0.617241
H    2.767309    1.167073   0.574131
