 26
Energy: -16507.62030615.7 eV PBE+vdW (tier 2 basis)
N    0.448668    0.058656   0.090065
C    0.402032    0.081727   1.555417
C    1.784171   -0.075073   2.178663
O    1.996090   -0.405799   3.325896
H    1.186024    0.666495  -0.263262
H   -0.437119    0.399536  -0.282849
H    0.064670    1.061602   1.959967
C   -0.580457   -0.977806   2.083128
C   -0.172647   -2.419758   1.770151
C   -1.293683   -3.442603   1.988382
N   -2.402463   -3.315334   1.050539
C   -3.589303   -2.700529   1.395035
N   -3.808984   -2.284315   2.596088
N   -4.452867   -2.569594   0.290373
H   -1.562966   -0.758315   1.638955
H   -0.703312   -0.845459   3.165948
H    0.679234   -2.709764   2.404696
H    0.179426   -2.479103   0.727417
H   -1.727031   -3.342244   2.991403
H   -0.878612   -4.458889   1.901831
H   -2.149684   -3.246900   0.070223
H   -4.771318   -1.956741   2.702290
H   -4.467586   -3.376363  -0.329853
H   -5.393034   -2.290067   0.550026
O    2.791200    0.265985   1.321863
H    3.615518    0.175146   1.838066
