 26
Energy: -16507.66644915.7 eV PBE+vdW (tier 2 basis)
N    0.032311    0.236146  -0.111664
C   -0.196267   -0.162988   1.273956
C    0.851586    0.279973   2.298667
O    0.614316    0.574398   3.451268
H    0.921122   -0.137367  -0.448156
H    0.094637    1.251016  -0.189275
H   -1.128675    0.310052   1.614503
C   -0.347365   -1.698439   1.384847
C   -1.440234   -2.293294   0.490813
C   -2.853700   -1.781370   0.809278
N   -3.917612   -2.458907   0.087355
C   -4.369037   -3.721268   0.454861
N   -4.077365   -4.405235   1.507437
N   -5.253636   -4.260663  -0.487787
H   -0.543410   -1.946670   2.439255
H    0.619341   -2.162445   1.131302
H   -1.421939   -3.387496   0.602451
H   -1.214326   -2.075925  -0.563097
H   -3.063156   -1.872493   1.886905
H   -2.930731   -0.711022   0.571278
H   -3.942486   -2.280692  -0.912110
H   -3.329504   -3.968881   2.050758
H   -5.674990   -5.113083  -0.129326
H   -5.954197   -3.607790  -0.830016
O    2.117096    0.283647   1.784331
H    2.702541    0.540342   2.522925
