 26
Energy: -16507.69381315.7 eV PBE+vdW (tier 2 basis)
N    1.017771   -0.169209   0.085882
C    0.516457   -0.004762   1.450265
C    1.610794   -0.477162   2.396688
O    2.283153   -1.472383   2.231936
H    1.411649   -1.107142  -0.015669
H    0.252870   -0.082777  -0.583656
H    0.352083    1.066938   1.632544
C   -0.792873   -0.789396   1.749314
C   -1.368541   -0.675552   3.166833
C   -1.831853    0.740171   3.550292
N   -2.387743    0.851430   4.887589
C   -1.569764    0.921465   6.013764
N   -0.291812    1.064068   6.067252
N   -2.303381    0.813135   7.201950
H   -0.600221   -1.848127   1.518065
H   -1.541444   -0.440474   1.017939
H   -0.638631   -1.031811   3.909045
H   -2.231278   -1.356179   3.244411
H   -2.596162    1.085636   2.836517
H   -1.002222    1.457629   3.478861
H   -3.255031    0.344172   5.038170
H    0.140806    1.002310   5.143183
H   -1.710296    1.010386   8.003120
H   -3.159487    1.361599   7.221058
O    1.729243    0.327624   3.487058
H    2.404476   -0.079882   4.065662
