 26
Energy: -16507.62864815.7 eV PBE+vdW (tier 2 basis)
N   -0.050461   -1.858047  -0.506552
C   -0.377000   -1.090913   0.701420
C    0.769767   -1.087012   1.714580
O    1.454179   -0.126031   2.001583
H    0.805528   -1.507433  -0.937714
H    0.108448   -2.839410  -0.271920
H   -0.496305   -0.038952   0.404404
C   -1.686194   -1.605859   1.308470
C   -2.151477   -0.810985   2.530454
C   -3.452720   -1.336947   3.153733
N   -3.351586   -2.681630   3.724217
C   -3.531716   -3.856270   2.995412
N   -2.897077   -4.968148   3.158402
N   -4.515538   -3.776958   2.010052
H   -1.560382   -2.666726   1.572373
H   -2.448334   -1.570701   0.516594
H   -2.303918    0.246273   2.256687
H   -1.367048   -0.808707   3.306871
H   -4.248645   -1.343926   2.398514
H   -3.778327   -0.651425   3.950638
H   -2.612985   -2.777153   4.415255
H   -2.103272   -4.852387   3.794891
H   -4.696001   -4.695635   1.616196
H   -5.368355   -3.297777   2.285250
O    0.989559   -2.325804   2.252465
H    1.768391   -2.228382   2.833463
