 26
Energy: -16507.61172615.7 eV PBE+vdW (tier 2 basis)
N    0.652392   -1.644943  -0.073265
C    0.083321   -0.733868   0.923981
C    1.159716   -0.254961   1.886158
O    1.279513    0.879959   2.298830
H   -0.051256   -1.882934  -0.772002
H    0.948963   -2.517826   0.366075
H   -0.242423    0.177460   0.405844
C   -1.104153   -1.281341   1.762874
C   -2.404987   -1.468181   0.970069
C   -3.059987   -0.174117   0.451051
N   -3.412960    0.799526   1.486892
C   -2.457844    1.635920   2.066370
N   -2.423348    1.751285   3.350105
N   -1.608553    2.237861   1.138811
H   -1.290887   -0.608911   2.613490
H   -0.799217   -2.249001   2.191559
H   -3.127816   -1.992728   1.615502
H   -2.240622   -2.139504   0.108858
H   -3.978250   -0.434854  -0.095728
H   -2.404020    0.324027  -0.274107
H   -3.999005    0.416814   2.226568
H   -1.789414    2.501678   3.637427
H   -0.885392    2.825841   1.535829
H   -2.047942    2.621491   0.307875
O    1.969442   -1.272201   2.297346
H    2.600152   -0.873979   2.927864
