 26
Energy: -16507.78710215.7 eV PBE+vdW (tier 2 basis)
N    0.275591   -0.143964   0.294725
C    0.123979    0.060097   1.737325
C    1.494706    0.385209   2.319222
O    2.489724    0.613461   1.662426
H    1.091578    0.372519  -0.039135
H   -0.546416    0.182441  -0.210176
H   -0.489315    0.953824   1.969591
C   -0.551809   -1.136573   2.442562
C    0.239471   -2.464332   2.446620
C   -0.207923   -3.500188   1.413089
N    0.117166   -3.082529   0.066039
C   -0.371235   -3.761724  -1.031134
N   -1.032996   -4.871005  -1.063771
N   -0.095300   -3.099786  -2.238206
H   -1.532069   -1.288723   1.964263
H   -0.762459   -0.828522   3.475011
H    0.134383   -2.927599   3.437043
H    1.317186   -2.273640   2.316835
H   -1.297456   -3.673539   1.532477
H    0.285401   -4.461927   1.633345
H    0.259335   -2.067561  -0.045655
H   -1.267192   -5.191723  -0.121537
H   -0.298552   -3.706891  -3.027331
H    0.841740   -2.708802  -2.291639
O    1.479362    0.429623   3.676126
H    2.385744    0.671956   3.948078
