 26
Energy: -16507.67251515.7 eV PBE+vdW (tier 2 basis)
N    0.914842   -0.305163  -0.266668
C    0.503156   -0.346077   1.142737
C    1.685748   -0.137140   2.090507
O    1.890459    0.856459   2.755835
H    1.350870    0.590709  -0.487806
H    1.607402   -1.031521  -0.456644
H   -0.160081    0.512512   1.318288
C   -0.259003   -1.643470   1.432257
C   -0.809452   -1.735163   2.856386
C   -1.542658   -3.062174   3.106329
N   -2.147257   -3.194723   4.419340
C   -3.359305   -2.589926   4.737246
N   -4.180377   -1.974852   3.958051
N   -3.661768   -2.703343   6.099391
H    0.404332   -2.500224   1.229337
H   -1.078591   -1.699800   0.699997
H   -1.494663   -0.895997   3.051921
H    0.008246   -1.641901   3.589863
H   -0.843732   -3.901926   2.971901
H   -2.334304   -3.206088   2.354831
H   -1.494744   -3.252632   5.195418
H   -3.791371   -1.837948   3.022734
H   -4.605454   -2.373926   6.282089
H   -3.498804   -3.626451   6.493425
O    2.552705   -1.197180   2.073874
H    3.292134   -0.943946   2.659371
