 26
Energy: -16507.69416415.7 eV PBE+vdW (tier 2 basis)
N    0.010445   -1.091435  -0.360441
C    0.009657   -0.677521   1.043169
C    1.351997   -0.949907   1.728732
O    1.949241   -2.006322   1.693250
H    0.321809   -2.063206  -0.427866
H    0.679240   -0.536264  -0.895572
H   -0.179985    0.404554   1.080791
C   -1.113290   -1.412804   1.793831
C   -1.267852   -1.009728   3.261030
C   -2.441959   -1.720295   3.930883
N   -2.565490   -1.314018   5.320326
C   -3.621636   -1.765865   6.106141
N   -4.644612   -2.458885   5.743320
N   -3.482358   -1.386196   7.446129
H   -0.924211   -2.496165   1.719762
H   -2.041909   -1.213418   1.239317
H   -1.411635    0.078884   3.344092
H   -0.343319   -1.245739   3.814837
H   -2.319152   -2.816840   3.830319
H   -3.376161   -1.455557   3.411103
H   -1.684183   -1.235243   5.820835
H   -4.554214   -2.790311   4.780423
H   -4.321244   -1.615855   7.971416
H   -3.198458   -0.419660   7.583632
O    1.825730    0.141957   2.394393
H    2.674575   -0.132053   2.796085
