 26
Energy: -16507.64406915.7 eV PBE+vdW (tier 2 basis)
N    0.458792    0.628663  -0.031852
C    0.267204    0.176413   1.346731
C    1.471464    0.363136   2.274948
O    1.416299    0.740119   3.427058
H    0.728566    1.612451  -0.052161
H    1.220579    0.108146  -0.469787
H   -0.529451    0.787768   1.796143
C   -0.169334   -1.302237   1.411221
C   -1.556294   -1.608603   0.827919
C   -1.607019   -1.715346  -0.704738
N   -2.890652   -2.174791  -1.219145
C   -3.240103   -3.510605  -1.159180
N   -2.400623   -4.399401  -0.746947
N   -4.570598   -3.729628  -1.560371
H   -0.158879   -1.600855   2.469827
H    0.594136   -1.923101   0.912859
H   -2.276388   -0.846582   1.170369
H   -1.892479   -2.572763   1.234472
H   -0.853204   -2.439778  -1.041324
H   -1.377126   -0.747618  -1.166257
H   -3.664916   -1.526202  -1.123291
H   -2.770099   -5.343645  -0.878608
H   -4.796325   -4.710762  -1.685622
H   -4.866633   -3.175962  -2.361023
O    2.651364    0.034951   1.667635
H    3.341943    0.157001   2.347380
