 26
Energy: -16507.91598915.7 eV PBE+vdW (tier 2 basis)
N    0.144336   -0.230463   0.283504
C    0.603900   -0.140157   1.677894
C    2.115226   -0.488643   1.738793
O    2.733408   -0.616798   2.774471
H   -0.495208    0.542601   0.046358
H    1.870304   -0.441543  -0.083871
H    0.572050    0.923619   1.963476
C   -0.170244   -0.981018   2.707883
C   -1.678055   -0.724584   2.836886
C   -2.108170    0.655478   3.362207
N   -2.004533    1.761444   2.398764
C   -2.671898    1.727880   1.182098
N   -2.008570    1.972468   0.096358
N   -4.015078    1.392466   1.277084
H    0.323251   -0.847038   3.681288
H   -0.022902   -2.043166   2.448701
H   -2.081164   -1.479640   3.529962
H   -2.188443   -0.905137   1.876892
H   -1.504597    0.941846   4.235368
H   -3.145995    0.595332   3.718782
H   -1.054692    2.085750   2.243498
H   -2.626579    2.097614  -0.709981
H   -4.553542    1.494974   0.425533
H   -4.502794    1.708214   2.109569
O    2.663228   -0.603368   0.519586
H   -0.350532   -1.107049   0.115765
