 26
Energy: -16507.68710815.7 eV PBE+vdW (tier 2 basis)
N    1.486363    0.522814   0.896403
C    1.423497    0.212078   2.329863
C    2.799528   -0.031438   2.953379
O    3.310682    0.645795   3.821473
H    2.068954    1.344859   0.733104
H    1.916189   -0.251440   0.387293
H    1.030892    1.099720   2.845973
C    0.477207   -0.971334   2.570096
C    0.306398   -1.343813   4.043629
C   -0.704180   -2.482277   4.230664
N   -0.880416   -2.915523   5.609445
C    0.041719   -3.766108   6.195833
N    1.006354   -4.274250   5.507737
N   -0.206434   -3.947547   7.566801
H    0.850537   -1.844688   2.011298
H   -0.490263   -0.698053   2.121140
H   -0.022139   -0.460716   4.617111
H    1.266205   -1.666289   4.473166
H   -0.374443   -3.362341   3.663404
H   -1.690538   -2.183661   3.843032
H   -1.278669   -2.227161   6.240348
H    1.519769   -4.971734   6.051109
H   -1.189617   -4.036888   7.812180
H    0.351242   -4.684049   7.985709
O    3.430701   -1.106535   2.394607
H    4.291870   -1.178608   2.848923
