 26
Energy: -16507.49609015.7 eV PBE+vdW (tier 2 basis)
N   -0.946889    0.512707   0.819214
C   -0.151424   -0.221505   1.806657
C    1.299477   -0.407782   1.376577
O    2.113853   -1.053114   2.002214
H   -0.452939    1.342489   0.493492
H   -1.820062    0.822680   1.244658
H   -0.056598    0.318386   2.772056
C   -0.790706   -1.589940   2.136567
C   -0.681343   -2.684097   1.067020
C   -1.376082   -2.388937  -0.263473
N   -1.297444   -3.552339  -1.133866
C   -1.585252   -3.550272  -2.491813
N   -1.688756   -4.590570  -3.251829
N   -1.677086   -2.286725  -3.070473
H   -1.849161   -1.401938   2.379516
H   -0.322225   -1.961149   3.057879
H   -1.115752   -3.603392   1.495753
H    0.376878   -2.916311   0.873865
H   -0.883464   -1.542322  -0.756006
H   -2.423114   -2.077799  -0.068427
H   -1.456005   -4.448872  -0.687499
H   -1.478540   -5.449258  -2.735980
H   -2.143877   -1.564290  -2.532586
H   -2.004454   -2.352555  -4.028805
O    1.608826    0.252174   0.227319
H    2.556551    0.075661   0.066675
