 26
Energy: -16507.61861115.7 eV PBE+vdW (tier 2 basis)
N    0.026910   -0.037410   0.240306
C    0.042506   -0.230219   1.691584
C    1.424343   -0.477596   2.298917
O    1.866415    0.063824   3.289724
H    0.487294   -0.821156  -0.224902
H    0.543291    0.803622  -0.016598
H   -0.313607    0.697577   2.161576
C   -0.903698   -1.378062   2.098030
C   -2.371016   -1.062773   1.802483
C   -3.309208   -2.259835   2.006538
N   -3.325114   -2.835634   3.354886
C   -3.727050   -2.119806   4.482961
N   -3.248151   -2.227606   5.675564
N   -4.759656   -1.213459   4.247069
H   -0.766197   -1.577518   3.171772
H   -0.591916   -2.291131   1.561566
H   -2.463299   -0.721325   0.760858
H   -2.706601   -0.232006   2.441961
H   -3.032334   -3.077038   1.323412
H   -4.331651   -1.969740   1.725961
H   -2.536990   -3.442057   3.555817
H   -2.407530   -2.811895   5.688883
H   -5.123417   -0.849145   5.122407
H   -5.491630   -1.534860   3.620453
O    2.133487   -1.414673   1.597316
H    2.983481   -1.511828   2.068202
