 26
Energy: -16507.74505315.7 eV PBE+vdW (tier 2 basis)
N    0.866895   -0.427885   1.021869
C   -0.116621   -0.173666   2.072783
C    0.383197    0.857513   3.082268
O    0.034538    0.935056   4.241689
H    0.450917   -0.967108   0.248506
H    1.238929    0.443155   0.648502
H   -1.048417    0.294636   1.682233
C   -0.546504   -1.465129   2.792383
C    0.608248   -2.272202   3.424682
C    0.929459   -3.588807   2.703325
N    1.271805   -3.371954   1.291750
C    0.412030   -3.711068   0.264644
N    0.204526   -2.867508  -0.700190
N   -0.185549   -4.964493   0.400729
H   -1.089655   -2.083794   2.063065
H   -1.273358   -1.181423   3.563240
H    0.373531   -2.507476   4.472527
H    1.520989   -1.656908   3.453899
H    0.064863   -4.265102   2.754343
H    1.764333   -4.091272   3.217942
H    1.641767   -2.429053   1.131472
H   -0.310651   -3.296384  -1.472583
H   -0.700344   -5.279654  -0.413116
H    0.398066   -5.689283   0.808152
O    1.240684    1.759006   2.521006
H    1.457067    2.393464   3.231345
