 26
Energy: -16507.86682515.7 eV PBE+vdW (tier 2 basis)
N    1.165478   -0.662836   0.580996
C    0.564310   -0.638800   1.919706
C    1.329241   -1.486730   2.942005
O    1.789967   -2.582561   2.659482
H    2.064291   -0.177874   0.609804
H    1.395220   -1.636439   0.359115
H    0.528781    0.403236   2.269439
C   -0.878813   -1.195538   1.819276
C   -1.887265   -0.865423   2.932112
C   -1.667120   -1.414539   4.352178
N   -1.455048   -2.855870   4.397638
C   -0.489687   -3.506640   5.111552
N    0.500903   -2.878884   5.680406
N   -0.652944   -4.888847   5.112623
H   -0.809426   -2.286657   1.678411
H   -1.281254   -0.791424   0.879166
H   -2.874383   -1.209320   2.578536
H   -1.981061    0.227831   3.031769
H   -2.552881   -1.154465   4.957303
H   -0.804821   -0.938989   4.823856
H   -2.034227   -3.435148   3.802126
H    1.079773   -3.508865   6.234146
H    0.033542   -5.405251   5.648785
H   -1.599037   -5.237686   5.228002
O    1.348123   -0.945718   4.166359
H    1.232306   -1.719910   4.859118
