 26
Energy: -16507.72115415.7 eV PBE+vdW (tier 2 basis)
N    0.189654   -0.557988  -0.093337
C   -0.199293   -0.278027   1.301667
C    1.056251    0.087959   2.091026
O    1.859954   -0.697586   2.562906
H    0.856705   -1.332248  -0.120424
H    0.651584    0.251328  -0.510668
H   -0.862263    0.599144   1.285321
C   -0.944071   -1.483515   1.881283
C   -1.729515   -1.237766   3.176111
C   -0.898585   -0.942201   4.438879
N    0.126915   -1.933133   4.762440
C   -0.174623   -3.262017   5.048369
N    0.532936   -4.295436   4.738762
N   -1.370914   -3.445393   5.746436
H   -0.233526   -2.313182   2.022931
H   -1.644355   -1.808441   1.099245
H   -2.339920   -2.130357   3.375500
H   -2.438535   -0.405507   3.029845
H   -1.585452   -0.828049   5.289905
H   -0.382703    0.025721   4.353787
H    0.960831   -1.840384   4.185737
H    1.304464   -4.037727   4.116717
H   -1.446713   -4.404827   6.071388
H   -1.547066   -2.771019   6.485895
O    1.249120    1.435945   2.140071
H    2.108713    1.573154   2.585755
