 26
Energy: -16507.72451715.7 eV PBE+vdW (tier 2 basis)
N   -0.244339   -0.902912  -0.308980
C   -0.068246   -0.231124   0.974004
C    1.400949   -0.038303   1.357989
O    2.321083   -0.724731   0.964779
H    0.052769   -0.291647  -1.069879
H    0.377840   -1.714129  -0.346425
H   -0.529453    0.766690   0.912515
C   -0.767951   -1.016889   2.105295
C   -2.282295   -1.096683   1.911003
C   -3.025095   -1.893401   2.992581
N   -2.959705   -1.335122   4.332484
C   -2.032504   -1.714240   5.293050
N   -1.151729   -2.653632   5.248822
N   -2.115469   -0.914819   6.442392
H   -0.527355   -0.548493   3.069877
H   -0.335428   -2.030969   2.134197
H   -2.499553   -1.546821   0.931385
H   -2.698125   -0.074653   1.874786
H   -2.646134   -2.924768   3.040658
H   -4.085322   -1.975895   2.706869
H   -3.307394   -0.386527   4.430331
H   -1.090952   -3.079283   4.321956
H   -3.063033   -0.752277   6.774448
H   -1.521080   -1.292912   7.174909
O    1.567660    0.994688   2.230154
H    2.517165    1.007070   2.461579
