 26
Energy: -16507.54366615.7 eV PBE+vdW (tier 2 basis)
N    0.205589   -0.632689  -0.219332
C   -0.066663   -0.369521   1.205397
C    1.156159    0.371407   1.750487
O    1.933274   -0.021792   2.590642
H   -0.604048   -1.088885  -0.640600
H    0.352026    0.244102  -0.720407
H   -0.930702    0.312680   1.359270
C   -0.334467   -1.686324   1.945199
C   -1.239815   -1.580384   3.179213
C   -0.668509   -0.783514   4.365214
N   -1.489759   -0.839151   5.564184
C   -1.487169   -1.945734   6.406601
N   -0.704197   -2.968363   6.390469
N   -2.497272   -1.872402   7.375774
H    0.627610   -2.148118   2.208948
H   -0.816864   -2.368112   1.228953
H   -1.468918   -2.598212   3.528181
H   -2.206899   -1.135398   2.887428
H   -0.547092    0.277372   4.102995
H    0.339529   -1.140791   4.618157
H   -2.390697   -0.375346   5.494519
H   -0.093318   -2.969249   5.570775
H   -2.382318   -2.615762   8.059246
H   -2.584660   -0.962469   7.821697
O    1.284937    1.588249   1.143221
H    2.101174    1.985642   1.504201
