 26
Energy: -16507.69387815.7 eV PBE+vdW (tier 2 basis)
N   -0.097271    0.048852  -0.043611
C   -0.062025    0.011877   1.418375
C    1.361029   -0.141046   1.964061
O    2.174464   -0.949962   1.567328
H    0.406529   -0.759916  -0.415114
H    0.391237    0.875298  -0.390392
H   -0.471916    0.959807   1.795260
C   -0.936655   -1.149250   1.922347
C   -1.045555   -1.253729   3.444324
C   -2.010082   -2.356441   3.875476
N   -2.074966   -2.448169   5.323874
C   -2.827277   -3.441116   5.944333
N   -3.441187   -4.432976   5.398835
N   -2.883406   -3.270688   7.332558
H   -0.531138   -2.088463   1.511914
H   -1.929909   -1.008487   1.471596
H   -1.385143   -0.287808   3.856047
H   -0.060116   -1.454117   3.892195
H   -1.657868   -3.324309   3.485207
H   -3.007257   -2.174587   3.428026
H   -2.094241   -1.554154   5.807333
H   -3.441303   -4.362645   4.378920
H   -3.326517   -4.072162   7.772688
H   -1.992339   -3.042217   7.765641
O    1.631295    0.747093   2.963015
H    2.548262    0.562826   3.249541
