 26
Energy: -16507.69102215.7 eV PBE+vdW (tier 2 basis)
N   -0.336617    0.179973   0.227031
C    0.067176    0.120891   1.627269
C    1.561071   -0.033245   1.920825
O    2.121680    0.426788   2.894544
H   -0.055234   -0.671064  -0.261580
H    0.116254    0.957957  -0.251725
H   -0.199685    1.080671   2.094811
C   -0.682397   -1.015475   2.358623
C   -2.197551   -0.807495   2.450867
C   -2.621550    0.413096   3.288836
N   -2.108914    0.457458   4.648454
C   -2.612605   -0.350778   5.659505
N   -3.655112   -1.108667   5.637034
N   -1.838013   -0.289983   6.823888
H   -0.258834   -1.130449   3.367549
H   -0.473012   -1.960049   1.832111
H   -2.638604   -1.717621   2.883062
H   -2.618863   -0.692412   1.441770
H   -3.719540    0.461370   3.334557
H   -2.307386    1.342271   2.791794
H   -1.125088    0.689579   4.742525
H   -4.063101   -1.167139   4.701959
H   -2.309030   -0.763805   7.589312
H   -1.533045    0.644119   7.084904
O    2.210358   -0.779020   0.981366
H    3.135953   -0.845488   1.286842
