 26
Energy: -16507.62889915.7 eV PBE+vdW (tier 2 basis)
N   -0.025458    1.939973   1.641321
C    0.028084    0.571387   2.150545
C    1.356222    0.301271   2.844632
O    1.499730   -0.407579   3.817860
H    0.673149    2.083121   0.910958
H   -0.938483    2.132755   1.230971
H   -0.730961    0.476325   2.941044
C   -0.204410   -0.567952   1.118266
C   -1.613247   -0.562979   0.526211
C   -1.839696   -1.658335  -0.532112
N   -1.029280   -1.549536  -1.733245
C   -1.278722   -0.596042  -2.712730
N   -2.287326    0.198779  -2.821193
N   -0.258965   -0.541633  -3.671011
H   -0.015369   -1.534962   1.612855
H    0.546213   -0.458546   0.318433
H   -1.827181    0.416994   0.072099
H   -2.352482   -0.707591   1.331078
H   -2.897182   -1.667284  -0.835722
H   -1.640405   -2.646784  -0.091808
H   -0.052642   -1.804656  -1.631801
H   -2.899771    0.152698  -2.004432
H   -0.533613    0.056318  -4.445482
H    0.067810   -1.449140  -3.993247
O    2.402600    0.894952   2.204491
H    3.202005    0.638223   2.703524
