 26
Energy: -16507.65906115.7 eV PBE+vdW (tier 2 basis)
N   -0.054799    0.641962   1.905915
C    0.839899   -0.481455   1.655125
C    1.818195   -0.243798   0.502780
O    1.620666    0.489436  -0.443751
H   -0.494602    0.923062   1.026350
H    0.476958    1.453295   2.222319
H    1.443550   -0.649521   2.560049
C    0.033737   -1.762729   1.340529
C   -0.904503   -2.201200   2.470158
C   -0.191407   -2.628253   3.764254
N    0.799730   -3.692345   3.624119
C    0.493088   -4.954795   3.128294
N    1.344801   -5.536204   2.351866
N   -0.686991   -5.510411   3.617153
H    0.730474   -2.576325   1.090637
H   -0.558785   -1.574535   0.431169
H   -1.513806   -3.040244   2.099707
H   -1.597968   -1.382824   2.712196
H   -0.942542   -2.918622   4.516512
H    0.329478   -1.771273   4.213863
H    1.695899   -3.399329   3.244388
H    1.088243   -6.512056   2.180385
H   -1.113982   -6.214096   3.028687
H   -1.354737   -4.894555   4.066437
O    2.953268   -0.982546   0.646485
H    3.494512   -0.817648  -0.150421
