 26
Energy: -16507.57952815.7 eV PBE+vdW (tier 2 basis)
N    0.289444   -0.756637  -0.517071
C   -0.012424   -0.279171   0.838725
C    1.290859    0.053347   1.552372
O    1.539432    1.086318   2.133833
H   -0.573653   -0.872213  -1.048186
H    0.741604   -1.671687  -0.476789
H   -0.528372    0.683001   0.742546
C   -0.845604   -1.238870   1.732076
C   -2.301626   -1.436321   1.276566
C   -3.326738   -0.427772   1.821116
N   -3.144910    0.958790   1.413657
C   -2.387938    1.836267   2.173260
N   -1.935002    1.494115   3.329069
N   -2.161421    3.047831   1.501486
H   -0.841832   -0.859437   2.764339
H   -0.327023   -2.210070   1.735578
H   -2.642022   -2.431990   1.602079
H   -2.357851   -1.464907   0.173041
H   -3.299732   -0.427324   2.918028
H   -4.334818   -0.745208   1.512051
H   -3.126085    1.134233   0.414605
H   -1.463410    2.274496   3.789651
H   -1.709782    3.752803   2.073810
H   -2.965193    3.421924   1.003117
O    2.173924   -0.989306   1.498845
H    2.966444   -0.690426   1.984639
