 26
Energy: -16507.70618815.7 eV PBE+vdW (tier 2 basis)
N    0.254248    0.319236  -0.743284
C   -0.249270    0.784484   0.543804
C    0.856671    1.051012   1.567881
O    1.952281    0.529525   1.570603
H    0.910284   -0.449829  -0.588035
H    0.792859    1.056083  -1.199358
H   -0.786407    1.732559   0.384602
C   -1.238592   -0.234977   1.147498
C   -2.492848   -0.429135   0.294459
C   -3.473265   -1.439057   0.889722
N   -4.024956   -0.975656   2.157534
C   -4.459762   -1.880615   3.110436
N   -4.280683   -3.147585   2.957724
N   -5.113654   -1.242206   4.179928
H   -1.522497    0.090028   2.158319
H   -0.715893   -1.199098   1.264556
H   -2.204871   -0.764293  -0.711253
H   -2.996988    0.543907   0.155473
H   -2.980013   -2.396951   1.098535
H   -4.276525   -1.656883   0.163762
H   -4.579619   -0.126564   2.105080
H   -4.551797   -3.661805   3.799088
H   -5.291907   -1.856332   4.967496
H   -4.682658   -0.370264   4.478666
O    0.465009    1.945535   2.521417
H    1.212812    2.017653   3.146583
