 26
Energy: -16507.76671415.7 eV PBE+vdW (tier 2 basis)
N    0.075920    0.321687  -0.409777
C    0.099955    0.237149   1.053083
C    1.443848    0.694487   1.625490
O    2.500215    0.671778   1.028349
H    0.890388   -0.175276  -0.780293
H    0.198267    1.294109  -0.698179
H   -0.677641    0.906444   1.450979
C   -0.185282   -1.195651   1.568253
C   -1.652890   -1.665882   1.554702
C   -2.224280   -2.195239   0.238281
N   -2.439608   -1.150665  -0.741618
C   -3.324663   -1.336402  -1.775655
N   -4.089591   -2.377592  -1.826689
N   -3.357940   -0.253777  -2.675290
H    0.170323   -1.239719   2.607558
H    0.446749   -1.899536   1.000644
H   -2.302078   -0.860828   1.934931
H   -1.727730   -2.488291   2.282448
H   -3.196121   -2.671878   0.419122
H   -1.564817   -2.994500  -0.156060
H   -1.637455   -0.527391  -0.887967
H   -4.749461   -2.305764  -2.604753
H   -3.649772   -0.515049  -3.610722
H   -2.525091    0.329168  -2.690411
O    1.328871    1.121109   2.912744
H    2.231761    1.352105   3.207236
