 26
Energy: -16507.64600415.7 eV PBE+vdW (tier 2 basis)
N   -0.786078   -0.624548  -0.088484
C   -0.476628   -0.359273   1.314352
C    0.982178   -0.666325   1.660917
O    1.604624   -1.644498   1.297400
H   -0.556454   -1.596867  -0.307439
H   -0.208842   -0.046105  -0.700079
H   -0.636746    0.711755   1.506625
C   -1.452419   -1.166206   2.198522
C   -1.209116   -1.097209   3.715364
C   -0.328669   -2.225871   4.278717
N   -0.967946   -3.532287   4.221681
C   -0.640320   -4.528051   3.306854
N    0.161750   -4.484798   2.303721
N   -1.312180   -5.727790   3.593398
H   -1.436148   -2.215167   1.864539
H   -2.451344   -0.783913   1.950753
H   -2.177507   -1.146478   4.234055
H   -0.764602   -0.127487   3.991499
H   -0.091601   -2.006074   5.330046
H    0.638476   -2.277051   3.756629
H   -1.335126   -3.879116   5.100148
H    0.689900   -3.612145   2.233269
H   -1.162125   -6.396804   2.843241
H   -2.301456   -5.615269   3.801732
O    1.540915    0.302967   2.442617
H    2.459609    0.014579   2.614986
