 26
Energy: -16507.59931815.7 eV PBE+vdW (tier 2 basis)
N   -0.474995    0.132397  -0.012450
C   -0.215983   -0.007997   1.418434
C    1.248028   -0.054539   1.868603
O    1.639560    0.241661   2.978285
H   -0.044431    0.985007  -0.370316
H   -0.071088   -0.638636  -0.542928
H   -0.619759    0.891820   1.905863
C   -0.971699   -1.212198   2.037776
C   -0.368999   -2.614033   1.868283
C   -0.303854   -3.150739   0.430069
N    0.046579   -4.562693   0.344206
C   -0.909361   -5.533940   0.590933
N   -2.142666   -5.214259   0.786401
N   -0.353284   -6.824246   0.623369
H   -1.986874   -1.186949   1.615112
H   -1.066042   -1.017738   3.115032
H   -0.994039   -3.309769   2.445813
H    0.637153   -2.650120   2.319228
H    0.443037   -2.602347  -0.162926
H   -1.281857   -3.034599  -0.054433
H    0.981729   -4.803003   0.657653
H   -2.737850   -6.044382   0.831079
H   -1.047884   -7.563408   0.640679
H    0.357633   -6.997026  -0.083549
O    2.097946   -0.494433   0.891254
H    2.983365   -0.501923   1.304519
