 26
Energy: -16507.62984415.7 eV PBE+vdW (tier 2 basis)
N    2.235308   -0.163638   0.630387
C    0.885835   -0.408378   1.127918
C    0.102664    0.881700   1.394322
O    0.587255    1.989852   1.489262
H    2.199192    0.100706  -0.353969
H    2.632928    0.645363   1.112767
H    0.329132   -0.968797   0.362379
C    0.906516   -1.285634   2.402580
C    1.637391   -0.660046   3.590842
C    1.663086   -1.597094   4.807051
N    2.394121   -1.066244   5.948689
C    3.686515   -1.410310   6.310570
N    4.235418   -1.235559   7.466292
N    4.424087   -2.030259   5.299803
H    1.397583   -2.229273   2.122157
H   -0.130044   -1.528400   2.681897
H    1.168291    0.292856   3.883638
H    2.672658   -0.415812   3.305028
H    2.106113   -2.564328   4.526282
H    0.630687   -1.809519   5.126114
H    1.852429   -0.634783   6.685540
H    3.553791   -0.915598   8.159898
H    5.389633   -2.145843   5.593032
H    4.347671   -1.617638   4.374284
O   -1.231651    0.645941   1.541439
H   -1.641608    1.512736   1.730799
