 26
Energy: -16507.61922015.7 eV PBE+vdW (tier 2 basis)
N   -0.247372    0.708173   0.361885
C   -0.100821    0.102639   1.676371
C    1.376445   -0.117229   1.949411
O    2.237753   -0.236377   1.101492
H   -1.178049    0.545116  -0.024470
H    0.453954    0.340201  -0.280876
H   -0.467584    0.803915   2.443674
C   -0.872781   -1.232293   1.890892
C   -0.362343   -2.425070   1.058145
C   -1.463038   -3.210906   0.330503
N   -2.035638   -2.503774  -0.820293
C   -3.012675   -1.516758  -0.732899
N   -3.102669   -0.456574  -1.466583
N   -3.974028   -1.732395   0.253535
H   -1.923011   -1.016689   1.649046
H   -0.855264   -1.483560   2.961248
H    0.198066   -3.120570   1.701158
H    0.359035   -2.080554   0.298986
H   -2.272902   -3.470491   1.024731
H   -1.054765   -4.162494  -0.040892
H   -1.341406   -2.274053  -1.525959
H   -2.281585   -0.350454  -2.069462
H   -4.745856   -1.080633   0.148366
H   -4.284222   -2.693923   0.357952
O    1.637904   -0.219665   3.281680
H    2.594522   -0.404615   3.352454
