 26
Energy: -16507.52906615.7 eV PBE+vdW (tier 2 basis)
N   -0.189435    0.260290  -0.054912
C   -0.071057    0.314641   1.402259
C    1.326773   -0.094552   1.856346
O    1.923685    0.433704   2.772059
H   -1.148585    0.472962  -0.330626
H    0.410470    0.954727  -0.500524
H   -0.198978    1.325458   1.832231
C   -1.157003   -0.597132   2.018491
C   -1.118522   -0.761915   3.544845
C   -0.323922   -1.982369   4.033921
N   -0.921268   -3.243170   3.599333
C   -0.224650   -4.319943   3.057464
N   -0.547866   -5.565844   3.161214
N    0.915746   -3.975443   2.334507
H   -1.114385   -1.582199   1.529575
H   -2.120189   -0.154996   1.720130
H   -2.149513   -0.855852   3.918648
H   -0.705689    0.140539   4.021820
H   -0.259111   -1.949701   5.135086
H    0.710797   -1.958355   3.675336
H   -1.729741   -3.538695   4.135820
H   -1.310578   -5.698291   3.831332
H    0.838138   -3.163526   1.725938
H    1.281234   -4.791241   1.852525
O    1.842154   -1.146111   1.159352
H    2.709491   -1.329103   1.572890
