 26
Energy: -16507.51867915.7 eV PBE+vdW (tier 2 basis)
N    0.233210    0.055146  -0.408299
C   -0.134763   -0.119308   0.994712
C    0.970402    0.374093   1.918476
O    0.789163    0.893504   2.999083
H   -0.549174   -0.185160  -1.016126
H    1.017289   -0.547844  -0.660057
H   -0.986084    0.544485   1.199764
C   -0.504770   -1.562378   1.447431
C   -1.685923   -2.185217   0.697717
C   -3.012828   -1.455324   0.898799
N   -4.094208   -2.205445   0.263583
C   -5.374872   -1.683030   0.119574
N   -6.037256   -1.954681  -0.952905
N   -5.785430   -0.875871   1.182172
H   -0.720826   -1.542747   2.527533
H    0.381150   -2.202724   1.313997
H   -1.804852   -3.226256   1.034480
H   -1.458971   -2.240361  -0.380924
H   -2.956100   -0.423120   0.505774
H   -3.204105   -1.367095   1.980830
H   -3.829676   -2.672069  -0.601141
H   -7.004421   -1.626359  -0.891781
H   -5.435300   -1.129685   2.101502
H   -6.777592   -0.669085   1.187508
O    2.212673    0.103676   1.428862
H    2.841801    0.424739   2.103535
