 26
Energy: -16507.79325215.7 eV PBE+vdW (tier 2 basis)
N   -0.852344    0.981699   0.902152
C   -0.652005   -0.050342   1.932231
C    0.827372   -0.394532   2.052904
O    1.697346   -0.003538   1.300441
H    0.052094    1.189748   0.470046
H   -1.182389    1.845719   1.326842
H   -0.961341    0.332942   2.917626
C   -1.494352   -1.330348   1.679666
C   -1.037178   -2.267351   0.552709
C   -0.941864   -1.642324  -0.856973
N   -2.057375   -0.799470  -1.243887
C   -3.300728   -1.319873  -1.560988
N   -3.635696   -2.548104  -1.777299
N   -4.288285   -0.327629  -1.638737
H   -2.521900   -0.990278   1.486124
H   -1.526742   -1.906645   2.615132
H   -1.745740   -3.108488   0.531552
H   -0.055683   -2.706291   0.796600
H   -0.822926   -2.443692  -1.601601
H   -0.035446   -1.026511  -0.932127
H   -2.058268    0.086095  -0.732228
H   -2.862527   -3.187600  -1.582037
H   -5.136486   -0.703942  -2.052800
H   -3.987392    0.527731  -2.098484
O    1.075046   -1.223633   3.098990
H    2.033913   -1.410708   3.078662
