 26
Energy: -16507.78928215.7 eV PBE+vdW (tier 2 basis)
N    0.714761   -2.103471   0.643610
C    0.048116   -1.079411   1.454466
C    1.052669   -0.177996   2.174184
O    2.199961   -0.476635   2.432581
H    1.424606   -2.556790   1.226520
H    1.238859   -1.652589  -0.109505
H   -0.543408   -0.437461   0.783907
C   -0.903405   -1.712185   2.504068
C   -2.353738   -1.888253   2.039643
C   -2.576814   -2.912960   0.921690
N   -2.187236   -4.257876   1.327180
C   -1.575816   -5.175575   0.477156
N   -1.871230   -6.425957   0.624432
N   -0.708997   -4.608036  -0.448230
H   -0.908292   -1.086779   3.407418
H   -0.486235   -2.687635   2.796734
H   -2.757208   -0.915870   1.712424
H   -2.956466   -2.184401   2.913478
H   -2.003247   -2.642157   0.028087
H   -3.640412   -2.884850   0.621823
H   -2.859171   -4.745054   1.914256
H   -1.270053   -7.017377   0.044951
H   -0.131381   -5.280737  -0.937799
H   -0.205376   -3.765202  -0.139848
O    0.500505    1.016650   2.522974
H    1.191103    1.505928   3.011748
