 26
Energy: -16507.62320015.7 eV PBE+vdW (tier 2 basis)
N   -0.579931    0.627051  -0.636110
C   -0.142884    0.198750   0.687014
C    1.303058   -0.310712   0.831706
O    1.773728   -0.766236   1.853266
H   -0.496626   -0.132130  -1.312512
H    0.014211    1.378804  -0.983452
H   -0.155253    1.091589   1.335723
C   -1.142266   -0.795153   1.320589
C   -1.490544   -2.028506   0.478032
C   -0.327103   -2.986860   0.222314
N   -0.772239   -4.130726  -0.554612
C    0.139117   -5.072234  -1.022361
N    1.424475   -5.042582  -0.942098
N   -0.491798   -6.157275  -1.640551
H   -2.068664   -0.236150   1.507929
H   -0.742494   -1.102766   2.296808
H   -1.928121   -1.722262  -0.484737
H   -2.288574   -2.574768   1.007600
H    0.132291   -3.285144   1.184036
H    0.461837   -2.485921  -0.360245
H   -1.667400   -4.521160  -0.272610
H    1.746075   -4.283491  -0.337198
H   -1.244506   -5.904198  -2.275263
H    0.191915   -6.766719  -2.080222
O    2.037594   -0.161637  -0.308517
H    2.932779   -0.486689  -0.089001
