 26
Energy: -16507.57022315.7 eV PBE+vdW (tier 2 basis)
N    0.720063   -0.307185   0.160177
C   -0.167763   -0.083638   1.318555
C    0.712095    0.509851   2.423961
O    1.252270   -0.116375   3.311370
H    1.094063    0.582096  -0.173853
H    0.179592   -0.706524  -0.608319
H   -0.971017    0.648818   1.112608
C   -0.775265   -1.419105   1.759722
C   -2.009037   -1.355807   2.673955
C   -1.858035   -0.629991   4.017158
N   -1.902298    0.814315   3.843009
C   -1.371618    1.742291   4.728455
N   -0.387531    1.595350   5.546175
N   -1.960199    3.007605   4.590248
H    0.020302   -2.008937   2.236350
H   -1.064841   -1.966300   0.848587
H   -2.315975   -2.390297   2.888762
H   -2.857663   -0.908345   2.126158
H   -0.899451   -0.898901   4.479113
H   -2.654061   -0.968428   4.705701
H   -2.652403    1.158360   3.252626
H    0.060990    0.682302   5.442979
H   -1.582094    3.647440   5.283438
H   -2.977097    3.012525   4.589103
O    0.856550    1.850993   2.272551
H    1.378465    2.156604   3.041683
