 26
Energy: -16507.62331215.7 eV PBE+vdW (tier 2 basis)
N    0.578449    0.206910   0.048695
C   -0.122670    0.103124   1.328678
C    0.814564    0.344299   2.509227
O    0.638348   -0.068467   3.636077
H    1.105629    1.076315  -0.012452
H   -0.093192    0.195904  -0.718627
H   -0.896819    0.891857   1.468505
C   -0.841730   -1.249241   1.459199
C    0.071908   -2.468164   1.319851
C   -0.674768   -3.804577   1.468910
N   -1.740201   -4.053792   0.510085
C   -1.497285   -4.391556  -0.813101
N   -0.372477   -4.657463  -1.382377
N   -2.674888   -4.425836  -1.575515
H   -1.622943   -1.278163   0.682330
H   -1.356866   -1.267058   2.431005
H    0.851884   -2.437466   2.096525
H    0.589937   -2.425138   0.352477
H   -1.124372   -3.867810   2.471393
H    0.041529   -4.637296   1.402762
H   -2.609111   -3.555780   0.669360
H    0.420020   -4.468364  -0.765390
H   -3.448460   -4.912250  -1.128430
H   -2.480512   -4.804551  -2.498570
O    1.861259    1.153438   2.182754
H    2.365158    1.282933   3.009544
