 26
Energy: -16507.75648015.7 eV PBE+vdW (tier 2 basis)
N    0.180130    0.268389  -0.113647
C    0.294826   -0.167628   1.267415
C    1.752795   -0.064481   1.686409
O    2.705302   -0.286316   0.968625
H   -0.770479    0.144949  -0.482425
H    0.840132   -0.238949  -0.703339
H   -0.284532    0.525936   1.897350
C   -0.180988   -1.611554   1.624580
C   -1.649918   -1.872058   1.250744
C   -1.821246   -2.492173  -0.147984
N   -3.162712   -2.373754  -0.702929
C   -3.582501   -1.163357  -1.219748
N   -2.766695   -0.164986  -1.311077
N   -4.938084   -1.169265  -1.572854
H   -0.038485   -1.758386   2.705671
H    0.477262   -2.339085   1.120768
H   -2.212436   -0.927217   1.286585
H   -2.112232   -2.538291   1.994977
H   -1.559090   -3.560164  -0.123879
H   -1.142197   -2.009659  -0.860136
H   -3.887745   -2.918421  -0.247195
H   -3.183753    0.615491  -1.821944
H   -5.231099   -0.351451  -2.096083
H   -5.266883   -2.030769  -2.001280
O    1.887780    0.254887   3.006336
H    2.848438    0.237992   3.185305
