 26
Energy: -16507.64068415.7 eV PBE+vdW (tier 2 basis)
N    0.310133   -0.038726  -0.087787
C    0.278833   -0.075776   1.372797
C    1.648784   -0.110936   2.055272
O    1.962786    0.545563   3.027424
H    0.742544   -0.887907  -0.455095
H    0.869640    0.746546  -0.421016
H   -0.174479    0.861738   1.727372
C   -0.625270   -1.242543   1.825314
C   -0.766303   -1.420470   3.346516
C    0.190534   -2.437964   3.991439
N   -0.069861   -3.819830   3.630259
C    0.624997   -4.543629   2.672950
N    1.617144   -4.181158   1.935207
N    0.110303   -5.840707   2.530623
H   -0.267420   -2.176187   1.363913
H   -1.603824   -1.037827   1.370679
H   -1.795018   -1.740442   3.574220
H   -0.636314   -0.453253   3.857311
H    0.118067   -2.345109   5.086505
H    1.237840   -2.219326   3.744838
H   -0.997716   -4.170135   3.843977
H    1.813732   -3.181091   2.004428
H    0.701686   -6.385318   1.909152
H   -0.062557   -6.325579   3.407789
O    2.514119   -0.980182   1.451564
H    3.349809   -0.925606   1.954846
