 26
Energy: -16507.68613815.7 eV PBE+vdW (tier 2 basis)
N   -0.280351   -1.880616  -1.958534
C    0.455389   -1.040933  -1.022291
C    1.787032   -1.647699  -0.577996
O    2.165998   -2.778299  -0.803504
H   -1.002052   -2.414429  -1.471653
H    0.345383   -2.556317  -2.398264
H    0.737272   -0.100710  -1.531332
C   -0.409937   -0.636151   0.194461
C   -0.506377   -1.637853   1.359987
C   -0.951606   -3.068070   1.037891
N   -2.226309   -3.091289   0.332880
C   -2.759836   -4.297066  -0.131434
N   -2.200321   -5.454356  -0.157597
N   -4.064022   -4.142182  -0.610888
H   -1.409506   -0.409092  -0.205289
H   -0.020404    0.306641   0.601106
H   -1.190477   -1.209113   2.111192
H    0.469163   -1.709124   1.864784
H   -0.995215   -3.644464   1.981252
H   -0.201484   -3.560145   0.401711
H   -2.930031   -2.461783   0.712135
H   -1.306812   -5.457200   0.338825
H   -4.382971   -4.991956  -1.067472
H   -4.209619   -3.319018  -1.189704
O    2.548096   -0.740959   0.100566
H    3.379034   -1.202435   0.326064
