 26
Energy: -16507.69659015.7 eV PBE+vdW (tier 2 basis)
N   -0.014859   -0.027125  -0.032332
C    0.153541   -0.130048   1.431030
C    1.635816   -0.455537   1.750382
O    2.029568   -0.734375   2.860939
H   -0.623125    0.744241  -0.297412
H    1.808681   -0.132874  -0.062845
H   -0.009223    0.874771   1.854956
C   -0.782564   -1.119109   2.134481
C   -2.250419   -0.693121   2.122586
C   -3.159623   -1.710396   2.807652
N   -4.547348   -1.253305   2.770666
C   -5.597355   -2.035480   3.243410
N   -6.710428   -2.031627   2.592787
N   -5.293730   -2.772898   4.388839
H   -0.424231   -1.235828   3.166927
H   -0.668221   -2.108995   1.658906
H   -2.596633   -0.551235   1.083929
H   -2.361554    0.282113   2.623550
H   -2.836535   -1.826327   3.853397
H   -3.040054   -2.702138   2.330500
H   -4.824650   -0.849854   1.878117
H   -7.444914   -2.533396   3.098608
H   -6.102449   -3.172517   4.850972
H   -4.646683   -2.340664   5.042089
O    2.440162   -0.367493   0.676772
H   -0.416409   -0.881905  -0.419503
