 26
Energy: -16507.66183415.7 eV PBE+vdW (tier 2 basis)
N   -0.566137    1.229893   1.295914
C   -0.038871    0.030294   1.932430
C    0.991729   -0.714577   1.079960
O    1.072682   -0.661473  -0.129293
H   -0.921256    0.993007   0.366630
H    0.183424    1.904729   1.141473
H    0.467964    0.327427   2.862945
C   -1.178986   -0.958746   2.278761
C   -2.309278   -0.354906   3.117916
C   -1.863055    0.154140   4.493729
N   -2.957634    0.638435   5.338175
C   -3.954540   -0.202062   5.834733
N   -5.196272    0.095016   6.015586
N   -3.509849   -1.482545   6.166345
H   -0.741802   -1.824387   2.798985
H   -1.598035   -1.343668   1.335059
H   -3.081060   -1.124919   3.264164
H   -2.774926    0.474187   2.566222
H   -1.159293    0.991366   4.384717
H   -1.317473   -0.637136   5.028970
H   -3.336382    1.530533   5.034893
H   -5.425436    1.003604   5.603130
H   -2.606515   -1.523464   6.629567
H   -4.230588   -1.987156   6.673884
O    1.819588   -1.484157   1.843091
H    2.410805   -1.949425   1.219161
