 26
Energy: -16507.89654515.7 eV PBE+vdW (tier 2 basis)
N   -0.328049    0.275523   0.070129
C   -0.208836    0.193685   1.530182
C    1.228584    0.502412   2.008823
O    2.191691   -0.014771   1.473410
H    0.435070   -0.271892  -0.338673
H   -0.165575    1.237687  -0.232253
H   -0.893513    0.944709   1.949734
C   -0.611628   -1.231978   1.963887
C   -0.656091   -1.548672   3.467699
C   -1.936492   -1.119475   4.200912
N   -2.146234    0.333648   4.289438
C   -1.324807    1.134419   5.062950
N   -0.745493    2.162760   4.513468
N   -1.184278    0.725186   6.370732
H    0.110736   -1.910878   1.484859
H   -1.587804   -1.445639   1.500751
H    0.221360   -1.127837   3.984513
H   -0.573686   -2.639974   3.589329
H   -1.933314   -1.534260   5.217384
H   -2.819078   -1.538289   3.695786
H   -2.289077    0.773924   3.384513
H   -0.324945    2.784245   5.209292
H   -0.631642    1.312039   6.981860
H   -1.970737    0.259925   6.809494
O    1.375954    1.367684   3.022225
H    0.493644    1.682140   3.413530
