 26
Energy: -16507.72692415.7 eV PBE+vdW (tier 2 basis)
N    0.002782   -0.057324   0.141046
C   -0.639049   -0.311360   1.426691
C    0.187629    0.163112   2.621951
O    1.397030    0.272816   2.639637
H    0.969284   -0.390610   0.175559
H    0.062773    0.947060  -0.028105
H   -1.596897    0.228222   1.458990
C   -0.919905   -1.820952   1.613328
C   -1.791072   -2.436833   0.512272
C   -3.221065   -1.884585   0.412451
N   -4.029994   -2.054188   1.621142
C   -4.043834   -1.147071   2.671746
N   -4.040019   -1.589460   3.883482
N   -4.043038    0.195330   2.266881
H   -1.382153   -1.974789   2.598727
H    0.047288   -2.348913   1.635906
H   -1.842392   -3.524682   0.682847
H   -1.305287   -2.293548  -0.464108
H   -3.737525   -2.385767  -0.419996
H   -3.195884   -0.817629   0.158293
H   -4.025313   -2.999076   1.999349
H   -4.209093   -0.837642   4.556668
H   -4.183440    0.847276   3.030559
H   -4.635948    0.404608   1.467616
O   -0.591570    0.438143   3.706197
H    0.024518    0.673551   4.427556
