 26
Energy: -16507.64711215.7 eV PBE+vdW (tier 2 basis)
N   -0.428782   -0.669349  -0.375768
C   -0.004591   -0.233987   0.970390
C    1.238021    0.678522   0.818778
O    1.961751    0.979954   1.741523
H   -1.437674   -0.798766  -0.428010
H    0.695093    0.671024  -0.952976
H   -0.795231    0.441992   1.337654
C    0.218653   -1.356293   2.013388
C   -0.453304   -1.137811   3.375010
C    0.102034    0.030820   4.187494
N   -0.542958    0.082002   5.490418
C   -0.180019    1.054201   6.419593
N    0.782802    1.904100   6.347579
N   -1.019260    1.047878   7.542452
H    1.298198   -1.506256   2.158757
H   -0.179940   -2.288845   1.587787
H   -0.344431   -2.056413   3.971614
H   -1.538714   -0.995999   3.222245
H   -0.014862    0.981273   3.634690
H    1.184082   -0.104053   4.331401
H   -1.539591   -0.119617   5.482497
H    1.229291    1.897143   5.427528
H   -0.657243    1.673799   8.256618
H   -1.212096    0.121410   7.914889
O    1.415689    1.129969  -0.435849
H    0.003469   -1.560864  -0.623129
