 26
Energy: -16507.59752515.7 eV PBE+vdW (tier 2 basis)
N    0.248789   -0.149979  -0.361260
C    0.119084    0.014784   1.078624
C    1.407928    0.143749   1.900647
O    1.531135    0.817827   2.902043
H    0.855447   -0.922473  -0.654133
H    0.648468    0.691441  -0.774958
H   -0.383173    0.979605   1.240605
C   -0.810335   -1.036922   1.748468
C   -0.268687   -2.420080   2.154982
C   -0.069572   -3.470114   1.057673
N    1.117683   -3.227762   0.243754
C    1.154448   -3.340144  -1.129050
N    1.912789   -2.532520  -1.799414
N    0.297211   -4.310098  -1.650425
H   -1.665625   -1.155774   1.066468
H   -1.195019   -0.567538   2.665209
H   -0.995404   -2.847924   2.862480
H    0.662945   -2.317775   2.736486
H   -0.953838   -3.491438   0.402582
H   -0.005014   -4.460707   1.543344
H    1.773899   -2.531171   0.587976
H    1.962113   -2.792008  -2.787117
H    0.412826   -4.482634  -2.642040
H    0.200240   -5.163833  -1.108418
O    2.438647   -0.609485   1.405115
H    3.193388   -0.456768   2.006578
