 26
Energy: -16507.66431815.7 eV PBE+vdW (tier 2 basis)
N    1.034258   -0.685631   0.866129
C   -0.067943   -0.496082   1.798227
C    0.443427    0.301185   2.993232
O    1.488024    0.916446   3.027341
H    0.697920   -1.086978  -0.010659
H    1.514538    0.194591   0.686823
H   -0.886877    0.144446   1.397444
C   -0.727677   -1.832960   2.189581
C    0.208815   -2.878926   2.812892
C    1.015066   -3.727680   1.814382
N    0.189452   -4.549116   0.928616
C   -0.283804   -4.177917  -0.321554
N   -1.370576   -4.584463  -0.888076
N    0.530458   -3.277831  -1.022040
H   -1.208082   -2.248794   1.290879
H   -1.544080   -1.607611   2.887394
H   -0.391555   -3.559206   3.439074
H    0.921813   -2.393315   3.498992
H    1.687955   -4.397098   2.372234
H    1.644328   -3.066653   1.210047
H   -0.447776   -5.177130   1.408783
H   -1.948140   -5.128217  -0.240874
H    0.229663   -3.236956  -1.992299
H    1.529053   -3.451842  -0.938862
O   -0.444112    0.309469   4.029149
H   -0.049339    0.892009   4.706330
