 26
Energy: -16507.81980615.7 eV PBE+vdW (tier 2 basis)
N   -0.147252    0.130477   0.036659
C    0.023001   -0.010849   1.495060
C    1.527985    0.132619   1.840606
O    1.985978   -0.100564   2.938765
H   -0.211238   -0.772321  -0.447309
H   -0.993413    0.647218  -0.193287
H   -0.453878    0.862622   1.968050
C   -0.570458   -1.280624   2.125915
C    0.104609   -2.578501   1.643564
C   -0.868490   -3.727888   1.318165
N   -1.982387   -3.387429   0.435774
C   -1.795338   -2.859077  -0.829218
N   -0.712506   -2.842644  -1.534957
N   -2.939714   -2.241150  -1.344680
H   -1.643833   -1.289374   1.883656
H   -0.489309   -1.195958   3.217247
H    0.814750   -2.936554   2.401072
H    0.719634   -2.371048   0.755535
H   -1.320967   -4.112117   2.242504
H   -0.309712   -4.569742   0.880530
H   -2.815405   -3.057318   0.910064
H    0.068233   -3.275813  -1.038811
H   -2.836103   -2.070835  -2.341261
H   -3.816390   -2.709557  -1.132367
O    2.261607    0.564968   0.801981
H    1.578866    0.635684   0.066937
