 26
Energy: -16507.78916115.7 eV PBE+vdW (tier 2 basis)
N    0.250913    0.081700   1.093210
C   -0.141341   -0.272060   2.460516
C    1.070524   -0.422068   3.383118
O    2.200593   -0.676792   3.020874
H    0.817631    0.931858   1.107653
H    0.870408   -0.645956   0.727968
H   -0.765335    0.540212   2.864278
C   -0.962419   -1.585835   2.511041
C   -2.456650   -1.494275   2.161272
C   -2.828452   -1.273402   0.686974
N   -2.542708    0.051235   0.163962
C   -3.422279    1.086024   0.397213
N   -4.562343    0.887811   0.975001
N   -2.982349    2.310587  -0.129777
H   -0.885574   -1.981246   3.533961
H   -0.459069   -2.323947   1.862658
H   -2.939960   -0.711695   2.765793
H   -2.917011   -2.445081   2.474838
H   -3.906336   -1.439124   0.570446
H   -2.302897   -2.007745   0.054911
H   -1.543793    0.282994   0.182347
H   -5.137002    1.733237   0.942657
H   -3.298791    3.127933   0.378514
H   -2.004277    2.363069  -0.397841
O    0.733572   -0.250447   4.691165
H    1.550132   -0.401491   5.206352
