 26
Energy: -16507.73014715.7 eV PBE+vdW (tier 2 basis)
N    0.187916   -0.654324   0.033546
C   -0.144686    0.093320   1.262324
C    1.112775    0.855797   1.755049
O    2.131656    0.825026   0.877365
H   -0.564450   -0.612683  -0.650566
H    1.773315    0.268156   0.129153
H   -0.851156    0.889323   0.979437
C   -0.778587   -0.719772   2.401951
C    0.059970   -1.906770   2.883795
C   -0.590999   -2.662982   4.058072
N   -0.614568   -1.958713   5.324907
C    0.497950   -1.909206   6.161764
N    1.625576   -2.518616   6.035634
N    0.288434   -1.071871   7.260721
H   -1.770415   -1.071972   2.074368
H   -0.938714   -0.019477   3.234545
H    1.061264   -1.562445   3.185040
H    0.204533   -2.637198   2.068942
H   -0.070459   -3.617798   4.219610
H   -1.629306   -2.922286   3.797240
H   -1.209468   -1.137755   5.370833
H    1.715515   -2.978178   5.127359
H    1.064302   -1.133994   7.913329
H   -0.611522   -1.183648   7.719819
O    1.156195    1.445033   2.811395
H    0.366801   -1.638649   0.233481
