 26
Energy: -16507.61925915.7 eV PBE+vdW (tier 2 basis)
N   -0.737432    0.574969   2.420178
C    0.596436    1.090359   2.119773
C    1.291664    0.344754   0.979122
O    1.029900   -0.784095   0.615926
H   -1.387018    0.856355   1.685120
H   -0.729127   -0.446494   2.397469
H    0.483846    2.137317   1.803546
C    1.521683    1.104914   3.367240
C    2.187848   -0.214382   3.781100
C    1.239348   -1.345934   4.207190
N    1.921193   -2.501229   4.793691
C    2.615492   -2.439854   6.001526
N    3.676074   -3.102638   6.316954
N    2.062863   -1.563482   6.935452
H    0.905883    1.491163   4.192719
H    2.317061    1.841973   3.187186
H    2.851375    0.003014   4.631293
H    2.840327   -0.582903   2.972211
H    0.676050   -1.730366   3.345886
H    0.492527   -0.961360   4.915970
H    2.396920   -3.084315   4.112302
H    4.060191   -3.597169   5.507033
H    2.499726   -1.689422   7.843570
H    1.048316   -1.559421   6.986223
O    2.289014    1.084922   0.421016
H    2.700840    0.519325  -0.261697
