 26
Energy: -16507.72626015.7 eV PBE+vdW (tier 2 basis)
N    0.368630   -0.654276   0.136929
C    0.124439   -0.284769   1.526470
C    1.406545   -0.173900   2.355964
O    2.464136   -0.702044   2.084299
H    1.025857   -1.437807   0.113009
H    0.832418    0.110212  -0.354213
H   -0.365547    0.701401   1.545155
C   -0.816072   -1.308567   2.202470
C   -2.211043   -1.318143   1.576599
C   -3.131120   -2.440188   2.079234
N   -2.681982   -3.785759   1.766768
C   -1.960928   -4.586926   2.642105
N   -1.652993   -4.373939   3.875287
N   -1.530388   -5.771847   2.029875
H   -0.881323   -1.082260   3.276942
H   -0.351773   -2.303741   2.119341
H   -2.107352   -1.394408   0.483374
H   -2.711867   -0.355093   1.772006
H   -4.132547   -2.299577   1.642979
H   -3.266624   -2.377599   3.168860
H   -2.504673   -3.968673   0.783932
H   -1.899429   -3.428343   4.174105
H   -2.238176   -6.238943   1.468558
H   -1.122719   -6.396668   2.719784
O    1.224381    0.583675   3.474790
H    2.072228    0.559615   3.960339
