 26
Energy: -16507.64584315.7 eV PBE+vdW (tier 2 basis)
N    0.814728    0.961113   0.138889
C    0.557366    0.386997   1.457756
C    1.790922   -0.390276   1.894843
O    2.852348   -0.410746   1.305514
H    0.288513    1.822818   0.010464
H    1.808862    1.165785   0.034517
H    0.434516    1.157654   2.248686
C   -0.723032   -0.478271   1.486859
C   -0.700301   -1.763608   0.647303
C   -0.918481   -1.554722  -0.859905
N   -1.011004   -2.796797  -1.616761
C   -2.161460   -3.559974  -1.595733
N   -3.224981   -3.146176  -0.992816
N   -1.996255   -4.788806  -2.262277
H   -1.559397    0.160745   1.160591
H   -0.927409   -0.733712   2.535766
H   -1.500896   -2.424609   1.007494
H    0.248391   -2.303320   0.808607
H   -0.110147   -0.948841  -1.285080
H   -1.861505   -1.014156  -1.016830
H   -0.148993   -3.322853  -1.713276
H   -4.015654   -3.768385  -1.175118
H   -2.868833   -5.285256  -2.409016
H   -1.454767   -4.731578  -3.121874
O    1.591721   -1.049944   3.068157
H    2.439431   -1.489665   3.272295
