 26
Energy: -16507.66253815.7 eV PBE+vdW (tier 2 basis)
N   -0.164734    0.902806   0.008804
C    0.221947    0.165509   1.205532
C    1.486712   -0.675005   1.022310
O    1.885340   -1.120505  -0.038881
H   -0.275585    0.259887  -0.777566
H    0.579233    1.545668  -0.264859
H    0.430173    0.893965   2.002679
C   -0.949842   -0.725115   1.694215
C   -1.250224   -1.955356   0.818230
C   -0.571347   -3.241817   1.319997
N   -0.635197   -4.333080   0.363214
C    0.464240   -4.998799  -0.154056
N    0.313678   -6.226261  -0.529017
N    1.645200   -4.253450  -0.178873
H   -1.819945   -0.056641   1.728428
H   -0.749969   -1.042449   2.729126
H   -0.940735   -1.788020  -0.224498
H   -2.336107   -2.122518   0.776691
H   -1.038168   -3.547713   2.272275
H    0.484291   -3.059375   1.556249
H   -1.433717   -4.956057   0.420744
H    1.147526   -6.573168  -1.008784
H    2.386260   -4.693883  -0.711387
H    1.573804   -3.254887  -0.370987
O    2.126208   -0.905829   2.198495
H    2.883557   -1.490037   1.994318
