 26
Energy: -16507.69854715.7 eV PBE+vdW (tier 2 basis)
N   -0.126116    0.481859   0.176054
C   -0.510094    0.049767   1.511349
C    0.329109    0.675626   2.630800
O    1.422997    1.182097   2.506464
H    0.891585    0.634592   0.086292
H   -0.561263    1.377182  -0.040772
H   -1.547590    0.370275   1.690577
C   -0.528056   -1.494684   1.689636
C    0.816644   -2.250079   1.690934
C    1.304812   -2.759335   0.322968
N    1.755956   -1.748140  -0.626137
C    2.856808   -0.940424  -0.373157
N    2.795144    0.306638  -0.711272
N    3.972057   -1.582407   0.154124
H   -1.175621   -1.890081   0.892208
H   -1.040578   -1.697164   2.640421
H    0.706076   -3.134855   2.337678
H    1.607173   -1.638304   2.155476
H    0.493574   -3.315808  -0.169922
H    2.104959   -3.501099   0.476173
H    0.992384   -1.166830  -0.976926
H    3.693694    0.778739  -0.588916
H    4.600012   -0.990912   0.683575
H    3.842811   -2.502218   0.559010
O   -0.297522    0.575073   3.842751
H    0.315617    0.969782   4.493272
