 26
Energy: -16507.91148415.7 eV PBE+vdW (tier 2 basis)
N    0.519813   -0.608001   3.292415
C    0.284328   -0.084296   1.936940
C    1.641341    0.323861   1.324484
O    1.817243    0.515146   0.140954
H    0.820634   -1.582232   3.235819
H    2.137086    0.222337   3.103727
H   -0.160447   -0.829608   1.254779
C   -0.616642    1.166298   1.926522
C   -2.012099    0.948745   2.539511
C   -2.109395    1.470439   3.986262
N   -3.192285    0.898673   4.772848
C   -3.062179   -0.372766   5.290118
N   -1.953469   -1.027996   5.157987
N   -4.230247   -0.832406   5.905390
H   -0.695700    1.482547   0.878943
H   -0.099598    1.984779   2.454952
H   -2.262675   -0.122056   2.531045
H   -2.774591    1.450257   1.925541
H   -2.233318    2.562993   3.985906
H   -1.180294    1.258756   4.530010
H   -4.135187    1.167061   4.511788
H   -1.965524   -1.893668   5.700560
H   -4.117320   -1.696355   6.423804
H   -4.746991   -0.134192   6.433288
O    2.601910    0.491210   2.255486
H   -0.326395   -0.619526   3.883919
