 26
Energy: -16507.78904915.7 eV PBE+vdW (tier 2 basis)
N    0.465097    0.354151   0.234804
C    0.856290   -0.332117   1.475505
C    2.116350   -1.167543   1.257247
O    3.236394   -0.896594   1.656154
H    0.292578   -0.320325  -0.512503
H    1.204122    0.981889  -0.082524
H    1.126192    0.444180   2.200688
C   -0.339166   -1.143419   1.999815
C   -0.115465   -2.019686   3.240833
C    0.273044   -1.283500   4.531501
N    1.629358   -0.776930   4.513436
C    1.950749    0.556670   4.609226
N    1.052228    1.430957   4.926674
N    3.312386    0.780867   4.349211
H   -0.698077   -1.786247   1.180262
H   -1.138098   -0.413568   2.196274
H    0.634631   -2.800125   3.025218
H   -1.052915   -2.563979   3.435089
H    0.133500   -1.961048   5.390362
H   -0.374049   -0.412789   4.702673
H    2.398370   -1.430805   4.450259
H    1.429249    2.378459   4.861108
H    3.556253    1.765595   4.339857
H    3.642093    0.303648   3.507582
O    1.885524   -2.261689   0.475865
H    2.755461   -2.684719   0.340682
