 26
Energy: -16507.74092915.7 eV PBE+vdW (tier 2 basis)
N    0.105084   -1.021255   0.001897
C   -0.074938   -0.186631   1.205212
C    1.322028    0.215596   1.721179
O    1.516408    1.140403   2.484676
H    0.109510   -0.460467  -0.849542
H    1.836753   -1.166823   0.608591
H   -0.613290    0.751897   0.998688
C   -0.868400   -0.981625   2.263660
C   -1.138023   -0.262352   3.597356
C   -0.138976   -0.613053   4.718871
N   -0.377164    0.079091   5.972060
C   -0.035486    1.411228   6.226113
N   -0.508141    2.125278   7.196666
N    0.958119    1.936309   5.424948
H   -0.348071   -1.937441   2.446845
H   -1.828218   -1.241296   1.790397
H   -2.145787   -0.532564   3.946728
H   -1.150313    0.827028   3.447784
H    0.894099   -0.416628   4.404030
H   -0.189697   -1.695408   4.918629
H   -1.214066   -0.205119   6.468769
H   -1.156664    1.583412   7.773792
H    1.102913    2.923889   5.597524
H    1.046820    1.659192   4.450883
O    2.306134   -0.569992   1.261579
H   -0.638633   -1.712667  -0.088335
