 26
Energy: -16507.69402415.7 eV PBE+vdW (tier 2 basis)
N    1.412373    1.538858   3.787388
C    2.062309    1.134066   2.531719
C    1.040047    1.058244   1.403502
O   -0.163007    1.142556   1.547105
H    0.403009    1.599153   3.627871
H    1.721563    2.468708   4.062375
H    2.802668    1.891186   2.228839
C    2.839624   -0.204963   2.655722
C    2.011623   -1.495896   2.733913
C    1.004399   -1.587385   3.903055
N    1.506946   -1.164661   5.197338
C    2.349510   -1.895949   6.014902
N    2.964217   -1.454241   7.063991
N    2.449927   -3.257198   5.713974
H    3.468396   -0.113142   3.552943
H    3.522884   -0.282940   1.798218
H    2.729622   -2.329871   2.796106
H    1.459200   -1.653756   1.792636
H    0.622092   -2.615234   3.981844
H    0.128489   -0.962972   3.679135
H    1.602760   -0.151943   5.268060
H    2.708083   -0.481452   7.253999
H    3.159004   -3.692492   6.296171
H    2.546620   -3.501600   4.733811
O    1.626713    0.854734   0.195820
H    0.899932    0.792192  -0.454439
