 26
Energy: -16507.82034615.7 eV PBE+vdW (tier 2 basis)
N   -0.005301    0.353801   0.573484
C    0.571405   -0.324921   1.731513
C    1.864287   -1.076791   1.406869
O    2.207275   -1.435435   0.299793
H    0.678169    0.996866   0.171044
H   -0.213983   -0.326417  -0.160465
H    0.820722    0.439842   2.483448
C   -0.427408   -1.326508   2.358742
C   -1.830370   -0.778127   2.673100
C   -1.875596    0.488843   3.532452
N   -1.643545    1.669480   2.717461
C   -1.287846    2.878424   3.282345
N   -1.261241    3.205540   4.531014
N   -0.891963    3.822714   2.322325
H    0.030007   -1.715339   3.279602
H   -0.532119   -2.187445   1.677971
H   -2.377427   -1.574614   3.197728
H   -2.386125   -0.591556   1.742025
H   -1.125717    0.411708   4.345443
H   -2.859849    0.563591   4.023951
H   -1.250823    1.468544   1.791618
H   -1.465896    2.404267   5.132083
H   -0.815901    4.744010   2.744325
H   -1.471099    3.836084   1.486721
O    2.597628   -1.321854   2.527042
H    3.382570   -1.826272   2.236338
