 26
Energy: -16507.85699915.7 eV PBE+vdW (tier 2 basis)
N   -0.005493    0.356353   0.205568
C    0.126378   -0.003110   1.617233
C    1.602052   -0.361038   1.884678
O    2.307940   -0.828566   1.008747
H   -0.904708    0.048195  -0.163965
H    0.726656   -0.142861  -0.308532
H   -0.128136    0.870474   2.235579
C   -0.786486   -1.194034   2.024116
C   -0.798548   -1.595646   3.505704
C   -1.719802   -0.778013   4.428491
N   -1.732012    0.675449   4.272918
C   -0.731703    1.513441   4.670730
N    0.465078    1.054370   4.903626
N   -1.101664    2.839475   4.834957
H   -0.473949   -2.057457   1.417109
H   -1.811724   -0.943122   1.699216
H   -1.141802   -2.638675   3.586346
H    0.221841   -1.591549   3.907809
H   -1.469252   -1.011539   5.474192
H   -2.761127   -1.091065   4.267595
H   -2.551869    1.088932   3.852057
H    1.054736    1.764779   5.340778
H   -0.395755    3.533607   4.621939
H   -2.046908    3.116892   4.597892
O    2.061524   -0.168519   3.123373
H    1.374667    0.253266   3.755377
