 26
Energy: -16507.63556215.7 eV PBE+vdW (tier 2 basis)
N    1.074178   -1.952980   0.968564
C    0.201950   -0.790069   1.227963
C    1.060226    0.202870   2.015599
O    1.116092    0.304490   3.225670
H    1.852586   -1.684462   0.365211
H    0.544511   -2.668033   0.468677
H   -0.118942   -0.274682   0.302792
C   -1.029567   -1.239576   2.020062
C   -2.242414   -0.298322   1.994428
C   -2.074346    1.066864   2.665762
N   -1.222834    1.954893   1.869161
C   -0.630170    3.116862   2.375414
N   -0.421481    4.208554   1.717669
N   -0.224598    3.021810   3.700369
H   -0.720756   -1.440827   3.055953
H   -1.348800   -2.206087   1.599054
H   -3.076700   -0.810859   2.496942
H   -2.575908   -0.149378   0.951925
H   -1.618229    0.941731   3.654435
H   -3.070105    1.517902   2.831933
H   -1.567877    2.099104   0.924111
H   -0.887639    4.188989   0.806170
H    0.222227    2.141375   3.954498
H    0.318574    3.836728   3.968032
O    1.843428    0.930274   1.178651
H    2.372953    1.530534   1.739176
