 26
Energy: -16507.60754815.7 eV PBE+vdW (tier 2 basis)
N    0.238960    0.525198  -0.420866
C   -0.080796    0.034340   0.913781
C    1.075279   -0.505452   1.773544
O    0.948675   -0.948287   2.895873
H    0.932966    1.270146  -0.373334
H    0.653362   -0.211009  -0.992212
H   -0.440119    0.898179   1.498592
C   -1.256346   -0.969646   0.881846
C   -1.105841   -2.174373  -0.056290
C    0.023969   -3.156062   0.301594
N    0.019495   -4.383015  -0.478470
C   -0.862574   -5.423546  -0.201485
N   -1.649322   -5.564485   0.808293
N   -0.838694   -6.411064  -1.194602
H   -2.144768   -0.402777   0.572659
H   -1.433418   -1.314982   1.910317
H   -0.975405   -1.831612  -1.095846
H   -2.057540   -2.726128  -0.047967
H   -0.028061   -3.428893   1.366163
H    1.009781   -2.688331   0.161348
H    0.223432   -4.267766  -1.466889
H   -1.673659   -4.728386   1.395900
H   -1.381275   -7.219016  -0.902079
H    0.093581   -6.674475  -1.503969
O    2.292812   -0.408110   1.161580
H    2.936895   -0.751259   1.811634
