 26
Energy: -16507.74379915.7 eV PBE+vdW (tier 2 basis)
N   -0.068446    0.068306   0.106074
C   -0.432386    0.234622   1.517229
C    0.768751    0.845306   2.229733
O    1.662721    1.437726   1.659676
H   -0.904679   -0.044044  -0.465301
H    0.427688    0.901308  -0.215398
H   -1.223079    1.004433   1.654747
C   -1.000662   -1.058385   2.140808
C   -0.068035   -2.241857   2.441936
C    0.667742   -2.886118   1.254124
N    1.847419   -2.162225   0.786455
C    3.005970   -2.060025   1.549628
N    3.813730   -1.055701   1.605898
N    3.291490   -3.192374   2.323451
H   -1.807058   -1.396738   1.467858
H   -1.498827   -0.773070   3.078372
H   -0.693941   -3.017681   2.911830
H    0.675916   -1.960735   3.201895
H   -0.011295   -2.987040   0.393975
H    0.959084   -3.906662   1.534946
H    1.585405   -1.298372   0.307086
H    3.424964   -0.239811   1.125917
H    4.229339   -3.118883   2.707588
H    3.139750   -4.081341   1.854249
O    0.707850    0.716355   3.576507
H    1.515483    1.144330   3.923109
