 26
Energy: -16507.98787515.7 eV PBE+vdW (tier 2 basis)
N    0.866112   -0.166533   0.378984
C    0.371852   -0.139550   1.764740
C    1.570194   -0.039726   2.734280
O    2.711993    0.300807   2.107188
H    0.152078    0.229824  -0.250508
H    2.427650    0.345765   1.144692
H   -0.147387    0.826283   1.881684
C   -0.586721   -1.274786   2.166812
C   -1.784564   -1.418991   1.220686
C   -2.701464   -0.182793   1.179800
N   -3.467748   -0.038217  -0.050004
C   -2.875720    0.455683  -1.192590
N   -1.642390    0.854116  -1.195509
N   -3.739413    0.438493  -2.293005
H   -0.912574   -1.100489   3.202394
H   -0.024876   -2.222609   2.186503
H   -2.371112   -2.305411   1.506347
H   -1.421169   -1.605820   0.199417
H   -2.110963    0.736056   1.276089
H   -3.409636   -0.197474   2.020178
H   -4.212467   -0.709228  -0.204981
H   -1.413583    1.321878  -2.075209
H   -3.380185    0.912962  -3.113833
H   -4.703001    0.693009  -2.093180
O    1.491791   -0.214786   3.931255
H    1.031284   -1.129154   0.076906
