 26
Energy: -16507.56091615.7 eV PBE+vdW (tier 2 basis)
N    0.536228   -0.529971   0.149777
C    0.190842   -0.197115   1.530013
C    1.415971   -0.026614   2.430508
O    2.519822   -0.477347   2.202962
H    0.855143    0.309065  -0.335362
H    1.335065   -1.167809   0.142233
H   -0.342594    0.764262   1.520095
C   -0.782374   -1.226149   2.166268
C   -0.200361   -2.558080   2.658172
C    0.380058   -3.477665   1.581168
N    0.677281   -4.784308   2.150730
C    1.002102   -5.916692   1.412863
N    1.414184   -7.043578   1.890145
N    0.757096   -5.814732   0.044729
H   -1.560597   -1.411539   1.411872
H   -1.271421   -0.739004   3.021694
H   -1.007547   -3.109240   3.164519
H    0.568160   -2.370101   3.427695
H    1.282034   -3.015373   1.135640
H   -0.358580   -3.606385   0.777057
H    1.098874   -4.770482   3.072860
H    1.426469   -7.032140   2.913589
H    1.103078   -6.636313  -0.441162
H    1.025392   -4.945541  -0.405469
O    1.122879    0.669245   3.563778
H    1.946402    0.695347   4.089869
