 26
Energy: -16507.81876115.7 eV PBE+vdW (tier 2 basis)
N   -1.282600   -0.736163  -0.106860
C   -0.489418   -0.234549   1.014310
C    0.983028   -0.027614   0.671411
O    1.550603   -0.634081  -0.227289
H   -1.595872    0.045082  -0.682421
H   -0.673712   -1.292462  -0.712569
H   -0.899096    0.730499   1.343325
C   -0.577077   -1.188952   2.240646
C   -0.125042   -2.649875   2.013455
C    1.193886   -3.069872   2.684121
N    2.395943   -2.482339   2.093859
C    3.158125   -1.463116   2.616307
N    3.937361   -0.676023   1.924970
N    3.033937   -1.232416   3.978388
H   -1.634760   -1.188176   2.533841
H   -0.011307   -0.741522   3.071056
H   -0.071552   -2.879571   0.937834
H   -0.898980   -3.326109   2.405209
H    1.278968   -4.167678   2.637477
H    1.158223   -2.802413   3.747745
H    2.407980   -2.490020   1.077660
H    3.901280   -0.922112   0.931070
H    3.759895   -0.605722   4.310238
H    2.908611   -2.046466   4.569563
O    1.590534    0.805816   1.528422
H    2.571628    0.586660   1.548316
