 26
Energy: -16507.55825215.7 eV PBE+vdW (tier 2 basis)
N   -0.409979   -0.440888   0.208345
C    0.119550   -0.203471   1.544935
C    1.636523   -0.270081   1.464612
O    2.261791   -0.947091   0.676246
H    0.109596   -1.201101  -0.234265
H   -1.394634   -0.699355   0.238798
H   -0.151127    0.816269   1.865243
C   -0.338464   -1.187367   2.658066
C   -1.838809   -1.112108   2.942559
C   -2.274367   -2.083488   4.040136
N   -3.704091   -1.983622   4.279391
C   -4.477631   -2.917987   4.954802
N   -5.734197   -2.811295   5.229919
N   -3.815500   -4.104351   5.272572
H    0.219099   -0.961519   3.580925
H   -0.060291   -2.209259   2.353076
H   -2.422720   -1.338773   2.036706
H   -2.100992   -0.081640   3.238862
H   -1.678446   -1.886319   4.954832
H   -2.051553   -3.112749   3.722618
H   -4.094459   -1.048683   4.272151
H   -6.136250   -1.963572   4.820566
H   -4.416794   -4.702448   5.831558
H   -2.883723   -4.011442   5.665718
O    2.230213    0.488316   2.425595
H    3.191473    0.340517   2.330432
