 26
Energy: -16507.66017115.7 eV PBE+vdW (tier 2 basis)
N   -0.151756    0.211780  -0.130653
C   -0.114663   -0.003094   1.315553
C    1.340054   -0.226360   1.702259
O    2.123187   -0.911041   1.077780
H    0.409058   -0.508741  -0.590309
H   -1.108280    0.117539  -0.473163
H   -0.461865    0.911531   1.820598
C   -0.975246   -1.195115   1.811875
C   -1.027478   -1.380904   3.330108
C   -2.041718   -2.434402   3.804415
N   -3.430797   -2.126351   3.517691
C   -4.125432   -2.593548   2.410575
N   -3.742685   -3.420034   1.499240
N   -5.409759   -2.037419   2.327281
H   -0.604961   -2.111828   1.325339
H   -1.991970   -1.024127   1.426355
H   -1.264431   -0.417527   3.812973
H   -0.038281   -1.671924   3.717386
H   -1.934770   -2.567061   4.892263
H   -1.816309   -3.413688   3.357743
H   -3.782195   -1.258193   3.908448
H   -2.752243   -3.656349   1.584385
H   -5.940008   -2.490230   1.587906
H   -5.923181   -2.027363   3.205230
O    1.671458    0.400795   2.863685
H    2.604001    0.164332   3.038985
