 26
Energy: -16507.71629915.7 eV PBE+vdW (tier 2 basis)
N   -0.580832    0.471691   0.091723
C   -0.446493    0.258091   1.542154
C    0.952080    0.649755   2.027387
O    1.479093    0.237509   3.036217
H   -0.415507    1.451210  -0.138671
H   -1.531048    0.245671  -0.204506
H   -1.111092    0.929245   2.126698
C   -0.816653   -1.180890   1.949663
C   -0.298518   -2.332895   1.069734
C    1.217505   -2.481869   0.936028
N    1.770716   -1.436699   0.090889
C    3.121133   -1.228806   0.011543
N    3.945158   -2.057517   0.562561
N    3.474959   -0.031503  -0.649719
H   -1.915714   -1.244578   1.978879
H   -0.470559   -1.317799   2.983347
H   -0.743403   -2.274688   0.063187
H   -0.683954   -3.264702   1.508786
H    1.452368   -3.469481   0.507053
H    1.707261   -2.451631   1.922959
H    1.116863   -0.743969  -0.276767
H    4.912174   -1.750395   0.435572
H    2.773317    0.324385  -1.295106
H    4.384209   -0.086678  -1.097774
O    1.506573    1.608675   1.233763
H    2.415537    1.748362   1.563011
