 26
Energy: -16507.73358615.7 eV PBE+vdW (tier 2 basis)
N   -0.356683    0.696921   1.519564
C    0.141857   -0.283794   2.480864
C    1.622047   -0.660458   2.388382
O    2.145142   -1.607441   2.940131
H   -0.163441    0.396169   0.562949
H    0.119091    1.589725   1.640466
H    0.050685    0.153266   3.495287
C   -0.711888   -1.564660   2.470502
C   -2.202616   -1.324175   2.725768
C   -2.558897   -0.700396   4.082636
N   -2.136543   -1.476732   5.241133
C   -1.012056   -1.155573   5.972506
N   -0.330021   -0.086374   5.726714
N   -0.718395   -2.125198   6.943868
H   -0.291373   -2.253858   3.214748
H   -0.598219   -2.065480   1.494320
H   -2.732363   -2.286125   2.620422
H   -2.606073   -0.660213   1.947259
H   -3.650302   -0.562068   4.131922
H   -2.102353    0.290448   4.190259
H   -2.372993   -2.463176   5.230281
H    0.406459    0.049269   6.421467
H    0.010190   -1.845992   7.591561
H   -1.527541   -2.505400   7.428579
O    2.347481    0.221211   1.632033
H    3.269039   -0.098253   1.686912
