 26
Energy: -16507.62495215.7 eV PBE+vdW (tier 2 basis)
N    0.333622    0.464012  -0.032787
C    0.091244    0.072408   1.352809
C    1.328018   -0.535424   2.001275
O    1.500111   -0.613862   3.199720
H   -0.537070    0.768045  -0.469203
H    0.694057   -0.315273  -0.582297
H   -0.101618    0.988156   1.932471
C   -1.117016   -0.875394   1.608722
C   -0.996528   -2.259733   0.973252
C   -2.262077   -3.121357   1.137268
N   -3.469166   -2.595701   0.521383
C   -3.669236   -2.603095  -0.852699
N   -2.958707   -3.172628  -1.764527
N   -4.804642   -1.872312  -1.227321
H   -2.004924   -0.356526   1.212597
H   -1.258083   -0.967402   2.697393
H   -0.156426   -2.811341   1.424576
H   -0.765470   -2.159115  -0.098247
H   -2.478589   -3.262191   2.206696
H   -2.081068   -4.126407   0.727597
H   -3.920211   -1.830742   1.011373
H   -2.096054   -3.567519  -1.384815
H   -5.625106   -2.042296  -0.650807
H   -5.003959   -2.013648  -2.213856
O    2.210065   -1.045387   1.098122
H    2.937701   -1.428554   1.625741
