 26
Energy: -16507.66292115.7 eV PBE+vdW (tier 2 basis)
N    0.055154    0.612137   0.266987
C   -0.075158    0.206121   1.660413
C    1.208938    0.098822   2.497543
O    1.231027    0.001713   3.707567
H    0.600054   -0.069701  -0.260863
H    0.554087    1.498022   0.193459
H   -0.669333    0.975497   2.178519
C   -0.857395   -1.120326   1.780602
C   -0.137674   -2.340917   1.201837
C   -0.929879   -3.648701   1.355327
N   -2.199796   -3.700176   0.642924
C   -2.232051   -3.881520  -0.727754
N   -1.148319   -4.096106  -1.393286
N   -3.534182   -3.770507  -1.244571
H   -1.812921   -0.958630   1.259895
H   -1.079107   -1.288840   2.845290
H    0.830457   -2.481646   1.709771
H    0.079133   -2.207830   0.132329
H   -1.143012   -3.839134   2.418428
H   -0.321231   -4.480863   0.980774
H   -2.949419   -3.127997   1.015436
H   -1.354514   -4.331938  -2.366601
H   -3.608488   -4.047775  -2.217448
H   -4.255893   -4.206537  -0.675520
O    2.347097    0.116646   1.745682
H    3.081687    0.027991   2.384202
