 26
Energy: -16507.87734815.7 eV PBE+vdW (tier 2 basis)
N   -0.341699   -0.223358  -0.041353
C   -0.297124   -0.109233   1.432324
C    1.133266    0.298685   1.834611
O    1.439134    0.702194   2.943256
H   -0.733256    0.614255  -0.469726
H    1.454658   -0.131998   0.074020
H   -0.979656    0.659785   1.819655
C   -0.678881   -1.463178   2.071851
C   -0.713038   -1.515568   3.604428
C   -1.963733   -0.911011   4.257811
N   -2.283053    0.476261   3.884991
C   -1.848519    1.562747   4.655972
N   -2.707054    2.493133   4.915304
N   -0.527026    1.477469   5.067054
H    0.022732   -2.225324   1.695338
H   -1.675036   -1.730831   1.678376
H    0.195031   -1.057906   4.017271
H   -0.678055   -2.572176   3.912190
H   -1.866798   -1.007279   5.352099
H   -2.835259   -1.513040   3.960480
H   -3.270554    0.619845   3.692949
H   -2.253760    3.300510   5.352223
H   -0.196669    2.301165   5.557032
H    0.149497    1.134860   4.376328
O    2.027955    0.148439   0.851011
H   -0.912106   -1.014476  -0.337250
