 26
Energy: -16507.58117715.7 eV PBE+vdW (tier 2 basis)
N    0.064433    0.149233  -0.071632
C   -0.068062   -0.013903   1.376276
C    1.333273    0.125113   1.952112
O    2.324923   -0.397911   1.494252
H   -0.800419   -0.126160  -0.537226
H    0.808774   -0.460667  -0.415658
H   -0.678370    0.813600   1.769183
C   -0.726188   -1.352111   1.816879
C   -1.073800   -1.489203   3.307602
C    0.061662   -2.058507   4.181433
N   -0.233651   -2.134755   5.598222
C   -0.355286   -1.049068   6.450565
N   -0.999579   -1.214382   7.557670
N    0.333667    0.100917   6.054863
H   -0.082270   -2.183980   1.486810
H   -1.651634   -1.428055   1.226207
H   -1.944840   -2.152232   3.416815
H   -1.394650   -0.513121   3.706564
H    0.993192   -1.490616   4.044976
H    0.299107   -3.077404   3.842147
H   -0.817546   -2.903695   5.909759
H   -0.959914   -0.376438   8.142061
H    0.047844    0.933037   6.557152
H    0.442225    0.273401   5.058921
O    1.367127    0.902957   3.076348
H    2.302197    0.913546   3.365499
