 26
Energy: -16507.67437415.7 eV PBE+vdW (tier 2 basis)
N    0.307160    1.009612   3.435134
C    1.181418    0.975532   2.268449
C    0.925110   -0.215707   1.340749
O    0.547440   -1.318952   1.690939
H    0.278414    0.102472   3.910776
H   -0.650267    1.211002   3.146718
H    0.989809    1.884689   1.680763
C    2.690812    1.004576   2.635388
C    3.250940   -0.248934   3.325225
C    2.967822   -0.324863   4.840035
N    2.985928   -1.686135   5.372502
C    1.834496   -2.434764   5.589281
N    1.675608   -3.363158   6.472353
N    0.762853   -2.099561   4.755090
H    2.839371    1.891380   3.270236
H    3.248972    1.184755   1.705449
H    4.338025   -0.294451   3.162806
H    2.852706   -1.154786   2.845178
H    2.002565    0.141491   5.073738
H    3.725285    0.260205   5.380838
H    3.735123   -1.906202   6.016129
H    2.471441   -3.405229   7.115678
H   -0.013193   -2.732045   4.931191
H    0.960517   -2.029977   3.755745
O    1.197919    0.077922   0.041681
H    1.049724   -0.745871  -0.464069
