 26
Energy: -16507.80924815.7 eV PBE+vdW (tier 2 basis)
N   -0.492166   -0.277453  -0.269435
C   -0.144951   -0.548212   1.124260
C    0.771712   -1.760448   1.312717
O    0.626461   -2.808040   0.702787
H    0.335770    0.035108  -0.778629
H   -0.776451   -1.155831  -0.711187
H    0.367426    0.333298   1.535591
C   -1.450022   -0.776612   1.930803
C   -1.263886   -1.226532   3.392979
C   -1.241105   -2.764257   3.576286
N   -0.472530   -3.217483   4.728903
C    0.882239   -3.472815   4.663486
N    1.547300   -3.930162   3.642483
N    1.556688   -3.244221   5.852780
H   -2.057610   -1.517659   1.385351
H   -2.007413    0.167644   1.883557
H   -2.071161   -0.806634   4.010525
H   -0.324768   -0.812838   3.788807
H   -0.822879   -3.247843   2.685724
H   -2.267437   -3.147691   3.667803
H   -0.828222   -2.957501   5.643050
H    0.922086   -4.274180   2.908275
H    2.549928   -3.438251   5.777494
H    1.339781   -2.385857   6.349243
O    1.683338   -1.568319   2.283199
H    1.966964   -2.470813   2.642939
