 26
Energy: -16507.57193615.7 eV PBE+vdW (tier 2 basis)
N   -0.062238    1.151585   2.055708
C    1.051750    0.211560   2.006503
C    1.962053    0.613099   0.858288
O    1.606945    1.212367  -0.135145
H   -0.321665    1.413596   1.102384
H   -0.877667    0.732269   2.499895
H    1.646075    0.300202   2.930629
C    0.676407   -1.285994   1.810867
C   -0.253475   -1.849449   2.890960
C    0.332885   -1.822303   4.301613
N   -0.601048   -2.434205   5.243878
C   -0.343147   -2.496328   6.610851
N   -0.654555   -3.572607   7.248416
N    0.261595   -1.351938   7.135749
H    1.604635   -1.877545   1.780348
H    0.192544   -1.394411   0.827982
H   -0.492098   -2.891050   2.621200
H   -1.220192   -1.320382   2.894466
H    0.516389   -0.782542   4.606531
H    1.318948   -2.326764   4.308399
H   -0.951600   -3.341614   4.942717
H   -0.549686   -3.455046   8.259679
H    0.262085   -1.315197   8.148785
H   -0.018354   -0.468886   6.717785
O    3.237761    0.180942   1.046876
H    3.731050    0.436006   0.243004
