 26
Energy: -16507.70319915.7 eV PBE+vdW (tier 2 basis)
N   -0.043975   -0.032882  -0.013641
C   -0.131951   -0.066077   1.446168
C    1.245521   -0.131107   2.113398
O    2.168625   -0.818573   1.728882
H    0.557693   -0.797565  -0.329670
H    0.412591    0.827801  -0.318781
H   -0.632853    0.853202   1.782552
C   -0.974379   -1.280872   1.881552
C   -1.302252   -1.340924   3.374251
C   -2.192079   -2.539138   3.749634
N   -1.583198   -3.849036   3.594366
C   -0.657164   -4.347555   4.503109
N   -0.296257   -3.850653   5.636162
N   -0.079554   -5.545033   4.065373
H   -0.435050   -2.191595   1.572440
H   -1.900543   -1.239354   1.288046
H   -1.825341   -0.418629   3.674839
H   -0.378880   -1.380500   3.970960
H   -3.107984   -2.527068   3.139076
H   -2.521234   -2.444266   4.794875
H   -1.452627   -4.168702   2.640350
H   -0.683519   -2.916535   5.783971
H    0.491076   -5.953603   4.800078
H   -0.737066   -6.216633   3.677484
O    1.331344    0.675827   3.208366
H    2.226492    0.538348   3.578118
