 26
Energy: -16507.71145415.7 eV PBE+vdW (tier 2 basis)
N   -0.477686    0.488662   0.578144
C    0.044004   -0.015412   1.846561
C    1.562720   -0.228939   1.915897
O    2.134070   -0.950513   2.716623
H   -0.177710    1.451700   0.431235
H   -0.073467   -0.048059  -0.190209
H   -0.135722    0.772526   2.600247
C   -0.730420   -1.255411   2.340641
C   -0.917904   -2.419329   1.356004
C    0.341291   -3.176099   0.926472
N    1.123132   -2.410781  -0.055809
C    2.476750   -2.667752  -0.324682
N    3.049662   -2.559943  -1.476739
N    3.224018   -3.042103   0.781437
H   -1.729943   -0.900282   2.627132
H   -0.242956   -1.620694   3.255617
H   -1.461698   -2.068116   0.463193
H   -1.590689   -3.145865   1.836707
H    0.056606   -4.160736   0.513046
H    0.976981   -3.374896   1.796344
H    0.614473   -2.275340  -0.926340
H    2.364819   -2.408723  -2.222693
H    4.213545   -3.076655   0.559002
H    3.015353   -2.554457   1.652060
O    2.237060    0.538072   1.024017
H    3.184530    0.335303   1.147903
