 26
Energy: -16507.75306815.7 eV PBE+vdW (tier 2 basis)
N    0.730853   -0.737478   0.160698
C   -0.591072   -0.150516   0.448347
C   -0.379799    1.107524   1.313575
O   -1.207720    1.990497   1.426276
H    1.132739   -0.363300  -0.698433
H    1.270904    0.321758   1.584802
H   -1.121908    0.182817  -0.457303
C   -1.466051   -1.199240   1.170369
C   -2.815361   -0.692029   1.707174
C   -2.781190   -0.337209   3.204863
N   -3.988809    0.329332   3.649990
C   -4.045124    1.590359   4.225472
N   -5.049239    1.853441   4.998251
N   -2.976926    2.425095   3.924809
H   -0.872984   -1.633698   1.993729
H   -1.629583   -2.012711   0.447073
H   -3.584056   -1.461697   1.546966
H   -3.145043    0.193408   1.146965
H   -1.923963    0.310824   3.428908
H   -2.621305   -1.259776   3.790618
H   -4.747663   -0.251273   3.989653
H   -5.053757    2.837918   5.274578
H   -3.102362    3.385430   4.218346
H   -2.513012    2.336835   3.021229
O    0.799205    1.124041   1.952700
H    0.675127   -1.750413   0.059681
