 26
Energy: -16507.69731915.7 eV PBE+vdW (tier 2 basis)
N   -0.314923    0.050324   0.799649
C   -0.280580   -0.082671   2.251769
C    1.104944   -0.014250   2.908018
O    1.331695    0.465998   3.999821
H    0.161028   -0.736188   0.349511
H    0.163339    0.900155   0.501793
H   -0.832332    0.763956   2.689314
C   -0.958292   -1.386565   2.727189
C   -2.467441   -1.481506   2.461368
C   -2.868870   -1.896879   1.035862
N   -2.329374   -3.186917   0.647480
C   -1.370053   -3.387241  -0.328517
N   -0.840454   -2.524483  -1.129068
N   -0.982463   -4.729982  -0.419661
H   -0.785493   -1.467757   3.809697
H   -0.444916   -2.246310   2.266637
H   -2.951013   -0.518243   2.690968
H   -2.893817   -2.212270   3.167230
H   -2.517356   -1.138770   0.326576
H   -3.967353   -1.921011   0.959558
H   -2.829424   -4.013299   0.953165
H   -1.319688   -1.622716  -1.075501
H   -0.217372   -4.834978  -1.079733
H   -0.785178   -5.180376   0.470328
O    2.078897   -0.580146   2.138796
H    2.902421   -0.507933   2.659175
