 26
Energy: -16507.70605215.7 eV PBE+vdW (tier 2 basis)
N    0.149917    0.249164  -0.277740
C   -0.129115    0.345827   1.155338
C    1.124770    0.679976   1.941939
O    1.162288    1.382065   2.933159
H   -0.742133    0.185578  -0.770226
H    0.680348   -0.597138  -0.490951
H   -0.815399    1.191023   1.286956
C   -0.797625   -0.915547   1.773122
C   -1.349578   -0.749465   3.193567
C   -2.539151    0.215144   3.318530
N   -3.740173   -0.199807   2.607270
C   -4.074009    0.264612   1.354411
N   -3.322371    1.103904   0.721514
N   -5.265309   -0.311012   0.879884
H   -0.074861   -1.746893   1.750039
H   -1.615240   -1.191020   1.090126
H   -0.559580   -0.393284   3.872736
H   -1.652934   -1.739276   3.573972
H   -2.278605    1.210755   2.940994
H   -2.794287    0.328832   4.383137
H   -4.138365   -1.096059   2.864152
H   -3.784306    1.445968  -0.123464
H   -5.606360    0.112392   0.023607
H   -6.003835   -0.397679   1.574033
O    2.231310    0.040968   1.462969
H    2.961978    0.300389   2.056814
