 26
Energy: -16507.54218215.7 eV PBE+vdW (tier 2 basis)
N   -0.933141    0.699698   0.454288
C   -0.338688    0.114841   1.650284
C    1.175232   -0.150040   1.636127
O    1.838282   -0.385798   2.624475
H   -0.718107    0.140769  -0.371323
H   -0.545682    1.626073   0.278211
H   -0.481779    0.828256   2.475996
C   -1.065764   -1.184583   2.060774
C   -0.957051   -2.323980   1.045152
C   -1.660358   -3.591184   1.528948
N   -1.564970   -4.639187   0.527161
C   -2.090198   -5.913486   0.672761
N   -1.571764   -6.872343  -0.018803
N   -3.213164   -5.999114   1.498817
H   -2.122548   -0.920903   2.213058
H   -0.660741   -1.508891   3.030395
H    0.103713   -2.558247   0.852746
H   -1.400502   -2.029928   0.081660
H   -2.722633   -3.352212   1.705028
H   -1.225602   -3.896639   2.502697
H   -0.695064   -4.676614   0.003749
H   -2.091529   -7.744766   0.100377
H   -3.430018   -6.939683   1.805487
H   -3.300610   -5.315659   2.243429
O    1.714559   -0.112254   0.383479
H    2.664299   -0.311389   0.500321
