 26
Energy: -16507.68066315.7 eV PBE+vdW (tier 2 basis)
N   -0.481493   -0.287829  -0.012867
C   -0.131048   -0.463795   1.408928
C    1.340080   -0.864310   1.505446
O    1.791671   -1.978440   1.316194
H    0.111998    0.421249  -0.446053
H   -0.321247   -1.162044  -0.518442
H   -0.253698    0.513143   1.898704
C   -1.074338   -1.487082   2.046881
C   -1.060164   -1.554322   3.579829
C    0.200322   -2.159478   4.226706
N    0.560161   -3.495645   3.757340
C   -0.285541   -4.585327   3.913645
N   -0.408875   -5.432935   2.948906
N   -0.948901   -4.620742   5.148154
H   -0.869752   -2.483695   1.624579
H   -2.084334   -1.211580   1.712624
H   -1.923761   -2.155654   3.899895
H   -1.215000   -0.546722   4.001553
H    0.059020   -2.174904   5.317384
H    1.078668   -1.520360   4.058966
H    0.976928   -3.503453   2.827084
H   -0.937526   -6.258751   3.243726
H   -1.406738   -5.505421   5.337248
H   -0.403797   -4.295827   5.942566
O    2.143426    0.212519   1.748002
H    3.061617   -0.122021   1.712258
