 26
Energy: -16507.60111215.7 eV PBE+vdW (tier 2 basis)
N    0.276533    0.331544   0.729942
C   -0.438175   -0.102490   1.935675
C    0.542407   -0.642542   2.974701
O    0.348954   -1.579117   3.724307
H   -0.370670    0.813810   0.106082
H    1.018805    0.989561   0.965023
H   -0.935229    0.736957   2.473003
C   -1.520031   -1.133491   1.604890
C   -1.004711   -2.405023   0.908664
C   -1.795338   -3.656398   1.303758
N   -1.677917   -3.925308   2.740127
C   -2.763994   -3.970665   3.605029
N   -2.780276   -3.596581   4.840927
N   -3.934484   -4.478040   3.033287
H   -2.283125   -0.642436   0.981725
H   -2.022212   -1.397235   2.545792
H    0.055690   -2.568443   1.156999
H   -1.029578   -2.290608  -0.183610
H   -1.428228   -4.515857   0.717737
H   -2.860261   -3.529870   1.061190
H   -0.867197   -3.486468   3.172154
H   -1.914021   -3.106783   5.083257
H   -4.641758   -4.620360   3.748446
H   -3.806336   -5.297934   2.446257
O    1.681240    0.099749   3.025355
H    2.228528   -0.290371   3.734461
