 26
Energy: -16507.71817615.7 eV PBE+vdW (tier 2 basis)
N    0.828788   -0.935849  -0.760825
C    0.235895   -0.523216   0.504007
C    1.071692   -0.703789   1.773565
O    0.818228   -0.179714   2.846194
H    1.121374   -1.913088  -0.725481
H    1.661037   -0.385217  -0.970826
H    0.073919    0.562456   0.442740
C   -1.145679   -1.222495   0.706615
C   -2.360473   -0.304793   0.516227
C   -2.699395    0.568143   1.741286
N   -1.656334    1.476519   2.188554
C   -1.327030    2.614520   1.466905
N   -2.001461    3.208110   0.540435
N   -0.071135    3.125042   1.814702
H   -1.197103   -1.693578   1.700566
H   -1.186359   -2.036992  -0.029454
H   -3.246059   -0.924190   0.303722
H   -2.203620    0.325722  -0.372224
H   -2.940824   -0.084546   2.593890
H   -3.611311    1.150020   1.538254
H   -0.863770    1.016577   2.640209
H   -2.850491    2.692077   0.302075
H    0.045904    4.073146   1.470333
H    0.182734    3.027785   2.793589
O    2.136513   -1.530589   1.615781
H    2.570623   -1.577696   2.490397
