 26
Energy: -16507.62375215.7 eV PBE+vdW (tier 2 basis)
N    2.511461    0.704294  -1.152427
C    1.198778    0.080090  -1.041171
C    0.084974    1.068981  -0.676439
O    0.252890    2.180891  -0.221400
H    2.650741    1.351632  -0.373882
H    2.550747    1.281398  -1.992681
H    0.937155   -0.346946  -2.020790
C    1.215585   -1.091450  -0.031511
C    1.514469   -0.682034   1.411973
C    1.537317   -1.883781   2.353353
N    1.835126   -1.454279   3.718175
C    1.891439   -2.345917   4.783515
N    1.417656   -1.978592   5.925379
N    2.454816   -3.585285   4.467232
H    1.984982   -1.793493  -0.385097
H    0.248035   -1.612595  -0.080680
H    0.756112    0.037172   1.765341
H    2.486934   -0.170696   1.472950
H    2.312612   -2.586647   2.012654
H    0.574083   -2.426721   2.294820
H    1.319012   -0.627518   4.012034
H    1.634502   -2.658921   6.658534
H    3.200540   -3.570228   3.776982
H    2.692062   -4.146308   5.277550
O   -1.152708    0.545124  -0.904744
H   -1.793320    1.226830  -0.621668
