 26
Energy: -16507.53701215.7 eV PBE+vdW (tier 2 basis)
N   -1.239577   -1.372830  -0.005150
C   -0.838858   -0.468553   1.073978
C    0.600260    0.014476   0.917076
O    1.280473    0.468092   1.812589
H   -0.964547   -1.003771  -0.913881
H   -2.253611   -1.479573  -0.009865
H   -1.414154    0.484232   1.077948
C   -1.052017   -1.118970   2.451586
C   -0.273238   -2.418690   2.660628
C   -0.558424   -3.044665   4.022663
N    0.196160   -4.286354   4.176770
C    0.105681   -5.083432   5.310187
N    0.141600   -6.365926   5.173183
N   -0.042507   -4.372206   6.504828
H   -2.132115   -1.307224   2.566378
H   -0.778233   -0.382570   3.220405
H    0.807536   -2.228065   2.578377
H   -0.533011   -3.128440   1.860705
H   -1.647016   -3.210543   4.142778
H   -0.262263   -2.335681   4.811085
H    0.187544   -4.881454   3.351282
H    0.199384   -6.837994   6.079356
H    0.429847   -3.473349   6.546903
H    0.119019   -4.930465   7.335432
O    1.036591   -0.049610  -0.372395
H    1.939862    0.322405  -0.365970
