 26
Energy: -16507.71227315.7 eV PBE+vdW (tier 2 basis)
N    0.626567   -0.872846  -0.110334
C   -0.000046   -0.237522   1.043423
C    0.971987    0.614935   1.844967
O    0.648927    1.523535   2.582449
H    1.553663   -1.220708   0.128957
H    0.064059   -1.676648  -0.418780
H   -0.747671    0.487968   0.681453
C   -0.772336   -1.159957   2.036425
C    0.035318   -2.276964   2.714697
C    0.212204   -3.576853   1.911283
N   -1.034416   -4.247194   1.569963
C   -1.626220   -4.143741   0.331575
N   -1.089848   -3.449672  -0.618975
N   -2.848346   -4.828232   0.267557
H   -1.617928   -1.594610   1.483787
H   -1.210121   -0.507212   2.805976
H   -0.457298   -2.531577   3.667647
H    1.039091   -1.916691   2.993424
H    0.829661   -4.274964   2.498275
H    0.733173   -3.394945   0.966036
H   -1.658523   -4.471577   2.336990
H   -1.591153   -3.576148  -1.499974
H   -3.237729   -4.886260  -0.666929
H   -2.864979   -5.728146   0.740690
O    2.275116    0.229019   1.702806
H    2.787839    0.833380   2.273843
