 26
Energy: -16507.78647415.7 eV PBE+vdW (tier 2 basis)
N   -0.717667    0.319822   2.319254
C   -0.439719   -1.075762   2.719260
C    1.043319   -1.405059   2.435177
O    1.533041   -2.498246   2.630159
H   -1.161751    0.850380   3.065003
H    1.056632    0.375504   1.953408
H   -0.517980   -1.144847   3.817420
C   -1.359054   -2.112771   2.055866
C   -2.801542   -2.170062   2.592621
C   -3.055242   -3.172908   3.734854
N   -2.423555   -2.880145   5.021548
C   -1.066036   -3.070436   5.261531
N   -0.413354   -2.134119   5.870182
N   -0.557387   -4.255359   4.757828
H   -0.881719   -3.097282   2.150993
H   -1.381814   -1.888559   0.975558
H   -3.476084   -2.460176   1.771184
H   -3.136269   -1.165805   2.905408
H   -2.735965   -4.172458   3.410811
H   -4.138816   -3.238277   3.913411
H   -2.712871   -1.999076   5.440022
H    0.529506   -2.441869   6.122175
H    0.439821   -4.395176   4.855301
H   -1.125537   -5.091002   4.834594
O    1.746924   -0.350984   1.985949
H   -1.320882    0.365673   1.498486
