 26
Energy: -16507.67758615.7 eV PBE+vdW (tier 2 basis)
N   -0.375095   -1.243204  -0.371959
C   -0.255839   -0.114488   0.544224
C    1.190120    0.339753   0.758997
O    2.175156   -0.342299   0.570341
H    0.310743   -1.955659  -0.110188
H   -0.127628   -0.956258  -1.319226
H   -0.807702    0.739435   0.120661
C   -0.877334   -0.465698   1.914617
C   -2.390566   -0.671183   1.829009
C   -3.025543   -1.201617   3.121735
N   -2.622553   -2.563295   3.479659
C   -1.486908   -2.875724   4.223037
N   -0.735117   -3.915222   4.081172
N   -1.174250   -1.947991   5.218156
H   -0.644316    0.328105   2.638741
H   -0.384572   -1.378541   2.284191
H   -2.612230   -1.362783   1.001377
H   -2.879345    0.284128   1.573104
H   -4.121409   -1.187838   3.019601
H   -2.780672   -0.539125   3.961759
H   -2.791135   -3.243572   2.744135
H   -0.975397   -4.434723   3.232051
H   -0.433717   -2.309015   5.812581
H   -1.966863   -1.604594   5.753665
O    1.257101    1.622806   1.217241
H    2.205253    1.808574   1.364164
