 26
Energy: -16507.61524215.7 eV PBE+vdW (tier 2 basis)
N    0.271267    0.631622   0.233238
C    0.189718    0.005049   1.554479
C    1.364402   -0.934358   1.812477
O    1.357426   -1.861925   2.593225
H    1.203936    1.004704   0.063379
H   -0.385307    1.410024   0.178596
H    0.278907    0.737992   2.387734
C   -1.153525   -0.717770   1.745326
C   -1.425073   -1.828407   0.728880
C   -2.805594   -2.450867   0.920844
N   -3.038590   -3.499801  -0.057405
C   -4.259692   -4.160043  -0.123733
N   -5.341446   -3.900921   0.526773
N   -4.235477   -5.230795  -1.025582
H   -1.948971    0.043329   1.685176
H   -1.182903   -1.120900   2.767323
H   -0.657230   -2.612052   0.836873
H   -1.337090   -1.430110  -0.291157
H   -3.580436   -1.678787   0.786605
H   -2.906115   -2.828297   1.957883
H   -2.234230   -4.091190  -0.247682
H   -5.184409   -3.195115   1.249594
H   -5.169153   -5.610820  -1.152689
H   -3.783538   -5.024486  -1.912664
O    2.478084   -0.576158   1.112399
H    3.176617   -1.202283   1.384967
