 26
Energy: -16507.77264715.7 eV PBE+vdW (tier 2 basis)
N   -0.014526   -0.020993  -0.070426
C    0.010698   -0.121228   1.376097
C    1.408184   -0.226504   2.001469
O    2.437712   -0.560521   1.439392
H    0.341282   -0.870180  -0.510552
H    0.573969    0.745643  -0.394316
H   -0.394347    0.818459   1.785499
C   -0.933272   -1.242883   1.893000
C   -0.885768   -2.616161   1.205404
C    0.418428   -3.431225   1.291298
N    1.446020   -3.078577   0.324871
C    1.350141   -3.482300  -0.987221
N    0.425679   -4.301246  -1.366792
N    2.305162   -2.861080  -1.812313
H   -1.954339   -0.853293   1.775700
H   -0.766989   -1.357751   2.974918
H   -1.172258   -2.532765   0.147472
H   -1.681629   -3.218822   1.670792
H    0.175912   -4.488063   1.122910
H    0.863308   -3.349256   2.295532
H    1.994127   -2.241774   0.516107
H    0.534503   -4.547667  -2.352857
H    2.436654   -3.329698  -2.702244
H    3.194384   -2.655305  -1.362845
O    1.396825    0.137252   3.311512
H    2.314290    0.035521   3.632559
