 26
Energy: -16507.61599315.7 eV PBE+vdW (tier 2 basis)
N   -0.131194    0.352262  -0.346752
C   -0.363316    0.046425   1.060203
C    0.845864   -0.396030   1.903503
O    0.795078   -0.647945   3.089882
H    0.272982   -0.451236  -0.828657
H    0.551734    1.103531  -0.438730
H   -0.685695    0.980976   1.548696
C   -1.535719   -0.947644   1.236003
C   -1.430165   -2.262187   0.451767
C   -0.262632   -3.162799   0.857998
N   -0.283910   -4.415906   0.116685
C    0.894151   -5.097132  -0.134637
N    2.038410   -4.582353   0.163359
N    0.660308   -6.363791  -0.697016
H   -2.444828   -0.423745   0.911103
H   -1.643790   -1.154366   2.310223
H   -1.371580   -2.060115  -0.628889
H   -2.376890   -2.808718   0.597982
H   -0.273005   -3.339216   1.948714
H    0.708338   -2.705668   0.631695
H   -1.087553   -5.013004   0.285399
H    2.804135   -5.159460  -0.191901
H    1.499280   -6.810033  -1.052007
H   -0.093795   -6.391776  -1.379341
O    2.002969   -0.458627   1.187818
H    2.683226   -0.784151   1.809289
