 26
Energy: -16507.63983115.7 eV PBE+vdW (tier 2 basis)
N    0.307344    0.474534   0.115052
C    0.029682    0.291829   1.542338
C    1.297528   -0.013916   2.334899
O    1.336269   -0.609281   3.390431
H    1.081494    1.123082  -0.021273
H   -0.516203    0.873135  -0.341667
H   -0.346979    1.220899   2.025075
C   -1.033671   -0.792052   1.772189
C   -0.642193   -2.195655   1.263810
C   -1.528940   -2.727730   0.131313
N   -1.440526   -1.927224  -1.091546
C   -2.371940   -0.979278  -1.485062
N   -2.136271    0.063416  -2.216398
N   -3.675565   -1.189233  -1.029279
H   -1.959201   -0.453542   1.282902
H   -1.247779   -0.826326   2.847400
H   -0.672086   -2.917715   2.092022
H    0.401249   -2.190338   0.910529
H   -2.575199   -2.750954   0.461479
H   -1.243130   -3.766652  -0.098879
H   -0.492264   -1.606610  -1.277335
H   -1.135950    0.144793  -2.419757
H   -4.316793   -0.568618  -1.514991
H   -3.991574   -2.154623  -1.044714
O    2.411916    0.521927   1.757811
H    3.149701    0.315185   2.363709
