 26
Energy: -16507.87461015.7 eV PBE+vdW (tier 2 basis)
N    0.080478   -0.084426   0.009262
C   -0.194033   -0.023283   1.444061
C    1.105282    0.397416   2.158957
O    2.198729    0.113263   1.704272
H   -0.471099   -0.818309  -0.434842
H    1.069282   -0.324876  -0.106839
H   -0.952254    0.751869   1.630127
C   -0.694649   -1.377164   2.023167
C   -1.086565   -1.404395   3.507255
C   -2.509580   -0.926517   3.850278
N   -3.014683    0.279678   3.200060
C   -2.597784    1.552021   3.467686
N   -1.489688    1.774261   4.113667
N   -3.430421    2.527892   2.933028
H    0.104361   -2.113285   1.846244
H   -1.551804   -1.698538   1.405400
H   -0.356273   -0.842020   4.101799
H   -1.023504   -2.441947   3.870289
H   -2.578704   -0.781868   4.938613
H   -3.228261   -1.715005   3.585191
H   -3.630838    0.163618   2.406740
H   -1.397947    2.758213   4.372582
H   -3.151891    3.486575   3.103379
H   -4.430650    2.371752   3.002115
O    0.980710    1.054406   3.315853
H    0.010462    1.243020   3.574835
