 26
Energy: -16507.69140515.7 eV PBE+vdW (tier 2 basis)
N   -0.454446   -0.390920  -0.088116
C   -0.336448   -0.173113   1.350787
C    1.078422    0.237454   1.766359
O    2.104791   -0.184809   1.280617
H    0.292803   -1.013846  -0.403187
H   -0.327265    0.487498  -0.591639
H   -1.029745    0.631181   1.632151
C   -0.731675   -1.475949   2.085090
C   -0.819794   -1.455498   3.618675
C   -1.959748   -0.620704   4.212755
N   -1.659253    0.799238   4.234667
C   -2.638958    1.771523   4.263148
N   -3.915585    1.617411   4.367195
N   -2.119588    3.066923   4.122101
H   -0.013139   -2.254087   1.781175
H   -1.704024   -1.769114   1.663174
H    0.137507   -1.149322   4.071460
H   -0.973741   -2.493881   3.946037
H   -2.175834   -0.977515   5.234846
H   -2.874708   -0.798837   3.618787
H   -0.739101    1.082629   3.914615
H   -4.180426    0.630435   4.362076
H   -2.839531    3.756703   4.318103
H   -1.271890    3.244976   4.654329
O    1.082490    1.152878   2.788592
H    2.022531    1.326159   2.995665
