 26
Energy: -16507.69806115.7 eV PBE+vdW (tier 2 basis)
N    0.081592    1.178862  -0.236103
C   -0.042407    0.869231   1.196502
C    1.168055    1.248360   2.049582
O    1.116703    1.681762   3.180779
H    0.969609    0.811146  -0.583698
H    0.116208    2.188878  -0.379942
H   -0.871895    1.464236   1.604616
C   -0.349193   -0.634683   1.409149
C   -1.837584   -1.014941   1.366561
C   -2.625093   -0.567767   0.121729
N   -2.004564   -0.876756  -1.165133
C   -1.713363   -2.173782  -1.570516
N   -0.699598   -2.550937  -2.277368
N   -2.637040   -3.134644  -1.153282
H    0.046071   -0.948139   2.386191
H    0.214988   -1.205985   0.655929
H   -2.344197   -0.600898   2.253943
H   -1.904696   -2.109395   1.452474
H   -2.768463    0.522022   0.131434
H   -3.635517   -0.999490   0.170218
H   -1.247522   -0.219401  -1.358762
H   -0.041041   -1.777921  -2.409219
H   -2.475005   -4.016444  -1.630562
H   -3.609991   -2.844675  -1.190663
O    2.347938    1.009212   1.404049
H    3.053873    1.239920   2.038409
