 26
Energy: -16507.62051815.7 eV PBE+vdW (tier 2 basis)
N    2.826144    1.534370   1.982371
C    1.876707    0.488895   1.613028
C    0.559195    1.135154   1.205251
O    0.374433    2.327804   1.077542
H    3.762940    1.313844   1.653418
H    2.537455    2.424055   1.573876
H    2.192110   -0.079120   0.714752
C    1.697114   -0.537588   2.756138
C    1.100248    0.056639   4.030322
C    1.147968   -0.898214   5.229474
N    2.506518   -1.240728   5.640838
C    3.024053   -2.521400   5.758716
N    4.006493   -2.887550   6.513026
N    2.389419   -3.483345   4.968323
H    2.699004   -0.936232   2.979806
H    1.081444   -1.374702   2.392305
H    0.048246    0.339983   3.862736
H    1.642817    0.982577   4.274281
H    0.620811   -1.834628   5.003767
H    0.610859   -0.440926   6.077227
H    2.975668   -0.559922   6.226387
H    4.285176   -2.137643   7.152037
H    2.901781   -4.359413   5.011630
H    2.184309   -3.202039   4.013636
O   -0.411549    0.211643   0.966825
H   -1.200359    0.718487   0.693288
