 26
Energy: -16507.64743515.7 eV PBE+vdW (tier 2 basis)
N    0.148835   -0.095467  -0.195064
C    0.066100   -0.109690   1.275020
C    1.443721    0.103741   1.899936
O    1.808888    1.111343   2.473449
H    0.586136    0.768052  -0.520176
H    0.734862   -0.866115  -0.521695
H   -0.526240    0.765547   1.578147
C   -0.649839   -1.387118   1.738257
C   -1.106567   -1.418231   3.202524
C    0.017578   -1.579771   4.237919
N   -0.459360   -1.785835   5.599093
C   -0.926481   -3.024569   5.999617
N   -0.852708   -4.046130   5.215797
N   -1.482047   -2.988064   7.290492
H   -0.013204   -2.261604   1.528970
H   -1.530685   -1.480256   1.086689
H   -1.788220   -2.270797   3.327705
H   -1.687349   -0.507819   3.428857
H    0.673986   -0.698904   4.258285
H    0.630859   -2.452242   3.978110
H   -0.926335   -0.994193   6.029164
H   -1.124226   -4.904062   5.701164
H   -1.678743   -3.907541   7.671233
H   -0.971285   -2.411360   7.955033
O    2.278673   -0.957778   1.689212
H    3.137922   -0.702514   2.076338
