 26
Energy: -16507.57146915.7 eV PBE+vdW (tier 2 basis)
N   -0.543760   -0.078145   0.007189
C   -0.006672    0.050521   1.357317
C    1.506125   -0.126746   1.528620
O    2.158989    0.343395   2.434813
H   -0.096920    0.586009  -0.624355
H   -0.362506   -1.005384  -0.376996
H   -0.190590    1.082885   1.689937
C   -0.777156   -0.861952   2.343118
C   -0.638306   -2.378282   2.127170
C    0.551480   -3.022444   2.865887
N    0.714834   -4.445182   2.623680
C    1.326196   -5.010530   1.511502
N    1.330006   -6.264499   1.202336
N    2.072685   -4.129012   0.730931
H   -1.831383   -0.573004   2.238346
H   -0.473064   -0.601510   3.368289
H   -0.580265   -2.621001   1.053812
H   -1.558347   -2.870194   2.477317
H    0.420612   -2.877026   3.949054
H    1.499646   -2.527340   2.619898
H    0.046765   -5.057171   3.076456
H    0.853695   -6.826861   1.912521
H    1.686944   -3.205733   0.556672
H    2.393179   -4.593191  -0.113057
O    2.070988   -0.897573   0.545266
H    3.019806   -0.963377   0.773300
