 26
Energy: -16507.65333815.7 eV PBE+vdW (tier 2 basis)
N    0.329082    0.170705  -0.038222
C    0.140393    0.091478   1.409056
C    1.431872   -0.262176   2.150831
O    2.394836   -0.809450   1.656368
H    1.026353   -0.519359  -0.336807
H    0.726549    1.077691  -0.282294
H   -0.177272    1.080703   1.769315
C   -0.978884   -0.896520   1.835707
C   -0.749847   -2.399407   1.564916
C   -1.373388   -2.933557   0.260641
N   -0.813375   -2.422256  -0.979772
C    0.382574   -2.861746  -1.534296
N    1.029293   -2.264576  -2.483094
N    0.856285   -4.090818  -1.077002
H   -1.901163   -0.562944   1.335760
H   -1.138275   -0.746875   2.912466
H   -1.197519   -2.971369   2.392359
H    0.327238   -2.633133   1.589634
H   -2.448139   -2.691191   0.260542
H   -1.316798   -4.030892   0.238676
H   -0.925809   -1.414974  -1.092000
H    0.501986   -1.458167  -2.830109
H    1.770049   -4.282548  -1.477022
H    0.832816   -4.244437  -0.073994
O    1.372446    0.079751   3.468486
H    2.216533   -0.213870   3.864350
