 26
Energy: -16507.69284815.7 eV PBE+vdW (tier 2 basis)
N   -0.664330    0.266759   0.268105
C   -0.059316    0.049916   1.576842
C    1.449764   -0.201546   1.512379
O    2.044377   -0.654811   0.556768
H   -0.333948    1.145270  -0.131805
H   -0.349799   -0.466498  -0.371781
H   -0.218179    0.951859   2.187928
C   -0.722924   -1.144643   2.297451
C   -2.203168   -0.910865   2.600208
C   -2.851268   -2.124623   3.260499
N   -4.262079   -1.874562   3.522203
C   -5.078611   -2.910303   3.941573
N   -4.635265   -4.119113   3.997568
N   -6.361141   -2.457907   4.302156
H   -0.173246   -1.349597   3.228375
H   -0.605964   -2.037955   1.661374
H   -2.733684   -0.663577   1.670646
H   -2.298156   -0.031714   3.262357
H   -2.313639   -2.398020   4.187563
H   -2.791888   -3.004730   2.606267
H   -4.467826   -0.978503   3.954091
H   -5.387929   -4.777610   4.212827
H   -6.742332   -1.742164   3.687643
H   -7.025644   -3.209899   4.451420
O    2.071170    0.123968   2.681773
H    3.013051   -0.108730   2.563128
