 26
Energy: -16507.76703915.7 eV PBE+vdW (tier 2 basis)
N    0.497997    0.167724   0.697976
C    0.203481   -0.421730   2.018405
C    0.888145   -1.802662   2.085107
O    1.116502   -2.393237   3.122483
H    1.346696    0.732387   0.717036
H    0.959855   -1.555749   0.255743
H    0.611872    0.170116   2.852838
C   -1.326249   -0.527537   2.198381
C   -1.819982   -1.121655   3.528929
C   -2.126456   -2.632421   3.471197
N   -2.546067   -3.215782   4.729421
C   -1.716601   -3.387783   5.833650
N   -2.276045   -3.410692   7.000526
N   -0.378866   -3.618221   5.549916
H   -1.740515   -1.098776   1.349838
H   -1.713034    0.498403   2.094515
H   -2.740298   -0.600732   3.831134
H   -1.086924   -0.929089   4.325870
H   -1.261352   -3.190750   3.087864
H   -2.934065   -2.808200   2.743993
H   -3.486363   -2.990812   5.040042
H   -1.597823   -3.643117   7.730010
H    0.239078   -3.533322   6.346654
H    0.031843   -3.259729   4.690096
O    1.192017   -2.304194   0.879891
H   -0.263124    0.765795   0.378194
