 26
Energy: -16507.63444515.7 eV PBE+vdW (tier 2 basis)
N   -0.018290   -0.750970  -0.419040
C    0.182692   -0.322937   0.965866
C    1.669562   -0.454063   1.263417
O    2.350013   -1.414199   0.966607
H   -1.015175   -0.858510  -0.608181
H    0.421625   -1.663183  -0.556969
H   -0.089357    0.739831   1.048544
C   -0.629626   -1.122209   2.017331
C   -0.522979   -0.607121   3.454648
C   -1.417657   -1.371196   4.444146
N   -2.848968   -1.371768   4.128130
C   -3.572339   -0.190393   3.988615
N   -4.395815   -0.077502   3.002014
N   -3.285770    0.769787   4.961113
H   -0.320163   -2.179243   1.960948
H   -1.679985   -1.073448   1.689549
H   -0.786442    0.461589   3.486563
H    0.515002   -0.678914   3.816084
H   -1.267272   -0.966055   5.455495
H   -1.111646   -2.426335   4.494755
H   -3.106609   -1.999504   3.371024
H   -4.975957    0.761487   3.089368
H   -3.932725    1.549629   4.980595
H   -3.078473    0.410190   5.888597
O    2.162614    0.617851   1.940576
H    3.105139    0.418156   2.108316
