 26
Energy: -16507.66664015.7 eV PBE+vdW (tier 2 basis)
N    0.902084   -0.447200   0.371643
C    0.227384    0.121117   1.536213
C    1.144293    1.027205   2.363953
O    2.354670    1.047899   2.297775
H    1.869584   -0.680133   0.618140
H    0.978277    0.260668  -0.359120
H   -0.603557    0.749426   1.182223
C   -0.401626   -0.960895   2.448369
C    0.564075   -1.984790   3.087720
C    0.567118   -3.369927   2.417999
N    1.162374   -3.436590   1.085047
C    2.539436   -3.433822   0.875077
N    3.147806   -2.968663  -0.165800
N    3.302746   -3.990598   1.902808
H   -1.153478   -1.486591   1.839922
H   -0.957085   -0.436692   3.237576
H    0.269284   -2.134487   4.137353
H    1.595674   -1.601044   3.121188
H   -0.469418   -3.733864   2.333597
H    1.084297   -4.081152   3.073813
H    0.701387   -2.814696   0.419846
H    2.487239   -2.506282  -0.796700
H    4.261665   -4.120310   1.593124
H    2.919139   -4.830362   2.326435
O    0.437818    1.815804   3.223059
H    1.099943    2.331780   3.723475
