 26
Energy: -16507.75361015.7 eV PBE+vdW (tier 2 basis)
N    0.266046   -0.397315  -0.056832
C    0.020531   -0.103308   1.363133
C    1.342094    0.000830   2.132779
O    1.475493   -0.206747   3.321751
H   -0.610225   -0.355955  -0.578115
H    0.895217    0.296607  -0.459370
H   -0.444703    0.894411   1.514427
C   -0.937551   -1.131527   1.993214
C   -0.682967   -2.618123   1.687234
C    0.657744   -3.188424   2.156058
N    1.747816   -2.699887   1.324786
C    3.081147   -2.669278   1.667280
N    4.040940   -2.168247   0.951282
N    3.397207   -3.269722   2.884179
H   -1.956453   -0.886552   1.655056
H   -0.924289   -0.965929   3.079457
H   -0.795325   -2.812191   0.609241
H   -1.480100   -3.193602   2.180066
H    0.617336   -4.290974   2.135711
H    0.808377   -2.890035   3.208103
H    1.475337   -2.162951   0.500977
H    3.690844   -1.872896   0.035808
H    4.363176   -3.076455   3.130963
H    2.755817   -3.085637   3.649825
O    2.342012    0.445910   1.331559
H    3.183995    0.335938   1.818181
