 26
Energy: -16507.56965715.7 eV PBE+vdW (tier 2 basis)
N   -0.269481    0.327819  -0.062689
C    0.075715   -0.111594   1.291289
C    1.589640   -0.217759   1.449374
O    2.191715    0.213944   2.422208
H   -1.284056    0.359166  -0.165904
H    0.078629    1.270012  -0.241528
H   -0.244876    0.582590   2.090611
C   -0.573087   -1.493623   1.537565
C   -0.551403   -2.043793   2.971476
C    0.807595   -2.489557   3.539058
N    1.488502   -3.432606   2.660976
C    2.858061   -3.626299   2.568002
N    3.287284   -4.820729   2.333143
N    3.653615   -2.470013   2.608342
H   -0.118467   -2.213076   0.843174
H   -1.628640   -1.392407   1.237520
H   -1.236478   -2.906599   2.998750
H   -0.976798   -1.305275   3.669777
H    0.636908   -2.926844   4.540551
H    1.443043   -1.612586   3.695972
H    1.025510   -4.332356   2.557122
H    4.290105   -4.824358   2.130326
H    4.607228   -2.650255   2.901518
H    3.268913   -1.636383   3.050707
O    2.182983   -0.908151   0.460415
H    3.076345   -1.156245   0.789716
