 26
Energy: -16507.83431315.7 eV PBE+vdW (tier 2 basis)
N    1.027909   -1.294240   0.771530
C    0.367979   -0.271872   1.596507
C    1.050303   -0.129749   2.971828
O    1.094344    0.954596   3.522321
H    2.017193   -1.071788   0.655178
H    0.618285   -1.297388  -0.163960
H    0.444071    0.743420   1.169004
C   -1.142923   -0.560898   1.764060
C   -1.528163   -1.790041   2.600576
C   -1.250337   -3.136650   1.906033
N   -1.184968   -4.276893   2.809073
C   -0.019487   -4.557338   3.481282
N    1.051252   -3.848618   3.297297
N   -0.141388   -5.633407   4.361865
H   -1.587392   -0.634758   0.755736
H   -1.585065    0.334544   2.223080
H   -2.597719   -1.722940   2.856054
H   -0.988473   -1.765010   3.558501
H   -0.282980   -3.088679   1.393929
H   -2.023468   -3.343143   1.150712
H   -2.037954   -4.538696   3.292304
H    1.858901   -4.261079   3.767122
H    0.728088   -5.932623   4.788142
H   -0.700453   -6.412975   4.027260
O    1.593024   -1.215054   3.535638
H    1.336442   -2.112259   3.136550
