 26
Energy: -16507.69456015.7 eV PBE+vdW (tier 2 basis)
N   -0.050415    0.278436  -0.207455
C   -0.094367    0.261236   1.255058
C    1.264464    0.105263   1.939766
O    1.686855    0.808249   2.836208
H    0.552275    1.029523  -0.544421
H    0.337933   -0.597118  -0.561375
H   -0.466773    1.240142   1.586810
C   -1.061695   -0.843603   1.726775
C   -1.185373   -1.025865   3.243000
C   -1.737123    0.205616   3.976885
N   -1.923361    0.010259   5.407694
C   -3.002835   -0.707357   5.887686
N   -3.924578   -1.131399   5.091063
N   -2.926087   -0.913417   7.276513
H   -0.737235   -1.794567   1.275559
H   -2.043211   -0.609291   1.288650
H   -0.208400   -1.298758   3.676029
H   -1.863985   -1.867248   3.438314
H   -2.716779    0.472538   3.558051
H   -1.066755    1.067579   3.854249
H   -1.073337   -0.073480   5.955385
H   -4.707174   -1.532288   5.612812
H   -3.780516   -1.286577   7.676284
H   -2.586976   -0.112782   7.804798
O    1.981609   -0.942909   1.436305
H    2.816546   -0.962314   1.942355
