 26
Energy: -16507.71390515.7 eV PBE+vdW (tier 2 basis)
N   -0.341706    0.503931   0.480686
C    0.243203   -0.035192   1.702071
C    1.759100   -0.254094   1.608851
O    2.418522   -0.200444   0.592519
H   -0.001377   -0.025842  -0.324210
H   -0.010685    1.457410   0.330991
H    0.082452    0.697689   2.508097
C   -0.456721   -1.343887   2.133797
C   -0.274873   -2.510063   1.160889
C   -0.981307   -3.798120   1.611136
N   -0.520040   -4.360763   2.873976
C    0.685103   -5.033944   2.950754
N    1.388433   -5.256357   1.893217
N    1.012442   -5.382880   4.273441
H   -1.526039   -1.106570   2.244747
H   -0.071780   -1.620866   3.126376
H    0.791492   -2.737887   1.016263
H   -0.682501   -2.243533   0.173038
H   -0.836561   -4.570795   0.846034
H   -2.063512   -3.621956   1.709939
H   -0.784443   -3.859897   3.714820
H    2.181053   -5.868712   2.098851
H    1.804629   -6.013326   4.338366
H    0.227852   -5.714800   4.829708
O    2.304681   -0.532661   2.827174
H    3.255266   -0.692178   2.667144
