 26
Energy: -16507.74787815.7 eV PBE+vdW (tier 2 basis)
N    0.570655   -0.173707   0.041312
C    0.478167   -0.370100   1.496886
C    1.673065   -1.146561   2.043768
O    1.744250   -1.587406   3.170146
H    1.427756    0.322926  -0.201542
H   -0.212349    0.400567  -0.272020
H    0.518708    0.592384   2.046956
C   -0.856386   -1.038220   1.900753
C   -1.051788   -2.540280   1.642410
C   -1.027197   -3.026597   0.184792
N    0.293064   -3.090174  -0.422756
C    1.120227   -4.159379  -0.163261
N    0.690339   -5.205434   0.462009
N    2.440109   -3.955623  -0.616685
H   -1.658473   -0.465563   1.403682
H   -0.983764   -0.863228   2.977802
H   -2.034752   -2.805030   2.063818
H   -0.318321   -3.124156   2.216567
H   -1.655174   -2.378927  -0.447273
H   -1.444221   -4.040116   0.147171
H    0.722118   -2.171542  -0.559933
H    1.409940   -5.930607   0.503444
H    2.511820   -3.359317  -1.438264
H    2.947075   -4.824524  -0.752324
O    2.679866   -1.256786   1.136050
H    3.358106   -1.829920   1.543109
