 26
Energy: -16507.70835315.7 eV PBE+vdW (tier 2 basis)
N   -0.686513   -0.694764   0.122929
C    0.362917   -0.140687   0.971213
C    1.304741    0.803965   0.220876
O    1.532485    0.761416  -0.970548
H   -1.371931    0.025226  -0.105753
H   -0.275674   -0.983523  -0.768262
H   -0.107851    0.432390   1.784146
C    1.206851   -1.270681   1.603913
C    0.402265   -2.134907   2.573612
C    1.208275   -3.334927   3.085102
N    0.489269   -4.126498   4.070370
C    0.487680   -3.798422   5.420352
N    1.026222   -2.779217   5.995672
N   -0.189002   -4.749202   6.193845
H    2.072116   -0.826640   2.119692
H    1.612788   -1.889249   0.785106
H   -0.509637   -2.494721   2.078386
H    0.078021   -1.524976   3.431137
H    2.178383   -2.996396   3.495648
H    1.450575   -3.999841   2.243936
H    0.408003   -5.117584   3.875835
H    1.599963   -2.236270   5.346175
H   -0.282271   -4.426949   7.152899
H   -1.078645   -5.052246   5.806058
O    1.898615    1.702912   1.054951
H    2.508356    2.228794   0.500708
