 26
Energy: -16507.56094215.7 eV PBE+vdW (tier 2 basis)
N    0.697540   -0.582320   0.295143
C    0.255027   -0.146385   1.618472
C    1.365550   -0.210945   2.663879
O    1.189199   -0.046259   3.852591
H    1.604156   -0.183050   0.059088
H    0.030072   -0.281285  -0.414238
H   -0.035508    0.925897   1.651960
C   -0.990824   -0.937369   2.080737
C   -0.905863   -2.461851   1.935622
C    0.189642   -3.121991   2.770757
N    0.126154   -4.571377   2.641279
C    1.214552   -5.347092   2.996374
N    2.335357   -4.807344   3.335388
N    0.913785   -6.721878   2.963570
H   -1.847045   -0.578245   1.489115
H   -1.193012   -0.654560   3.123568
H   -0.749301   -2.728666   0.881337
H   -1.886844   -2.874864   2.227066
H    0.122202   -2.806908   3.827647
H    1.186788   -2.828743   2.420454
H   -0.774015   -4.988439   2.858824
H    3.062609   -5.517345   3.451387
H    1.732786   -7.313927   3.053407
H    0.336744   -7.005550   2.174908
O    2.598532   -0.412405   2.124272
H    3.218050   -0.437564   2.879276
