 26
Energy: -16507.81978915.7 eV PBE+vdW (tier 2 basis)
N   -0.102519    0.673499   0.743519
C    0.747573    0.014326   1.731121
C    2.184877   -0.022925   1.186198
O    2.415559   -0.075072  -0.007265
H   -1.058734    0.320858   0.777694
H    0.279589    0.460968  -0.182668
H    0.767057    0.630294   2.645871
C    0.310413   -1.430909   2.105947
C   -0.932027   -1.483963   3.017604
C   -0.614105   -1.636483   4.514502
N    0.362319   -0.658997   5.012342
C    1.694891   -0.956496   5.206208
N    2.605442   -0.149773   4.742287
N    1.931172   -2.138775   5.881858
H    1.142687   -1.966318   2.589572
H    0.116822   -1.960284   1.162089
H   -1.577512   -2.330793   2.739866
H   -1.550764   -0.583400   2.867585
H   -0.198325   -2.635183   4.700401
H   -1.542557   -1.558245   5.100602
H    0.260358    0.277356   4.630457
H    3.530043   -0.355884   5.128145
H    2.899240   -2.361403   6.075881
H    1.279798   -2.397933   6.614877
O    3.164810   -0.031778   2.095075
H    2.824946    0.025548   3.053098
