 26
Energy: -16507.61957015.7 eV PBE+vdW (tier 2 basis)
N    0.399422   -0.291531  -0.140196
C    0.077624   -0.071507   1.270380
C    1.334213    0.049048   2.128199
O    1.389746   -0.172205   3.319390
H    1.101003    0.372062  -0.464369
H   -0.435028   -0.162132  -0.711800
H   -0.434603    0.900353   1.453734
C   -0.853510   -1.170492   1.806965
C   -0.297564   -2.590783   1.689730
C   -1.266821   -3.628390   2.274350
N   -0.837349   -5.010678   2.152858
C   -0.974803   -5.726412   0.969408
N   -1.579774   -5.381177  -0.114917
N   -0.351075   -6.978842   1.036096
H   -1.805972   -1.097567   1.255807
H   -1.082916   -0.936505   2.856667
H    0.660155   -2.659573   2.229296
H   -0.082663   -2.824767   0.638392
H   -2.254882   -3.542278   1.795263
H   -1.431524   -3.423030   3.343309
H   -0.020369   -5.262162   2.701090
H   -1.866285   -4.400146  -0.093428
H   -0.525403   -7.491244   1.896986
H   -0.577577   -7.531082   0.213784
O    2.402962    0.511760   1.420421
H    3.132149    0.597205   2.064765
