 26
Energy: -16507.89850015.7 eV PBE+vdW (tier 2 basis)
N   -0.041870    0.040521   0.455476
C    0.090925   -0.114253   1.900963
C    1.585893   -0.254455   2.245518
O    2.379851   -0.716954   1.448033
H   -0.914883   -0.360292   0.114157
H    0.733568   -0.465205   0.017307
H   -0.271455    0.805182   2.388900
C   -0.665916   -1.328758   2.505684
C   -2.179885   -1.133396   2.665486
C   -2.597465   -0.099286   3.728974
N   -2.067873   -0.359354   5.062776
C   -0.794276   -0.003555   5.444656
N   -0.107680    1.011138   5.000907
N   -0.241020   -0.805844   6.423226
H   -0.234880   -1.592253   3.483810
H   -0.472476   -2.193825   1.854027
H   -2.636103   -2.103270   2.921807
H   -2.638165   -0.832035   1.708455
H   -3.693022   -0.065949   3.802590
H   -2.290697    0.910744   3.425688
H   -2.490511   -1.124724   5.577089
H   -0.690353    1.647078   4.453344
H   -0.372165   -1.808374   6.337092
H    0.701604   -0.530212   6.678861
O    1.961539    0.113363   3.476251
H    1.201362    0.504718   4.031549
