 26
Energy: -16507.73552815.7 eV PBE+vdW (tier 2 basis)
N    2.527217    0.106988   0.671050
C    1.573398   -0.088549   1.783273
C    0.148626   -0.183520   1.181596
O   -0.868467   -0.156750   1.844986
H    3.402108   -0.388048   0.833240
H    1.117838   -0.291581  -0.385769
H    1.765255   -1.097105   2.186100
C    1.667931    0.939617   2.938445
C    1.711335    0.338662   4.350299
C    0.426498   -0.378929   4.795322
N   -0.756289    0.465121   4.752366
C   -1.461745    0.914112   5.852429
N   -2.697456    1.288351   5.877566
N   -0.727751    0.939794   7.046335
H    0.829040    1.647291   2.874902
H    2.586954    1.524509   2.786156
H    1.926486    1.153777   5.059457
H    2.555157   -0.368796   4.426925
H    0.555618   -0.759652   5.817178
H    0.247024   -1.257212   4.154782
H   -1.270928    0.421148   3.877461
H   -3.162721    1.079677   4.989706
H   -1.276671    1.389576   7.773776
H    0.203259    1.341832   6.972163
O    0.144029   -0.333941  -0.149368
H    2.755254    1.095628   0.557625
