 26
Energy: -16507.70226915.7 eV PBE+vdW (tier 2 basis)
N   -0.369141   -0.983990  -0.072602
C   -0.383446   -0.429091   1.278857
C    0.950517    0.211955   1.670750
O    2.045573   -0.254444   1.436279
H   -0.230284   -0.243449  -0.761130
H    0.426237   -1.619311  -0.170012
H   -1.157970    0.349527   1.316158
C   -0.727489   -1.553295   2.279435
C   -0.817321   -1.155180   3.756183
C   -1.927623   -0.136287   4.066009
N   -2.133839    0.122346   5.480533
C   -2.813820   -0.769064   6.302800
N   -3.475878   -1.823730   5.971655
N   -2.725194   -0.412875   7.654379
H    0.031529   -2.342923   2.164682
H   -1.681093   -1.985248   1.940764
H    0.146467   -0.752951   4.108214
H   -0.996319   -2.064363   4.348407
H   -2.884068   -0.478863   3.640414
H   -1.707115    0.828227   3.588122
H   -1.385603    0.630453   5.942053
H   -3.360819   -2.052607   4.982110
H   -3.340331   -0.996235   8.214718
H   -2.869743    0.576409   7.840338
O    0.782722    1.394112   2.335007
H    1.682057    1.710053   2.554160
