 26
Energy: -16507.59016615.7 eV PBE+vdW (tier 2 basis)
N   -0.220488   -1.394565  -0.427590
C   -0.271664   -0.509605   0.748507
C    0.968912    0.384241   0.702988
O    1.846675    0.449723   1.533546
H   -0.197384   -0.842434  -1.285215
H   -1.065351   -1.965843  -0.460694
H   -1.141067    0.182664   0.732964
C   -0.321173   -1.335437   2.034175
C   -0.696360   -0.528892   3.278990
C   -0.619107   -1.378804   4.556231
N   -0.974627   -0.688135   5.782690
C   -0.099798    0.185383   6.421446
N    1.132264    0.437684   6.147310
N   -0.712161    0.842858   7.497758
H    0.655518   -1.821947   2.172015
H   -1.055818   -2.144148   1.885141
H   -1.719345   -0.130252   3.174166
H   -0.028623    0.337758   3.383702
H    0.399115   -1.779067   4.677288
H   -1.279994   -2.254792   4.463711
H   -1.954428   -0.438382   5.876203
H    1.427565    0.018719   5.262677
H   -1.258339    0.235792   8.104141
H   -0.023058    1.376274   8.020715
O    0.974666    1.138863  -0.434978
H    1.799314    1.661992  -0.407898
