 26
Energy: -16507.66915415.7 eV PBE+vdW (tier 2 basis)
N    0.106372    1.915312   0.840295
C   -0.322762    1.025255   1.913676
C    0.666039    0.811152   3.064341
O    0.356630    0.654634   4.227253
H    0.961402    1.567264   0.404310
H    0.314519    2.846169   1.199975
H   -1.213050    1.465848   2.387242
C   -0.710805   -0.358696   1.350366
C   -1.878633   -0.298101   0.365498
C   -2.267493   -1.673330  -0.204169
N   -1.243579   -2.355299  -0.978394
C   -0.911801   -1.983956  -2.274328
N   -1.483762   -1.114556  -3.033485
N    0.203416   -2.684941  -2.754926
H   -0.959320   -1.021016   2.194738
H    0.177940   -0.788078   0.858112
H   -1.628453    0.394959  -0.448916
H   -2.763823    0.120457   0.871703
H   -3.158769   -1.569525  -0.841021
H   -2.556066   -2.348735   0.615905
H   -0.485373   -2.771222  -0.448533
H   -2.190416   -0.574192  -2.530419
H    0.340900   -2.488644  -3.742648
H    0.182210   -3.685144  -2.571098
O    1.963998    0.783136   2.640162
H    2.499962    0.610120   3.438253
