 26
Energy: -16507.65324515.7 eV PBE+vdW (tier 2 basis)
N    0.331133    0.953290   0.982007
C    0.270000   -0.137726   1.943771
C    1.572517   -0.529607   2.649322
O    1.633707   -1.018833   3.759585
H    0.783691    0.660250   0.111622
H    0.845731    1.750228   1.352267
H   -0.408693    0.150088   2.763740
C   -0.292097   -1.404824   1.263845
C   -1.701891   -1.204952   0.690712
C   -1.987798   -2.074604  -0.542244
N   -1.089037   -1.819919  -1.679779
C   -0.927809   -0.527192  -2.177974
N    0.266170   -0.056677  -2.328230
N   -2.126870    0.127552  -2.435490
H   -0.276283   -2.236294   1.982057
H    0.412092   -1.667027   0.457300
H   -1.827958   -0.150807   0.406087
H   -2.457087   -1.418178   1.462889
H   -3.029348   -1.925967  -0.861273
H   -1.891316   -3.144254  -0.305256
H   -0.165008   -2.227454  -1.560364
H    0.256617    0.825708  -2.848325
H   -2.043614    1.016137  -2.913806
H   -2.891167   -0.448746  -2.773358
O    2.681827   -0.294714   1.891213
H    3.435152   -0.612937   2.425673
