 26
Energy: -16507.57099615.7 eV PBE+vdW (tier 2 basis)
N    0.069120   -0.388981  -0.075122
C    0.169669   -0.224955   1.382747
C    1.592326    0.204327   1.730426
O    2.278594   -0.221384   2.635714
H    0.370370    0.459018  -0.555043
H   -0.904174   -0.554654  -0.331169
H   -0.462560    0.609644   1.765718
C   -0.261809   -1.519720   2.095140
C   -1.005819   -1.334237   3.424165
C   -0.170263   -0.830755   4.614657
N    0.966993   -1.674759   4.970181
C    0.816308   -2.991493   5.376795
N    1.650594   -3.883307   4.959498
N   -0.287934   -3.208936   6.214733
H    0.607465   -2.178770   2.227937
H   -0.931912   -2.049872   1.402997
H   -1.447982   -2.300892   3.707963
H   -1.852214   -0.640371   3.279229
H   -0.834715   -0.713828   5.483662
H    0.236795    0.170173   4.415463
H    1.747885   -1.583216   4.322415
H    1.517789   -4.773819   5.447155
H   -0.487079   -2.457301   6.869998
H   -0.277067   -4.115142   6.669575
O    2.025303    1.198579   0.905277
H    2.931762    1.415857   1.197418
