 26
Energy: -16507.53084715.7 eV PBE+vdW (tier 2 basis)
N   -0.021296   -1.032124  -0.414740
C   -0.079626    0.064848   0.551804
C    1.276179    0.651353   0.957297
O    1.524076    1.832861   1.073300
H    0.571796   -1.783388  -0.059670
H    0.394933   -0.718152  -1.291583
H   -0.619532    0.901820   0.085322
C   -0.837078   -0.352346   1.831600
C   -2.363913   -0.423610   1.705917
C   -2.913947   -1.536663   0.813810
N   -4.369198   -1.593494   0.958374
C   -5.173925   -2.389220   0.155466
N   -6.354783   -1.969132  -0.152926
N   -4.575642   -3.582124  -0.257373
H   -0.598399    0.375186   2.621725
H   -0.434568   -1.319577   2.175530
H   -2.740572    0.549368   1.346914
H   -2.781790   -0.559637   2.716175
H   -2.470518   -2.493381   1.138464
H   -2.601354   -1.389411  -0.231523
H   -4.818952   -0.690693   1.090639
H   -6.891761   -2.687504  -0.645200
H   -5.226920   -4.266458  -0.624011
H   -3.897499   -3.989866   0.379496
O    2.204366   -0.321621   1.203884
H    3.016597    0.147312   1.476486
