 26
Energy: -16507.75641215.7 eV PBE+vdW (tier 2 basis)
N    0.027001   -0.289670  -0.040072
C   -0.336974    0.147607   1.323975
C    0.754664    1.126849   1.823863
O    0.844959    1.502452   2.976256
H   -0.794598   -0.401292  -0.630762
H    1.266121    1.017405   0.054514
H   -1.250641    0.757287   1.238540
C   -0.583583   -0.981661   2.335912
C    0.689150   -1.782212   2.691372
C    1.110282   -1.600724   4.166059
N    2.456038   -2.044060   4.480263
C    3.591296   -1.436343   3.944522
N    4.608341   -2.190255   3.678756
N    3.536565   -0.056073   3.837577
H   -1.366136   -1.636134   1.926797
H   -1.004811   -0.533560   3.247759
H    1.536890   -1.463334   2.062115
H    0.554159   -2.853027   2.483457
H    0.417486   -2.151079   4.819470
H    0.996663   -0.543397   4.443983
H    2.596650   -3.050652   4.495288
H    5.426194   -1.630305   3.424125
H    4.212467    0.361130   3.211535
H    2.643977    0.429061   3.849330
O    1.590072    1.527951   0.856346
H    0.511881   -1.188452  -0.018423
