 26
Energy: -16507.81560115.7 eV PBE+vdW (tier 2 basis)
N    0.672075   -0.383471   0.393726
C   -0.105164    0.045647   1.563238
C    0.721648    0.309695   2.820393
O    0.565699    1.277897   3.545645
H    1.239636   -1.195615   0.645681
H    1.331594    0.349522   0.128518
H   -0.605055    0.992083   1.312139
C   -1.176054   -1.028589   1.862923
C   -2.264530   -0.700967   2.898582
C   -1.874449   -0.707823   4.391466
N   -1.272366   -1.953369   4.836328
C    0.020435   -2.107139   5.272927
N    0.850137   -1.184684   5.666375
N    0.440333   -3.432827   5.289563
H   -0.659213   -1.959663   2.146981
H   -1.662952   -1.229025   0.897806
H   -3.082297   -1.426379   2.756530
H   -2.703832    0.286130   2.682738
H   -2.776190   -0.498029   4.988410
H   -1.170328    0.103367   4.602676
H   -1.827917   -2.798010   4.759836
H    0.383091   -0.285236   5.804296
H    1.409163   -3.515336   5.581047
H    0.222268   -3.981603   4.463138
O    1.578626   -0.699716   3.085002
H    1.689889   -0.747553   4.086578
