 26
Energy: -16507.80693115.7 eV PBE+vdW (tier 2 basis)
N   -0.341122    1.169767   0.150270
C    0.155697    0.849213   1.487343
C    1.676242    0.967392   1.605507
O    2.456444    0.950609   0.675860
H    0.073775    0.534258  -0.534618
H   -0.032526    2.105424  -0.117986
H   -0.281951    1.569159   2.195929
C   -0.256936   -0.578134   1.920239
C   -1.748928   -0.923851   1.773756
C   -2.727933    0.026344   2.466212
N   -2.932361    1.230417   1.666374
C   -3.262492    2.416620   2.281138
N   -3.561622    2.459744   3.536944
N   -3.175819    3.514787   1.400943
H    0.047927   -0.705178   2.968554
H    0.332546   -1.303473   1.334792
H   -1.888572   -1.930599   2.194058
H   -2.017400   -1.004548   0.708839
H   -2.372269    0.307665   3.471736
H   -3.692980   -0.482879   2.617188
H   -2.297222    1.310298   0.866010
H   -3.838429    3.403552   3.817168
H   -3.654226    4.340771   1.745495
H   -3.453661    3.302991   0.445099
O    2.073196    1.079102   2.902739
H    3.049518    1.117210   2.887421
