 26
Energy: -16507.70885015.7 eV PBE+vdW (tier 2 basis)
N    0.003407   -0.844391  -0.691663
C    0.200130   -0.163143   0.578732
C    1.645110    0.306431   0.803489
O    2.558769    0.185418   0.016240
H    0.347155   -0.262984  -1.456585
H    0.566173   -1.695623  -0.726749
H   -0.379981    0.775908   0.544111
C   -0.394176   -0.977066   1.750383
C    0.171398   -2.386184   1.974357
C    1.624152   -2.456407   2.482164
N    1.878967   -1.773346   3.738718
C    1.498042   -2.309431   4.962430
N    1.036503   -3.484864   5.220378
N    1.660762   -1.395811   6.011900
H   -1.468115   -1.067437   1.538485
H   -0.309160   -0.389083   2.675019
H    0.094952   -2.981752   1.050492
H   -0.481427   -2.889144   2.703056
H    2.318806   -2.045128   1.735612
H    1.916534   -3.510128   2.602109
H    1.847246   -0.759183   3.690130
H    0.841834   -4.014147   4.368041
H    2.536087   -0.878868   5.989288
H    1.516486   -1.855844   6.906446
O    1.802620    0.954700   2.001801
H    2.726094    1.275533   2.005433
