 26
Energy: -16507.64961915.7 eV PBE+vdW (tier 2 basis)
N   -0.418532    0.215290   0.226952
C   -0.120779   -0.146754   1.625982
C    1.373665   -0.518537   1.728039
O    1.995879   -0.500742   2.767130
H   -0.252246    1.205914   0.051263
H    1.186140   -0.709285  -0.107683
H   -0.275486    0.687955   2.328619
C   -1.034095   -1.318042   2.041761
C   -0.755688   -1.935502   3.424648
C    0.056913   -3.231073   3.372775
N   -0.701101   -4.286077   2.708349
C   -0.047440   -5.398196   2.197858
N    1.237331   -5.468297   2.192330
N   -0.954930   -6.378488   1.754498
H   -0.969725   -2.107180   1.275073
H   -2.065101   -0.932220   2.003847
H   -1.714744   -2.135319   3.929331
H   -0.220002   -1.219732   4.063131
H    0.353516   -3.528385   4.393556
H    0.991186   -3.103688   2.813367
H   -1.597584   -4.501114   3.136348
H    1.561980   -6.290102   1.677050
H   -0.513956   -7.129038   1.233372
H   -1.766448   -6.010779   1.263158
O    1.915297   -0.882606   0.549273
H   -1.391720    0.020546  -0.007086
