 26
Energy: -16507.81777015.7 eV PBE+vdW (tier 2 basis)
N   -0.066278    0.131255  -0.031017
C   -0.095437    0.041053   1.431910
C    1.314260   -0.212125   2.020908
O    2.093352   -0.972126   1.478651
H    0.437230    0.975472  -0.308450
H    0.497235   -0.648188  -0.383628
H   -0.478401    0.999927   1.802701
C   -1.047391   -1.112924   1.822136
C   -1.310858   -1.332020   3.318668
C   -2.455762   -0.497092   3.934631
N   -2.502546    0.928563   3.611305
C   -1.457522    1.781069   3.871759
N   -0.430338    1.545706   4.634021
N   -1.497604    2.977239   3.169276
H   -0.612930   -2.032856   1.401696
H   -1.990220   -0.945444   1.278426
H   -0.379651   -1.195959   3.887057
H   -1.590279   -2.383695   3.482250
H   -2.446471   -0.614479   5.029812
H   -3.419084   -0.902635   3.597482
H   -3.072521    1.168275   2.808124
H   -0.512395    0.635444   5.090249
H   -0.873261    3.675965   3.558721
H   -2.413410    3.342208   2.931787
O    1.664384    0.439772   3.145875
H    0.918116    0.977906   3.547397
