 26
Energy: -16507.64175715.7 eV PBE+vdW (tier 2 basis)
N   -0.788745    0.183067  -0.143367
C   -0.220204   -0.259211   1.131698
C    1.284268   -0.030044   1.270511
O    1.832145    0.470205   2.232330
H   -0.344957   -0.309691  -0.920015
H   -0.613349    1.177714  -0.289225
H   -0.671319    0.346641   1.930458
C   -0.599943   -1.733731   1.376296
C   -0.220399   -2.306326   2.751032
C    1.191521   -2.916009   2.826411
N    1.540679   -3.466076   4.123178
C    1.963155   -2.653225   5.175551
N    2.260058   -1.403068   5.164738
N    2.051533   -3.371142   6.378141
H   -0.166774   -2.353923   0.573080
H   -1.689318   -1.773612   1.239835
H   -0.940514   -3.097512   3.010861
H   -0.325207   -1.533446   3.527738
H    1.960831   -2.175935   2.569338
H    1.280776   -3.721362   2.080775
H    0.982198   -4.261815   4.418837
H    2.040606   -0.939130   4.280046
H    2.489794   -2.798478   7.094348
H    2.505602   -4.277318   6.291999
O    1.980289   -0.461702   0.177039
H    2.920283   -0.277861   0.368887
