 26
Energy: -16507.65487215.7 eV PBE+vdW (tier 2 basis)
N   -0.669228   -1.880717   1.332224
C    0.557930   -1.114029   1.551519
C    0.610983    0.178611   0.748799
O    1.616621    0.830099   0.553595
H   -0.903900   -2.407664   2.175700
H   -1.450410   -1.254647   1.146032
H    0.635197   -0.749984   2.596431
C    1.815461   -1.954126   1.218529
C    1.903533   -3.311141   1.926007
C    2.406840   -3.302100   3.382485
N    1.724544   -2.420169   4.323288
C    0.388543   -2.570191   4.651966
N   -0.392100   -3.565314   4.391500
N   -0.135352   -1.453720   5.314734
H    2.709560   -1.345796   1.420210
H    1.796912   -2.136385   0.134135
H    2.605858   -3.948191   1.366293
H    0.930751   -3.817428   1.848573
H    3.464030   -3.001410   3.400406
H    2.376870   -4.328148   3.782408
H    2.058736   -1.462595   4.332096
H    0.078057   -4.274162   3.825441
H   -1.055947   -1.661703   5.691401
H    0.476745   -1.045923   6.016549
O   -0.611121    0.578891   0.294596
H   -0.455113    1.424943  -0.167915
