 26
Energy: -16507.64231415.7 eV PBE+vdW (tier 2 basis)
N    1.262228   -0.777930   0.075249
C    0.871274    0.213088   1.075514
C    2.013792    0.579348   2.010681
O    1.918436    1.394187   2.911324
H    2.128141   -0.517730  -0.394027
H    0.535730   -0.855382  -0.635964
H    0.594353    1.197166   0.642345
C   -0.373996   -0.266853   1.859749
C   -0.236262   -1.627598   2.555979
C    0.384987   -1.580072   3.956684
N   -0.433211   -0.801073   4.883288
C    0.082721   -0.134999   5.991594
N   -0.595797   -0.166399   7.091066
N    1.306411    0.492967   5.772906
H   -1.196983   -0.310518   1.130176
H   -0.651764    0.504770   2.591405
H    0.354974   -2.306561   1.924489
H   -1.237118   -2.079762   2.639553
H    1.388896   -1.141345   3.931410
H    0.521137   -2.615167   4.321342
H   -1.300396   -1.257656   5.157113
H   -0.203947    0.475429   7.785538
H    1.588149    1.108078   6.527120
H    1.446613    0.909049   4.851586
O    3.180315   -0.051767   1.727785
H    3.831195    0.289411   2.372546
