 26
Energy: -16507.67284115.7 eV PBE+vdW (tier 2 basis)
N   -0.336698   -0.462815   0.098369
C   -0.210672   -0.203513   1.531924
C    1.210024    0.203044   1.931639
O    2.225576   -0.337391   1.543262
H    0.388208   -1.123617  -0.191080
H   -0.174728    0.392977  -0.433710
H   -0.887365    0.622571   1.788642
C   -0.620460   -1.471527   2.309918
C   -0.559285   -1.386865   3.838790
C   -1.534073   -0.380543   4.447866
N   -1.462860   -0.423679   5.903003
C   -2.428257    0.224015   6.656171
N   -3.458629    0.755355   6.093910
N   -2.107400    0.235087   8.025547
H    0.030875   -2.292018   1.970208
H   -1.639495   -1.721260   1.980323
H    0.470123   -1.150870   4.160561
H   -0.782241   -2.382279   4.251080
H   -2.567856   -0.619194   4.165183
H   -1.338438    0.639743   4.074762
H   -0.524107   -0.353293   6.285497
H   -4.128184    1.088811   6.791749
H   -2.870906    0.547679   8.616013
H   -1.701954   -0.632147   8.369998
O    1.225329    1.260362   2.793982
H    2.167056    1.431886   2.995002
