 26
Energy: -16507.69217615.7 eV PBE+vdW (tier 2 basis)
N   -0.530394   -0.145662  -0.239191
C    0.253001    0.172895   0.947648
C    1.754217   -0.057709   0.762066
O    2.250308   -0.831116  -0.031259
H   -0.218818   -1.043597  -0.616800
H   -0.356779    0.542395  -0.971783
H    0.111279    1.237311   1.184838
C   -0.216225   -0.672467   2.157309
C   -1.690187   -0.470343   2.520720
C   -2.004802    0.933235   3.033571
N   -3.397067    1.027332   3.445806
C   -3.968986    2.265395   3.677896
N   -3.318664    3.351179   3.433254
N   -5.263936    2.154747   4.216628
H    0.424082   -0.437742   3.021184
H   -0.043052   -1.733365   1.916294
H   -1.950946   -1.210481   3.296260
H   -2.317606   -0.686196   1.645090
H   -1.857871    1.688749   2.251572
H   -1.319359    1.206702   3.858293
H   -3.715687    0.292750   4.070569
H   -3.918654    4.171981   3.545822
H   -5.766035    3.035994   4.241171
H   -5.829386    1.416889   3.802967
O    2.497383    0.694928   1.621394
H    3.430158    0.452176   1.459049
