 26
Energy: -16507.66817815.7 eV PBE+vdW (tier 2 basis)
N    0.231776   -0.353539   0.005815
C   -0.252557    0.348486   1.194574
C    0.824323    0.863235   2.152173
O    0.801841    1.935991   2.718545
H    0.805008    0.264020  -0.568817
H    0.827806   -1.136401   0.279213
H   -0.789110    1.249420   0.862379
C   -1.233791   -0.537812   1.987688
C   -2.518136   -0.833294   1.212544
C   -3.507693   -1.725762   1.971143
N   -4.003282   -1.144742   3.210341
C   -3.539382   -1.500468   4.470342
N   -2.587111   -2.309769   4.782091
N   -4.261123   -0.867491   5.490611
H   -1.474499   -0.040322   2.938170
H   -0.720669   -1.477433   2.251675
H   -2.267918   -1.315217   0.255985
H   -3.018626    0.117107   0.964839
H   -3.048039   -2.705527   2.183627
H   -4.372302   -1.934917   1.325028
H   -4.959759   -0.811091   3.193174
H   -2.221889   -2.802746   3.964549
H   -3.827504   -1.044007   6.392403
H   -4.425314    0.124419   5.337931
O    1.832616   -0.041030   2.331084
H    2.438632    0.360664   2.983143
