 26
Energy: -16507.73875715.7 eV PBE+vdW (tier 2 basis)
N   -0.111532   -0.471420   0.715990
C   -0.296834   -1.365779   1.851591
C    0.940177   -2.205839   2.176681
O    1.853500   -2.437993   1.411866
H    0.283924   -0.994412  -0.068706
H    0.577469    0.245213   0.945329
H   -0.511252   -0.756345   2.742787
C   -1.483515   -2.329640   1.614389
C   -2.800393   -1.634216   1.249256
C   -3.235912   -0.539867   2.231460
N   -3.274865   -0.993293   3.607589
C   -2.664502   -0.345635   4.667335
N   -2.032521    0.779621   4.672981
N   -2.798153   -1.058561   5.865506
H   -1.615579   -2.933775   2.522152
H   -1.215250   -3.029001   0.806042
H   -3.586166   -2.403475   1.174880
H   -2.718318   -1.171348   0.256045
H   -4.211699   -0.130375   1.919925
H   -2.523024    0.292654   2.171214
H   -3.984247   -1.673793   3.854846
H   -2.150609    1.286317   3.792553
H   -2.269145   -0.605494   6.605399
H   -2.577161   -2.048730   5.793777
O    0.899566   -2.701554   3.446471
H    1.707953   -3.240633   3.551265
