 26
Energy: -16507.54447015.7 eV PBE+vdW (tier 2 basis)
N    1.093646    0.317664   0.565402
C    0.440509    0.187399   1.880149
C    1.423502   -0.396694   2.893853
O    2.048502    0.246395   3.712347
H    1.381897   -0.600411   0.221465
H    1.938996    0.884982   0.643463
H    0.224689    1.204262   2.237973
C   -0.875611   -0.584908   1.723472
C   -1.843968   -0.526565   2.911527
C   -1.408577   -1.297634   4.157670
N   -2.501897   -1.323125   5.128528
C   -2.366120   -1.901461   6.385555
N   -2.948182   -1.342950   7.391393
N   -1.566485   -3.047889   6.407417
H   -0.656513   -1.633956   1.468099
H   -1.369690   -0.147545   0.844143
H   -2.813531   -0.933451   2.586274
H   -2.028097    0.527383   3.181558
H   -0.495673   -0.856758   4.597204
H   -1.151546   -2.326591   3.862954
H   -2.989364   -0.435099   5.228960
H   -2.885550   -1.922906   8.232143
H   -1.649822   -3.589227   7.260423
H   -1.602753   -3.630260   5.575465
O    1.609460   -1.742934   2.726160
H    2.302960   -1.994291   3.366344
