 26
Energy: -16507.65038715.7 eV PBE+vdW (tier 2 basis)
N    0.301337    0.041118   0.040902
C   -0.557100    0.192241   1.234288
C    0.320902    0.877530   2.282604
O    0.942573    0.334990   3.176344
H    0.545087    0.957674  -0.336558
H   -0.218131   -0.450721  -0.687066
H   -1.425649    0.855236   1.062393
C   -1.043751   -1.184341   1.695615
C   -2.288081   -1.202961   2.594429
C   -2.145797   -0.575864   3.982655
N   -2.085530    0.886975   3.908139
C   -1.688304    1.667264   4.997045
N   -2.366347    2.733769   5.260976
N   -0.580059    1.172106   5.677512
H   -0.207478   -1.703861   2.185389
H   -1.278407   -1.763679   0.788608
H   -2.584475   -2.253326   2.736452
H   -3.134093   -0.726682   2.068623
H   -1.229673   -0.941467   4.461765
H   -2.988969   -0.903526   4.619129
H   -2.928182    1.304588   3.516616
H   -1.907724    3.297215   5.982479
H   -0.195180    1.811040   6.363272
H    0.131721    0.730075   5.094932
O    0.404011    2.210651   2.038736
H    1.009008    2.579317   2.711125
