 26
Energy: -16507.62477215.7 eV PBE+vdW (tier 2 basis)
N   -0.011573    0.731293   0.052966
C   -0.702748    0.713583   1.357260
C    0.161932    1.487209   2.369768
O   -0.247934    2.470909   2.954817
H    0.219537    1.696390  -0.188921
H   -0.651664    0.410382  -0.674435
H   -1.663046    1.254708   1.329222
C   -0.958433   -0.721624   1.888939
C   -1.208306   -1.834192   0.854942
C    0.009145   -2.725497   0.542834
N    1.045631   -2.184483  -0.319656
C    2.177343   -1.554052   0.117836
N    2.353077   -1.231819   1.366199
N    3.073719   -1.290944  -0.914520
H   -1.821873   -0.650755   2.564452
H   -0.110898   -1.037023   2.511958
H   -1.637251   -1.442466  -0.082331
H   -1.978206   -2.512007   1.254968
H   -0.350373   -3.651988   0.068003
H    0.499176   -3.009422   1.483712
H    0.797309   -2.008639  -1.285890
H    3.329100   -0.979018   1.537626
H    3.202988   -2.024143  -1.604626
H    3.936278   -0.840228  -0.634219
O    1.400570    1.014159   2.566804
H    1.588743    0.160472   2.047196
