 26
Energy: -16507.69377115.7 eV PBE+vdW (tier 2 basis)
N   -0.183610    0.955831  -0.184614
C    0.177286    0.519246   1.159610
C    1.663264    0.198679   1.181297
O    2.453688    0.474453   0.303337
H   -0.942368    1.633397  -0.157303
H    0.621160    1.383179  -0.643295
H    0.097973    1.330798   1.916018
C   -0.753348   -0.613607   1.658962
C   -0.869132   -1.847078   0.757082
C    0.366344   -2.758147   0.690718
N    0.835343   -3.271947   1.971869
C    0.169239   -4.303393   2.604115
N   -0.809804   -4.917546   2.030862
N    0.670075   -4.542067   3.898090
H   -1.753711   -0.164700   1.757526
H   -0.457591   -0.895599   2.680356
H   -1.104215   -1.519074  -0.265731
H   -1.715566   -2.454085   1.106814
H    1.211954   -2.243755   0.211160
H    0.124143   -3.627070   0.066417
H    1.253710   -2.583212   2.589123
H   -1.110696   -5.725007   2.581391
H    1.682545   -4.477341   3.975348
H    0.323671   -5.402689   4.308949
O    2.061217   -0.381582   2.355525
H    3.031570   -0.467271   2.280570
