 26
Energy: -16507.77602415.7 eV PBE+vdW (tier 2 basis)
N   -0.716129   -1.608366   1.238706
C    0.631726   -1.047245   1.271684
C    0.811738    0.154792   0.342129
O    0.055924    0.474407  -0.551452
H   -1.404944   -0.862629   1.349035
H   -0.903181   -2.011863   0.318186
H    0.826775   -0.694278   2.296741
C    1.696024   -2.113841   0.922759
C    1.578606   -3.450614   1.671130
C    1.671430   -3.396949   3.197619
N    0.479241   -2.814639   3.785250
C    0.213834   -2.905028   5.136311
N    0.972341   -3.380506   6.066636
N   -1.057918   -2.423223   5.474665
H    2.685887   -1.671887   1.103462
H    1.641664   -2.318446  -0.159620
H    2.393812   -4.095293   1.311030
H    0.644586   -3.961420   1.392020
H    2.564436   -2.820053   3.500725
H    1.821672   -4.427140   3.571385
H   -0.309376   -2.692415   3.148222
H    1.820066   -3.802040   5.681105
H   -1.334069   -1.572269   4.992660
H   -1.149619   -2.339073   6.482874
O    1.948053    0.847286   0.633426
H    1.994420    1.579730  -0.011687
