 26
Energy: -16507.52885415.7 eV PBE+vdW (tier 2 basis)
N    0.479766   -0.569765   0.281476
C    0.070969   -0.125495   1.617019
C    1.241019    0.443736   2.414594
O    1.245896    0.606147   3.615858
H   -0.347693   -0.748797  -0.287429
H    1.024455    0.150699  -0.190783
H   -0.637131    0.732810   1.585520
C   -0.638436   -1.240336   2.407619
C    0.187334   -2.493392   2.733506
C    0.380133   -3.475549   1.567510
N    1.065261   -4.714988   1.940540
C    0.526453   -5.653077   2.818678
N    1.174115   -6.395306   3.651966
N   -0.862146   -5.775894   2.744279
H   -1.544188   -1.525294   1.846286
H   -0.990907   -0.792411   3.346066
H   -0.318065   -3.031985   3.548575
H    1.172927   -2.200697   3.129277
H    0.959181   -3.004635   0.764466
H   -0.599229   -3.723259   1.130475
H    2.065691   -4.604797   2.072492
H    2.155954   -6.112027   3.715277
H   -1.174278   -6.584983   3.272973
H   -1.251463   -5.748791   1.806326
O    2.282827    0.825003   1.621193
H    2.942481    1.219408   2.224360
