 26
Energy: -16507.58886815.7 eV PBE+vdW (tier 2 basis)
N    0.166669    0.306372   0.126121
C    0.072839    0.145989   1.576391
C    1.494265   -0.020498   2.091915
O    2.339522   -0.719302   1.576655
H   -0.754229    0.206973  -0.301193
H    0.767454   -0.425785  -0.257925
H   -0.336307    1.071674   2.009113
C   -0.822176   -1.039944   2.035725
C   -1.056510   -1.181930   3.549072
C   -0.030894   -2.080160   4.268398
N   -0.236177   -2.209394   5.699339
C    0.189934   -1.314703   6.670942
N   -0.071049   -1.383117   7.933939
N    1.045902   -0.311082   6.216948
H   -0.402581   -1.971083   1.620454
H   -1.789510   -0.888026   1.533700
H   -2.055586   -1.610017   3.721234
H   -1.078017   -0.186518   4.022087
H    0.996518   -1.730023   4.104288
H   -0.072382   -3.088950   3.829792
H   -0.979440   -2.827025   6.000463
H   -0.597121   -2.230889   8.162497
H    1.224540    0.355244   6.962154
H    0.810871    0.137300   5.335774
O    1.719176    0.688493   3.235340
H    2.634959    0.479605   3.510540
