 26
Energy: -16507.73923615.7 eV PBE+vdW (tier 2 basis)
N   -0.102233    0.121691   0.152879
C    0.080041   -0.053296   1.589615
C    1.511215   -0.319949   2.059248
O    1.974764    0.032586   3.131573
H    0.231662   -0.695942  -0.358881
H    0.429145    0.922988  -0.186698
H   -0.219639    0.881916   2.082501
C   -0.847008   -1.193294   2.078723
C   -0.910177   -1.482469   3.586281
C   -1.478620   -0.359306   4.461321
N   -0.514646    0.700866   4.686765
C   -0.887183    1.997646   4.972990
N   -2.065843    2.450878   5.244588
N    0.184162    2.897556   4.905329
H   -0.552416   -2.115809   1.551963
H   -1.849070   -0.932003   1.708046
H    0.076606   -1.782743   3.974169
H   -1.556291   -2.362432   3.718818
H   -1.811610   -0.787863   5.423120
H   -2.381326    0.053522   3.974108
H    0.419570    0.559896   4.303173
H   -2.773921    1.716577   5.186734
H   -0.059594    3.781748   5.341146
H    1.075227    2.535601   5.233008
O    2.241718   -1.035405   1.165512
H    3.115062   -1.176443   1.580639
