 26
Energy: -16507.72914815.7 eV PBE+vdW (tier 2 basis)
N   -0.035907   -0.361174  -0.455062
C   -0.125361   -0.019605   0.956460
C    1.155530    0.615562   1.515622
O    2.263317    0.518133   1.033498
H    0.701681   -1.056445  -0.602310
H    0.232919    0.457406  -1.001598
H   -0.927139    0.726350   1.084915
C   -0.478610   -1.247094   1.825454
C   -1.869563   -1.849921   1.582457
C   -1.988378   -2.780881   0.364317
N   -1.089426   -3.918147   0.433234
C   -0.031613   -4.147092  -0.430529
N    0.331125   -3.465208  -1.463230
N    0.686406   -5.300208  -0.086601
H   -0.405905   -0.940874   2.877865
H    0.291997   -2.020874   1.674872
H   -2.615359   -1.045153   1.478323
H   -2.158028   -2.418381   2.481245
H   -1.769592   -2.211349  -0.546250
H   -3.027256   -3.136798   0.277888
H   -1.397041   -4.720018   0.970949
H   -0.355134   -2.744093  -1.696891
H    1.510322   -5.391679  -0.674096
H    0.912538   -5.382175   0.901414
O    0.909274    1.323157   2.658377
H    1.775085    1.666394   2.953911
