 26
Energy: -16507.64653915.7 eV PBE+vdW (tier 2 basis)
N   -1.800965    0.568291   0.436670
C   -1.123045    0.312926   1.706298
C    0.393945    0.494193   1.683051
O    1.048389    1.030437   2.559826
H   -1.468927   -0.075090  -0.283236
H   -1.603544    1.511692   0.102120
H   -1.482844    1.051468   2.437399
C   -1.510830   -1.090924   2.221254
C   -1.019623   -1.448304   3.633287
C    0.363938   -2.127505   3.679080
N    0.872282   -2.399155   5.009741
C    1.284562   -1.423566   5.910851
N    1.215352   -1.705040   7.171046
N    1.832902   -0.276093   5.348772
H   -1.166319   -1.846080   1.494139
H   -2.608471   -1.110302   2.184590
H   -1.744264   -2.130485   4.101664
H   -1.004737   -0.547533   4.266429
H    1.113817   -1.539267   3.130921
H    0.310664   -3.089302   3.146788
H    0.432198   -3.164651   5.511480
H    1.635397   -0.965912   7.739632
H    1.544541    0.020690   4.419647
H    1.917485    0.500265   5.992819
O    0.970133   -0.027332   0.566507
H    1.931450    0.119569   0.661565
