 26
Energy: -16507.61277515.7 eV PBE+vdW (tier 2 basis)
N    0.195636   -0.621205  -0.309537
C    0.293350   -0.314515   1.117831
C    1.620293   -0.781975   1.723665
O    2.098751   -1.888162   1.577642
H    0.397552   -1.612740  -0.457860
H    0.901016   -0.102403  -0.834113
H    0.227304    0.776101   1.238956
C   -0.876342   -0.976435   1.866223
C   -0.932420   -0.663618   3.362172
C   -2.149633   -1.289330   4.038383
N   -2.151117   -0.973570   5.467184
C   -3.178227   -1.358335   6.328289
N   -3.573765   -0.729163   7.382568
N   -3.809706   -2.548054   5.973249
H   -0.807447   -2.066156   1.714603
H   -1.796850   -0.643189   1.365356
H   -0.956559    0.430174   3.507948
H   -0.024416   -1.025196   3.869526
H   -2.106111   -2.380978   3.904769
H   -3.077353   -0.947031   3.543281
H   -1.815653   -0.037630   5.674944
H   -3.126491    0.188256   7.460638
H   -4.413540   -2.872471   6.722469
H   -3.208603   -3.279402   5.606051
O    2.227598    0.193372   2.457333
H    3.051394   -0.201689   2.806998
