 26
Energy: -16507.64971215.7 eV PBE+vdW (tier 2 basis)
N    0.251484    0.362407  -0.184497
C    0.211667   -0.033493   1.223173
C    1.442261    0.335342   2.054780
O    1.418424    0.749958   3.194582
H    1.083381   -0.021764  -0.635110
H    0.312153    1.376662  -0.271840
H   -0.623004    0.498623   1.702574
C   -0.038061   -1.550322   1.354129
C   -1.414907   -1.970969   0.838593
C   -1.599212   -3.485826   0.858907
N   -2.926202   -3.846289   0.379089
C   -3.380195   -5.146467   0.519313
N   -2.691935   -6.019928   1.170699
N   -4.603773   -5.351786  -0.143486
H    0.071107   -1.837129   2.411200
H    0.754338   -2.083248   0.802493
H   -1.542466   -1.584903  -0.185043
H   -2.199665   -1.503047   1.453959
H   -1.501969   -3.886003   1.876882
H   -0.808300   -3.976897   0.261678
H   -3.205494   -3.396602  -0.488002
H   -3.214702   -6.892239   1.281298
H   -5.040631   -6.239088   0.082499
H   -5.262492   -4.580941  -0.059915
O    2.609322    0.123291   1.375561
H    3.325070    0.355579   1.998126
