 26
Energy: -16507.65721015.7 eV PBE+vdW (tier 2 basis)
N   -0.745050    1.044627   0.429055
C   -0.053237    0.139399   1.351306
C    1.380631   -0.113359   0.892622
O    1.995549   -1.154147   1.022785
H   -0.205725    1.896726   0.280935
H   -1.643536    1.317823   0.827123
H    0.084293    0.573499   2.368094
C   -0.816840   -1.177180   1.518613
C   -1.059173   -1.953368   0.208358
C   -0.966266   -3.467261   0.392916
N    0.402763   -3.858413   0.674533
C    0.721536   -5.120686   1.136137
N   -0.057426   -6.143782   1.255654
N    2.062129   -5.235604   1.522265
H   -1.777086   -0.955044   2.008245
H   -0.255471   -1.797395   2.231559
H   -0.333387   -1.645813  -0.559563
H   -2.044731   -1.703069  -0.203710
H   -1.319066   -3.973534  -0.520980
H   -1.643254   -3.782923   1.211685
H    1.037775   -3.104206   0.931260
H   -1.027471   -5.901225   1.043755
H    2.313642   -6.209458   1.662267
H    2.723423   -4.746196   0.925803
O    1.949990    1.001049   0.364184
H    2.868580    0.757712   0.137046
