 26
Energy: -16507.63251615.7 eV PBE+vdW (tier 2 basis)
N    1.183189   -0.149452   0.564834
C    0.026232   -0.087194   1.463463
C    0.469541   -0.164752   2.923038
O   -0.142792   -0.695662   3.829118
H    0.881367    0.032198  -0.392396
H    1.873647    0.559999   0.807354
H   -0.508122    0.889707   1.418352
C   -0.994739   -1.180074   1.136415
C   -0.446142   -2.616237   1.223078
C   -1.484327   -3.626661   1.707680
N   -1.939157   -3.270086   3.041263
C   -2.885086   -4.018188   3.697761
N   -3.469039   -5.006523   3.104754
N   -3.075033   -3.604268   5.029571
H   -1.394673   -0.985025   0.129467
H   -1.840366   -1.065772   1.828132
H    0.421388   -2.646358   1.901418
H   -0.060187   -2.941722   0.248625
H   -1.057027   -4.643916   1.693936
H   -2.357551   -3.655126   1.037345
H   -1.301701   -2.716509   3.606251
H   -4.195758   -5.411634   3.699449
H   -2.980908   -2.602701   5.182195
H   -3.927877   -3.964390   5.443895
O    1.634371    0.504761   3.135038
H    1.818813    0.432048   4.091694
