 26
Energy: -16507.58138515.7 eV PBE+vdW (tier 2 basis)
N   -0.514124    0.577957  -0.184385
C   -0.135994    0.168835   1.166418
C    1.353403   -0.090094   1.409511
O    1.939548    0.143030   2.446067
H   -0.074853    1.464306  -0.431418
H   -0.191210   -0.110762  -0.865540
H   -0.395031    0.986514   1.855951
C   -0.923355   -1.091438   1.582656
C   -2.425594   -0.828271   1.712464
C   -3.256975   -2.104781   1.852947
N   -3.205600   -2.884551   0.628170
C   -3.721337   -4.158095   0.465253
N   -3.958176   -4.574193  -0.734149
N   -3.837894   -4.906231   1.640951
H   -0.524047   -1.463898   2.538085
H   -0.743998   -1.880770   0.835810
H   -2.772134   -0.260908   0.834780
H   -2.617001   -0.190497   2.588900
H   -4.293477   -1.829827   2.133275
H   -2.843850   -2.708000   2.678216
H   -3.268237   -2.358205  -0.238605
H   -4.274400   -5.546371  -0.738176
H   -4.416846   -5.731695   1.541718
H   -4.035660   -4.397531   2.496554
O    1.968015   -0.651816   0.327739
H    2.892621   -0.811108   0.599370
