 26
Energy: -16507.72063815.7 eV PBE+vdW (tier 2 basis)
N   -0.114045   -0.545061  -0.207449
C   -0.042207   -0.215875   1.224341
C    1.421917   -0.080726   1.652471
O    2.120165   -0.968653   2.109329
H    0.322847    0.182652  -0.773778
H    0.382448   -1.418296  -0.395329
H   -0.527960    0.761960   1.360384
C   -0.754911   -1.282372   2.050292
C   -0.849241   -0.952411   3.553813
C   -0.662127   -2.174562   4.452072
N    0.711434   -2.638992   4.390087
C    1.093661   -3.850347   4.936326
N    0.390980   -4.649818   5.666953
N    2.406854   -4.202303   4.606623
H   -0.220603   -2.234956   1.907530
H   -1.754939   -1.421497   1.619649
H   -1.822786   -0.494303   3.775013
H   -0.091231   -0.203770   3.836833
H   -1.367855   -2.970467   4.141199
H   -0.918113   -1.912888   5.491988
H    1.258771   -2.308621   3.596398
H   -0.578334   -4.334336   5.741570
H    2.725920   -4.981471   5.174213
H    3.068922   -3.431624   4.594821
O    1.911560    1.160199   1.384381
H    2.862536    1.136418   1.610046
