 26
Energy: -16507.56256315.7 eV PBE+vdW (tier 2 basis)
N   -0.186541   -0.207248  -0.314357
C   -0.270661   -0.132515   1.148390
C    0.933743    0.574862   1.773371
O    0.904807    1.638652   2.356916
H   -0.107633    0.726019  -0.719520
H    0.644182   -0.729334  -0.597668
H   -1.133365    0.501301   1.398791
C   -0.485167   -1.532555   1.735771
C   -0.651462   -1.540802   3.257645
C   -0.899414   -2.933116   3.841182
N   -2.162963   -3.477453   3.374548
C   -2.620598   -4.758563   3.635017
N   -3.889492   -4.982097   3.554761
N   -1.623004   -5.710573   3.863840
H    0.365811   -2.174372   1.455599
H   -1.372322   -1.956928   1.246679
H   -1.479573   -0.873180   3.550730
H    0.247432   -1.131029   3.743541
H   -0.850086   -2.871930   4.946740
H   -0.081248   -3.595053   3.512569
H   -2.942609   -2.826716   3.338147
H   -4.106298   -5.971734   3.692170
H   -1.965181   -6.569150   4.278493
H   -0.762473   -5.389236   4.294833
O    2.098159   -0.116169   1.572185
H    2.803972    0.432194   1.965509
