 26
Energy: -16507.66882715.7 eV PBE+vdW (tier 2 basis)
N   -0.243270    0.154436  -0.089439
C   -0.180144    0.210417   1.367552
C    1.215094    0.342260   1.985371
O    1.478307    0.983791   2.981815
H    0.259728   -0.662675  -0.438193
H    0.199247    0.974020  -0.504239
H   -0.718590    1.111557   1.698138
C   -0.869233   -1.019633   1.994198
C   -2.353753   -1.128454   1.644875
C   -3.007172   -2.336123   2.328302
N   -4.407336   -2.538460   1.983193
C   -4.747209   -3.189001   0.808758
N   -3.845265   -3.733979   0.066415
N   -6.129540   -3.136931   0.559196
H   -0.738064   -0.967393   3.086584
H   -0.341068   -1.928031   1.658648
H   -2.476827   -1.219474   0.558370
H   -2.871839   -0.204236   1.952820
H   -2.939288   -2.240292   3.423404
H   -2.479410   -3.254319   2.039555
H   -5.037454   -1.786417   2.244037
H   -4.268003   -4.272045  -0.693237
H   -6.426571   -3.743087  -0.198031
H   -6.713219   -3.257479   1.383727
O    2.159933   -0.372818   1.304985
H    2.992214   -0.247920   1.800662
