 26
Energy: -16507.62515715.7 eV PBE+vdW (tier 2 basis)
N   -0.476756    0.000883  -0.106410
C   -0.137830   -0.221797   1.299658
C    1.364648   -0.432966   1.493796
O    2.071773   -1.127507   0.796335
H   -0.103806   -0.765708  -0.671368
H   -0.028227    0.851284  -0.449876
H   -0.431348    0.673382   1.866785
C   -0.948785   -1.422652   1.831441
C   -0.907263   -1.652982   3.349306
C    0.273154   -2.512622   3.844595
N    0.348165   -2.680488   5.282351
C    0.689580   -1.688940   6.187306
N    0.342882   -1.845046   7.421695
N    1.476404   -0.654482   5.671686
H   -0.624451   -2.331294   1.296523
H   -1.981264   -1.228746   1.511021
H   -1.836830   -2.153477   3.658410
H   -0.905881   -0.684492   3.875060
H    1.235124   -2.118766   3.486511
H    0.197422   -3.516354   3.401380
H   -0.281904   -3.353640   5.705498
H    0.712085   -1.095811   8.011250
H    1.513722    0.158918   6.274548
H    1.351297   -0.400874   4.695249
O    1.860413    0.274345   2.560264
H    2.818173    0.074834   2.593468
