 26
Energy: -16507.65223415.7 eV PBE+vdW (tier 2 basis)
N    0.088916   -0.520413   0.035291
C    0.049631   -0.158652   1.450549
C    1.443644    0.276248   1.881248
O    2.398349    0.399434   1.141735
H    0.832367   -0.003382  -0.435349
H   -0.795378   -0.305054  -0.419895
H   -0.585053    0.729684   1.650680
C   -0.502947   -1.300126   2.335765
C    0.366113   -2.560608   2.450063
C    0.380173   -3.469550   1.207045
N    1.075066   -4.731041   1.405372
C    0.516089   -5.788757   2.107509
N   -0.689850   -5.913698   2.547547
N    1.435178   -6.822431   2.335493
H   -1.495223   -1.567611   1.937690
H   -0.676248   -0.891571   3.341043
H    0.003995   -3.149399   3.306148
H    1.403334   -2.282528   2.700646
H    0.840425   -2.948099   0.360457
H   -0.651354   -3.693413   0.893143
H    2.086118   -4.667452   1.468980
H   -1.225190   -5.050575   2.431342
H    0.960954   -7.636191   2.717196
H    2.004527   -7.063695   1.528041
O    1.504435    0.548886   3.212247
H    2.421754    0.836135   3.385169
