 26
Energy: -16507.75422015.7 eV PBE+vdW (tier 2 basis)
N   -0.947551   -0.443576  -0.028486
C   -0.354478   -0.051250   1.264285
C    1.020756    0.601517   0.990307
O    1.658546    1.207401   1.830932
H   -1.427344   -1.340359   0.034675
H   -1.616895    0.245925  -0.366468
H   -0.963585    0.700124   1.791268
C   -0.190128   -1.288268   2.172101
C    0.328231   -0.989167   3.595311
C    1.585984   -1.784264   3.977443
N    2.717751   -1.533694   3.087017
C    3.115017   -2.397108   2.071615
N    3.639057   -2.073047   0.939058
N    2.905524   -3.754935   2.351460
H    0.479413   -1.998032   1.662290
H   -1.175006   -1.776696   2.229758
H   -0.456059   -1.205065   4.335984
H    0.555675    0.081453   3.690070
H    1.370406   -2.859853   3.956153
H    1.866637   -1.530990   5.012466
H    2.840882   -0.554011   2.839473
H    3.601441   -1.062317   0.781368
H    3.350831   -4.320451   1.633827
H    3.184278   -4.043035   3.286332
O    1.464625    0.406066  -0.257107
H    0.715991   -0.100368  -0.691132
