 26
Energy: -16507.70125815.7 eV PBE+vdW (tier 2 basis)
N   -0.163825   -0.071620  -0.099331
C   -0.156303   -0.030031   1.364931
C    1.265684    0.021967   1.930149
O    2.154250   -0.763811   1.667593
H    0.386715   -0.871585  -0.419127
H    0.282222    0.762097  -0.484246
H   -0.680309    0.883387   1.681211
C   -0.891023   -1.259549   1.919691
C   -0.986906   -1.294582   3.446180
C   -1.747447   -2.507761   3.998476
N   -1.134292   -3.792538   3.691347
C   -1.599078   -4.582466   2.654728
N   -2.661465   -4.266135   1.996639
N   -0.765262   -5.689655   2.423759
H   -0.373753   -2.160576   1.554838
H   -1.893231   -1.275989   1.470879
H   -1.491888   -0.385599   3.812747
H    0.023229   -1.274505   3.891711
H   -2.761428   -2.547921   3.581410
H   -1.834908   -2.410889   5.091924
H   -0.138052   -3.866108   3.871180
H   -2.923584   -5.004546   1.340556
H   -1.170883   -6.377919   1.798817
H   -0.390592   -6.124062   3.263888
O    1.450551    1.079246   2.774049
H    2.379425    1.023547   3.075360
