 26
Energy: -16507.62671615.7 eV PBE+vdW (tier 2 basis)
N    0.438997   -0.210864  -0.206249
C    0.124158   -0.191411   1.231368
C    1.382807    0.283053   1.960170
O    2.019867   -0.329595   2.793666
H   -0.373503   -0.542041  -0.726807
H    0.651100    0.729179  -0.540575
H   -0.669858    0.540655   1.494592
C   -0.302627   -1.578423   1.707338
C   -0.900049   -1.599802   3.128408
C   -0.553345   -2.867111   3.906956
N    0.866616   -2.878926   4.228255
C    1.504456   -4.060050   4.528032
N    0.829490   -5.150230   4.687247
N    2.902667   -3.924184   4.587761
H    0.568011   -2.246083   1.640669
H   -1.041676   -1.970683   0.992770
H   -1.993559   -1.502216   3.076696
H   -0.547586   -0.730714   3.707233
H   -0.811822   -3.771500   3.330882
H   -1.145314   -2.915502   4.834463
H    1.426549   -2.151585   3.787718
H    1.442250   -5.924385   4.953494
H    3.360569   -4.678489   5.087660
H    3.231343   -3.014609   4.902860
O    1.735688    1.532249   1.555534
H    2.557819    1.755369   2.034163
