 26
Energy: -16507.52386215.7 eV PBE+vdW (tier 2 basis)
N    0.665256   -1.018580   0.030335
C    0.304961   -0.612518   1.388395
C    1.463165   -0.868081   2.343421
O    1.753229   -0.176196   3.295458
H    0.843646   -2.022745  -0.012549
H   -0.104778   -0.817117  -0.607952
H    0.160056    0.476267   1.390198
C   -0.969355   -1.295950   1.972603
C   -1.530685   -0.651502   3.252881
C   -2.673771    0.353465   3.005849
N   -2.425231    1.406129   2.035909
C   -1.607845    2.499354   2.287505
N   -1.016628    2.826792   3.382135
N   -1.437371    3.299362   1.147365
H   -0.738029   -2.358145   2.144037
H   -1.730196   -1.282558   1.173751
H   -0.713045   -0.169155   3.807752
H   -1.928708   -1.430322   3.920330
H   -2.959727    0.825794   3.958051
H   -3.562962   -0.191647   2.654993
H   -2.505877    1.146953   1.059011
H   -1.080499    2.093217   4.090596
H   -0.919368    4.140670   1.386443
H   -2.299621    3.518487   0.653911
O    2.117187   -2.031605   2.056410
H    2.810783   -2.120194   2.738168
