 26
Energy: -16507.92059715.7 eV PBE+vdW (tier 2 basis)
N   -0.054775    0.362036   0.748661
C    0.891385   -0.145395   1.740114
C    2.358588   -0.127571   1.262629
O    2.653564   -0.244440   0.088171
H    0.191443   -0.049313  -0.156556
H    0.079358    1.367269   0.630626
H    0.824041    0.504639   2.625240
C    0.497291   -1.591165   2.128111
C   -0.786383   -1.667356   2.972530
C   -0.545161   -1.751809   4.487444
N    0.342122   -0.699520   5.002922
C    1.680970   -0.893924   5.261853
N    2.551424   -0.024560   4.830844
N    1.975162   -2.047799   5.962799
H    1.331538   -2.082375   2.652217
H    0.365765   -2.145322   1.187324
H   -1.378079   -2.551951   2.692616
H   -1.420226   -0.800258   2.729094
H   -0.082971   -2.716026   4.736325
H   -1.507201   -1.707870   5.020340
H    0.186542    0.221112   4.602281
H    3.466388   -0.157403   5.268757
H    2.946720   -2.193589   6.205433
H    1.309116   -2.356093   6.662687
O    3.292688    0.003800   2.215745
H    2.892458    0.080720   3.147558
