 26
Energy: -16507.67265215.7 eV PBE+vdW (tier 2 basis)
N    0.152353    0.256314  -0.455217
C   -0.204431    0.057466   0.958826
C    0.896352    0.543886   1.899277
O    0.842295    1.535254   2.597602
H    1.016181   -0.242555  -0.675920
H    0.319621    1.244767  -0.645232
H   -1.059198    0.707479   1.176102
C   -0.568547   -1.413090   1.225092
C   -1.804903   -1.912741   0.459700
C   -3.165710   -1.650486   1.121992
N   -3.570758   -0.253191   1.215867
C   -3.315927    0.499678   2.346757
N   -2.797583   -0.029671   3.402263
N   -3.634871    1.854694   2.155750
H   -0.722939   -1.543732   2.305506
H    0.302487   -2.027634   0.949657
H   -1.722927   -3.004520   0.338985
H   -1.792471   -1.496280  -0.560497
H   -3.169781   -2.037954   2.148652
H   -3.942317   -2.190860   0.558273
H   -3.572265    0.268685   0.345576
H   -2.764306    0.640536   4.172942
H   -3.581285    2.408642   3.003647
H   -4.499751    2.023854   1.647847
O    2.016918   -0.241561   1.837699
H    2.664111    0.176805   2.437349
