 26
Energy: -16507.57702215.7 eV PBE+vdW (tier 2 basis)
N    0.514113   -0.131212  -0.053537
C   -0.151850    0.136582   1.216244
C    0.701792    0.744084   2.339045
O    0.277953    1.452038   3.226682
H    1.335096   -0.732370   0.052245
H    0.841113    0.738729  -0.472485
H   -0.920348    0.900722   1.028699
C   -0.906459   -1.094437   1.782234
C   -0.040299   -2.290510   2.208382
C    0.348536   -3.229535   1.048994
N    1.526539   -4.052064   1.324763
C    2.804424   -3.713043   0.899890
N    3.771794   -4.521283   0.625916
N    3.011796   -2.334085   0.754259
H   -1.629718   -1.404283   1.012485
H   -1.491176   -0.742701   2.643414
H   -0.574174   -2.873280   2.973308
H    0.873352   -1.937708   2.709994
H    0.513942   -2.654436   0.128832
H   -0.491293   -3.906205   0.836739
H    1.372699   -5.050579   1.383486
H    3.455050   -5.495128   0.619117
H    3.984117   -2.162732   0.511605
H    2.718851   -1.757324   1.541453
O    2.026599    0.392981   2.265218
H    2.450430    0.821950   3.034506
