 26
Energy: -16507.71236715.7 eV PBE+vdW (tier 2 basis)
N   -0.428603    0.087903   0.235869
C   -0.019472   -0.277729   1.589801
C    1.502112   -0.334618   1.740550
O    2.272139   -0.767156   0.908710
H   -0.217068    1.069076   0.053826
H    0.106216   -0.458485  -0.443167
H   -0.409281    0.482656   2.276208
C   -0.626821   -1.659990   1.929674
C   -0.246793   -2.308522   3.268152
C   -0.901416   -1.738491   4.536434
N   -0.614040   -0.345515   4.832106
C   -1.497696    0.690786   4.557271
N   -2.711986    0.641371   4.127704
N   -0.913192    1.944513   4.775439
H   -0.326147   -2.341843   1.118440
H   -1.716891   -1.542938   1.847916
H    0.848345   -2.309039   3.394614
H   -0.528464   -3.372250   3.221374
H   -0.585199   -2.352842   5.395036
H   -1.993425   -1.849433   4.476848
H    0.365450   -0.083689   4.758737
H   -2.991205   -0.306782   3.869035
H   -0.345896    2.010944   5.616254
H   -1.613821    2.678406   4.724881
O    1.938761    0.155611   2.943496
H    2.912277    0.060722   2.929350
