 26
Energy: -16507.95294915.7 eV PBE+vdW (tier 2 basis)
N    0.892505    0.557227  -0.214410
C    0.704449   -0.138319   1.061075
C    1.946709   -0.275713   1.943769
O    1.875748   -0.252925   3.172875
H    1.704451    0.157198  -0.690352
H    1.127593    1.535356  -0.040322
H   -0.050578    0.406237   1.645669
C    0.174498   -1.567871   0.773264
C   -0.229589   -2.424351   1.995432
C    0.711675   -3.584261   2.362534
N    2.014227   -3.133117   2.852373
C    3.224658   -3.495380   2.340487
N    4.186744   -2.609290   2.297957
N    3.314473   -4.790658   1.860242
H    0.937751   -2.095395   0.177927
H   -0.689910   -1.430203   0.109939
H   -1.212883   -2.878528   1.804235
H   -0.365558   -1.783667   2.880450
H    0.876439   -4.222717   1.482466
H    0.215083   -4.206897   3.126150
H    2.028720   -2.209195   3.292381
H    5.095224   -3.007750   2.062198
H    4.228405   -5.083010   1.537791
H    2.800352   -5.507257   2.361615
O    3.046572   -0.557527   1.254435
H    3.662177   -1.231780   1.801710
