 26
Energy: -16507.76671115.7 eV PBE+vdW (tier 2 basis)
N    0.206997   -1.392725  -0.287389
C    0.101540   -0.444318   0.816222
C    1.392165    0.341668   1.080714
O    2.486974    0.020859   0.666575
H    1.072494   -1.928766  -0.187606
H    0.315224   -0.884240  -1.165960
H   -0.688967    0.281464   0.572722
C   -0.327697   -1.163380   2.120311
C    0.743381   -2.077649   2.765167
C    1.069976   -1.709810   4.224077
N    1.662962   -0.388637   4.398646
C    2.992614   -0.139939   4.087928
N    3.965606   -0.960573   3.931150
N    3.245426    1.248858   3.912259
H   -1.220423   -1.748695   1.865510
H   -0.652389   -0.395069   2.837700
H    1.678855   -2.050431   2.185605
H    0.406093   -3.123487   2.743869
H    1.751883   -2.453158   4.661363
H    0.154975   -1.740743   4.834428
H    1.042159    0.374048   4.140803
H    3.657082   -1.935067   3.956406
H    4.249848    1.381604   3.802871
H    2.898842    1.815778   4.686605
O    1.186079    1.404481   1.901799
H    2.068301    1.641925   2.296225
