 26
Energy: -16507.68101315.7 eV PBE+vdW (tier 2 basis)
N   -0.795747    0.217798  -0.131374
C   -0.206146    0.114485   1.206578
C    1.119233    0.912891   1.175954
O    1.202334    1.915526   0.489588
H   -1.812685    0.170227  -0.076675
H   -0.546383    1.134384  -0.511318
H   -0.803609    0.656078   1.974702
C   -0.116404   -1.357053   1.641388
C   -0.112062   -1.545472   3.160503
C    0.270266   -2.953921   3.629751
N    1.427263   -3.553949   2.957306
C    2.684423   -3.008825   2.947549
N    2.869750   -1.743760   3.176314
N    3.707729   -3.922319   2.700657
H    0.768690   -1.820797   1.182798
H   -0.978587   -1.883794   1.205130
H   -1.117092   -1.335004   3.560763
H    0.559382   -0.824277   3.640732
H   -0.562732   -3.644461   3.436292
H    0.432986   -2.932845   4.721234
H    1.385710   -4.560874   2.870385
H    3.862748   -1.504775   3.152238
H    4.543786   -3.516923   2.294247
H    3.449380   -4.794682   2.250109
O    2.147981    0.543732   1.946825
H    2.119536   -0.363429   2.391706
