 26
Energy: -16507.91906815.7 eV PBE+vdW (tier 2 basis)
N   -0.405755    1.074692   0.848717
C    0.397281    0.028040   1.494230
C    1.648864   -0.316997   0.652526
O    1.610068   -0.302852  -0.564921
H   -0.502297    0.821438  -0.139911
H    0.129986    1.945206   0.839620
H    0.715792    0.409172   2.476711
C   -0.493481   -1.220736   1.727856
C   -0.168871   -2.030546   2.989606
C    1.059113   -2.961446   2.890494
N    1.784396   -3.118547   4.149143
C    2.553014   -2.099869   4.651059
N    2.793914   -1.025966   3.958968
N    2.993602   -2.323056   5.954218
H   -0.483709   -1.861638   0.831156
H   -1.516766   -0.830263   1.817743
H   -1.048101   -2.631193   3.267753
H   -0.004294   -1.326100   3.818437
H    1.777018   -2.603197   2.145761
H    0.757519   -3.965414   2.563692
H    1.341298   -3.704158   4.848885
H    3.463580   -0.415122   4.427787
H    3.206832   -3.288730   6.186779
H    3.714553   -1.685391   6.272531
O    2.777988   -0.627082   1.304372
H    2.666617   -0.701012   2.317669
