 26
Energy: -16507.60615315.7 eV PBE+vdW (tier 2 basis)
N    0.658642    0.170064  -0.404302
C   -0.105264    0.412802   0.823099
C    0.827778    0.907790   1.916047
O    0.612294    1.867659   2.635171
H    0.015623    0.033731  -1.184367
H    1.215874   -0.681620  -0.319950
H   -0.778155    1.254531   0.619562
C   -0.951710   -0.795077   1.308444
C   -1.592342   -0.733512   2.705429
C   -2.382861    0.541881   3.050371
N   -3.232033    1.017137   1.966375
C   -3.405499    2.360887   1.644104
N   -4.575119    2.734581   1.239041
N   -2.262156    3.147334   1.688021
H   -0.314082   -1.692057   1.263260
H   -1.740415   -0.926971   0.553323
H   -0.822167   -0.863437   3.482970
H   -2.253719   -1.609278   2.796965
H   -1.681594    1.338189   3.319126
H   -2.977735    0.351278   3.961366
H   -4.125151    0.542076   1.867645
H   -4.554576    3.693385   0.882372
H   -1.418145    2.819596   2.151989
H   -2.418832    4.143456   1.761684
O    1.933935    0.135040   2.051955
H    2.460246    0.531710   2.773324
