 26
Energy: -16507.58573515.7 eV PBE+vdW (tier 2 basis)
N   -0.257951    0.187857  -0.021021
C   -0.147785    0.217712   1.435836
C    1.272369    0.255537   2.007504
O    1.608967    0.869380   2.997969
H    0.281474   -0.591077  -0.401539
H    0.127353    1.038856  -0.429658
H   -0.621408    1.143459   1.794443
C   -0.893037   -0.980633   2.061536
C   -2.398478   -0.940123   1.798277
C   -3.114839   -2.182493   2.319921
N   -4.549250   -2.086372   2.046993
C   -5.441972   -3.125394   2.302345
N   -6.531943   -3.379330   1.660671
N   -5.076972   -3.946845   3.367019
H   -0.697404   -0.989721   3.144628
H   -0.461355   -1.910723   1.655537
H   -2.566240   -0.840223   0.714704
H   -2.834186   -0.045791   2.271732
H   -2.952628   -2.262678   3.406552
H   -2.675613   -3.090776   1.866828
H   -4.764549   -1.603417   1.179940
H   -6.620608   -2.791549   0.827396
H   -5.842488   -4.561863   3.625747
H   -4.657604   -3.480769   4.165710
O    2.141639   -0.515387   1.289091
H    2.999989   -0.450508   1.750719
