 26
Energy: -16507.74690515.7 eV PBE+vdW (tier 2 basis)
N   -0.864023   -0.280076   1.332268
C    0.008598   -0.572304   2.465529
C    1.365720    0.107599   2.335613
O    1.793649    0.662877   1.342472
H   -0.414543    0.398111   0.715416
H   -1.023986   -1.128017   0.785122
H   -0.430612   -0.141176   3.385104
C    0.161413   -2.091329   2.729552
C    1.180451   -2.864772   1.878231
C    1.020728   -2.779183   0.354763
N   -0.324610   -3.139592  -0.057006
C   -0.656285   -2.964243  -1.288559
N   -1.977944   -3.169036  -1.686475
N    0.179685   -2.565193  -2.324637
H   -0.838215   -2.528863   2.592938
H    0.424222   -2.234060   3.786846
H    1.111006   -3.923338   2.172767
H    2.202829   -2.542339   2.133326
H    1.766578   -3.463056  -0.095716
H    1.295537   -1.757978   0.019590
H    2.915920    0.511441   3.322001
H   -2.087366   -3.643064  -2.579116
H   -0.262583   -2.030218  -3.065171
H    1.068192   -2.172952  -2.032301
O    2.074058    0.049233   3.498871
H   -2.514416   -3.614474  -0.947428
