 26
Energy: -16507.66573315.7 eV PBE+vdW (tier 2 basis)
N    0.731622    0.089785  -0.265283
C    0.247679    0.113302   1.116679
C    1.366802   -0.408177   2.003229
O    2.113293   -1.319189   1.711918
H    1.237165   -0.785342  -0.421288
H   -0.058874    0.100237  -0.910494
H    0.058463    1.158716   1.406244
C   -1.038364   -0.727057   1.352205
C   -1.665103   -0.695975   2.750343
C   -2.086072    0.693984   3.261257
N   -2.948257    1.460798   2.370893
C   -4.267835    1.107982   2.168053
N   -4.799134    0.130249   2.819934
N   -4.883746    1.903177   1.183877
H   -0.811014   -1.768062   1.075828
H   -1.779294   -0.371587   0.616893
H   -0.974833   -1.127338   3.491859
H   -2.556228   -1.337852   2.740985
H   -1.204661    1.315512   3.470639
H   -2.627656    0.566084   4.207382
H   -2.499768    1.925427   1.589845
H   -5.805600    0.075993   2.648259
H   -5.887392    1.765512   1.127869
H   -4.648743    2.892081   1.231288
O    1.425729    0.240101   3.198562
H    2.136653   -0.197872   3.706991
