 26
Energy: -16507.76255515.7 eV PBE+vdW (tier 2 basis)
N    0.280285    1.629471   1.362478
C    0.081445    0.896041   2.615359
C    1.273089    1.065341   3.560055
O    2.402566    1.333930   3.206477
H    1.260003    1.522239   1.082803
H    0.145722    2.629187   1.519515
H   -0.808566    1.299324   3.120233
C   -0.148739   -0.617075   2.382270
C   -1.512334   -0.992976   1.760627
C   -1.531141   -1.249206   0.252700
N   -1.287059   -0.044685  -0.506509
C   -1.224143   -0.053631  -1.882452
N   -1.580662   -0.996669  -2.692064
N   -0.776965    1.160133  -2.422480
H   -0.057935   -1.112655   3.358628
H    0.676417   -1.005163   1.763197
H   -2.260541   -0.222241   2.006015
H   -1.861425   -1.917452   2.241639
H   -2.521552   -1.658908  -0.010184
H   -0.793704   -2.040835   0.007677
H   -0.809425    0.711147  -0.000918
H   -1.977063   -1.792094  -2.187326
H   -0.020439    1.608960  -1.914292
H   -0.573675    1.058053  -3.412165
O    0.931274    0.852678   4.858563
H    1.754428    0.938618   5.378784
