 26
Energy: -16507.66545415.7 eV PBE+vdW (tier 2 basis)
N   -1.354867   -0.381831   0.800709
C   -0.322969    0.479826   1.370243
C    0.694376    0.965988   0.333277
O    0.913488    0.435749  -0.737356
H   -2.006591    0.178258   0.250752
H   -0.925791   -1.027595   0.134229
H   -0.809515    1.373020   1.788065
C    0.417079   -0.215083   2.538414
C    1.146391   -1.502108   2.146452
C    1.840159   -2.201013   3.325597
N    2.935918   -1.445733   3.930808
C    2.770441   -0.482372   4.916072
N    3.498609    0.582736   4.872962
N    1.786926   -0.787296   5.863476
H   -0.340437   -0.440468   3.302855
H    1.123177    0.501613   2.980644
H    1.897237   -1.297142   1.364883
H    0.433891   -2.219560   1.708401
H    2.243001   -3.166875   2.985544
H    1.100403   -2.428840   4.104494
H    3.645176   -1.130688   3.272691
H    3.400518    1.138326   5.726656
H    1.797735   -0.173399   6.670170
H    1.723748   -1.766658   6.128611
O    1.365186    2.069571   0.761059
H    2.021712    2.279575   0.068291
