 26
Energy: -16507.65835315.7 eV PBE+vdW (tier 2 basis)
N    1.553631    1.191635   1.199180
C    0.578296    0.207801   1.657305
C    0.952261   -0.442122   2.994034
O    2.054441   -0.428669   3.502696
H    1.559256    1.992402   1.831854
H    2.492924    0.793929   1.262912
H   -0.380158    0.725376   1.814811
C    0.331787   -0.883179   0.590663
C    1.552401   -1.743114   0.258532
C    1.246456   -2.823659  -0.791164
N    0.328241   -3.819560  -0.283282
C   -0.875037   -3.905001  -0.725487
N   -1.775094   -4.755816  -0.074322
N   -1.457038   -3.151647  -1.738595
H   -0.013766   -0.363399  -0.315463
H   -0.489211   -1.529451   0.930767
H    1.925608   -2.245709   1.164498
H    2.371097   -1.114300  -0.125421
H    2.189639   -3.332965  -1.046262
H    0.916044   -2.316021  -1.722644
H    0.225401   -1.483812   4.385052
H   -2.370714   -5.311536  -0.683135
H   -2.361462   -3.442069  -2.087274
H   -0.835497   -2.773300  -2.441566
O   -0.113220   -1.069993   3.567274
H   -1.284287   -5.330822   0.605039
