 26
Energy: -16507.62254515.7 eV PBE+vdW (tier 2 basis)
N   -0.065703    0.452023   0.308484
C    0.001954   -0.015087   1.697037
C    1.448255   -0.170885   2.157321
O    1.840709   -0.954037   2.995017
H    0.555486    1.247844   0.167734
H   -1.010891    0.769073   0.095011
H   -0.417775    0.721091   2.421647
C   -0.763684   -1.327698   1.884411
C   -2.267896   -1.193543   1.648354
C   -3.042802   -2.461707   2.039446
N   -2.962996   -2.771535   3.456849
C   -3.787269   -2.171891   4.399016
N   -4.693225   -1.274702   4.211262
N   -3.561597   -2.664935   5.688896
H   -0.586336   -1.683157   2.908059
H   -0.338674   -2.077455   1.198543
H   -2.481238   -0.984942   0.587999
H   -2.662411   -0.342532   2.227560
H   -2.632636   -3.323824   1.494696
H   -4.096442   -2.368489   1.721659
H   -2.622623   -3.692531   3.704513
H   -4.854671   -1.101566   3.216503
H   -4.089336   -2.131111   6.373469
H   -2.581468   -2.751857   5.944669
O    2.277025    0.733206   1.559195
H    3.160742    0.579250   1.945561
