 26
Energy: -16507.92046315.7 eV PBE+vdW (tier 2 basis)
N    0.134684    0.417126  -0.256798
C    0.065157    0.133344   1.175275
C    1.475489    0.153832   1.749084
O    2.387123   -0.485032   1.226728
H    0.887281   -0.143425  -0.663758
H   -0.733589    0.146245  -0.719813
H   -0.524237    0.917334   1.672452
C   -0.559341   -1.258144   1.507733
C   -0.621397   -1.698001   2.990106
C    0.419643   -2.751392   3.427557
N    1.797068   -2.274461   3.576803
C    2.264182   -1.648977   4.707368
N    2.987969   -0.571213   4.584497
N    1.888931   -2.226558   5.908565
H   -0.009159   -2.008954   0.917063
H   -1.580542   -1.234719   1.097954
H   -1.606942   -2.150335   3.178919
H   -0.557104   -0.825721   3.658630
H    0.430784   -3.577861   2.700795
H    0.100671   -3.180612   4.385648
H    2.213187   -1.877670   2.730769
H    3.437119   -0.283848   5.454767
H    1.827899   -3.239113   5.930274
H    2.294489   -1.818248   6.741418
O    1.563580    0.796939   2.904364
H    2.341458    0.394269   3.484267
