 26
Energy: -16507.82622315.7 eV PBE+vdW (tier 2 basis)
N    0.230473    0.026000  -0.227157
C   -0.233872    0.121698   1.170221
C    1.001809    0.229124   2.087151
O    0.952257    0.594831   3.245889
H    0.245321    0.936008  -0.685769
H    1.857593   -0.314440   0.544934
H   -0.833638    1.026917   1.348083
C   -1.071730   -1.129518   1.519922
C   -1.546254   -1.245778   2.971062
C   -2.528994   -0.143731   3.405117
N   -2.779647   -0.139881   4.831821
C   -2.286312    0.800967   5.722242
N   -2.898460    0.939156   6.853636
N   -1.195275    1.529756   5.261679
H   -0.474550   -2.018310   1.260023
H   -1.943608   -1.128214   0.842889
H   -0.685549   -1.236440   3.652710
H   -2.028251   -2.225980   3.103725
H   -3.484180   -0.268642   2.869376
H   -2.144940    0.846140   3.119134
H   -3.634617   -0.561590   5.173936
H   -2.396289    1.583249   7.468600
H   -0.745003    2.089877   5.974823
H   -0.528989    1.090908   4.624342
O    2.142203   -0.143301   1.490586
H   -0.366498   -0.588806  -0.778976
