 26
Energy: -16507.66294915.7 eV PBE+vdW (tier 2 basis)
N   -0.001443    0.743415   0.267136
C   -0.689119    0.469431   1.529082
C    0.326568    0.658792   2.646649
O    1.489038    0.316398   2.586213
H   -0.532157    0.356694  -0.513477
H    0.910050    0.280485   0.278616
H   -1.488736    1.213076   1.671131
C   -1.314481   -0.947810   1.629128
C   -2.148096   -1.220335   2.882606
C   -2.862321   -2.576197   2.806438
N   -3.647560   -2.915233   3.984830
C   -3.023139   -3.404069   5.120438
N   -1.760950   -3.665517   5.121077
N   -3.914632   -3.528603   6.199478
H   -0.504743   -1.689899   1.542247
H   -1.947702   -1.067601   0.733114
H   -2.893100   -0.417922   3.016841
H   -1.512090   -1.219185   3.778220
H   -2.120341   -3.375537   2.681252
H   -3.535574   -2.604496   1.935369
H   -4.447815   -2.318223   4.168310
H   -1.479642   -4.133103   5.985675
H   -3.525309   -4.030901   6.990145
H   -4.835635   -3.881197   5.949716
O   -0.219450    1.231091   3.752140
H    0.492161    1.252924   4.422230
