 26
Energy: -16507.82858715.7 eV PBE+vdW (tier 2 basis)
N    0.225057   -0.255091  -0.238874
C   -0.315937    0.073321   1.094002
C    0.857354    0.481505   2.007970
O    0.716465    1.074421   3.060117
H    0.190413    0.544041  -0.870533
H    1.835539   -0.285611   0.643432
H   -1.001869    0.933306   1.064395
C   -1.058424   -1.158056   1.660790
C   -1.563179   -1.057373   3.103864
C   -2.575879    0.079096   3.343632
N   -3.035204    0.209217   4.708141
C   -2.284220    0.723920   5.757896
N   -2.673346    0.444910   6.959750
N   -1.247256    1.574902   5.391622
H   -0.385003   -2.026020   1.573281
H   -1.910169   -1.351904   0.986283
H   -0.715934   -0.938796   3.793432
H   -2.039076   -2.014287   3.367224
H   -3.460854   -0.076951   2.706253
H   -2.151124    1.043955   3.030531
H   -3.703143   -0.475687   5.045613
H   -2.092229    0.918607   7.654855
H   -0.620352    1.799103   6.154830
H   -0.741048    1.403822   4.522695
O    2.054226    0.100767   1.541712
H   -0.291692   -1.017315  -0.675760
