 26
Energy: -16507.76684915.7 eV PBE+vdW (tier 2 basis)
N    0.582198   -0.303837  -0.032820
C   -0.135291    0.134987   1.171545
C    0.808973    0.905343   2.096034
O    1.459563    0.446247   3.011711
H    0.920039    0.496566  -0.565878
H    1.388259   -0.909015   0.195998
H   -0.923349    0.832664   0.847379
C   -0.777795   -1.039795   1.919896
C   -1.759161   -1.865194   1.062352
C   -1.267925   -3.279039   0.714474
N    0.001269   -3.270782  -0.020850
C    1.211992   -3.561410   0.583222
N    2.239941   -2.811295   0.334468
N    1.181259   -4.655698   1.447121
H   -1.296204   -0.630341   2.798151
H    0.023790   -1.675576   2.323176
H   -1.975723   -1.328873   0.125030
H   -2.722950   -1.969128   1.582824
H   -2.036760   -3.792561   0.115147
H   -1.132760   -3.862516   1.635023
H    0.105737   -2.432357  -0.597463
H    3.102423   -3.210398   0.711422
H    2.089137   -4.952616   1.784996
H    0.590460   -5.430409   1.159763
O    0.902145    2.219542   1.720865
H    1.577469    2.614939   2.306081
