 26
Energy: -16507.61342215.7 eV PBE+vdW (tier 2 basis)
N   -0.113079    0.103470  -0.336345
C   -0.061315    0.236174   1.114975
C    1.358311    0.377352   1.646121
O    1.624202    0.804275   2.755468
H   -1.074920    0.177845  -0.664621
H    0.249106   -0.800072  -0.642764
H   -0.536815    1.195670   1.368632
C   -0.742128   -0.890976   1.942065
C   -2.274394   -0.896983   1.888398
C   -2.936576    0.436623   2.285785
N   -2.337585    1.044682   3.459051
C   -1.792661    2.322425   3.443964
N   -2.192475    3.327747   2.738137
N   -0.726142    2.464038   4.334201
H   -0.413146   -0.796193   2.986753
H   -0.360652   -1.861178   1.585701
H   -2.633474   -1.699735   2.551409
H   -2.631036   -1.165516   0.881395
H   -4.018990    0.272681   2.420238
H   -2.838896    1.165390   1.466887
H   -1.980438    0.426736   4.178823
H   -3.086055    3.127135   2.280346
H   -0.384607    3.421625   4.316699
H    0.035430    1.803471   4.167702
O    2.307575   -0.076689   0.793510
H    3.160652    0.037897   1.256610
