 26
Energy: -16507.65444315.7 eV PBE+vdW (tier 2 basis)
N    0.798392   -0.699586   0.653851
C    0.477106    0.007151   1.890183
C    1.727557    0.067840   2.756267
O    2.843350   -0.251944   2.395849
H    1.794198   -0.605460   0.451511
H    0.269685   -0.324175  -0.130338
H    0.239281    1.079644   1.725217
C   -0.763706   -0.598205   2.595363
C   -0.746036   -2.114217   2.815078
C    0.299611   -2.611388   3.822401
N    0.199122   -4.035903   4.116040
C   -0.752982   -4.503607   5.002978
N   -1.489616   -3.689449   5.680186
N   -0.807990   -5.908973   5.026650
H   -1.631383   -0.353434   1.963409
H   -0.921240   -0.071087   3.547205
H   -0.583908   -2.613329   1.848137
H   -1.736371   -2.415063   3.184889
H    0.185390   -2.080989   4.776369
H    1.319005   -2.432374   3.451626
H    0.395827   -4.657689   3.338250
H   -2.050614   -4.190458   6.372867
H   -1.368171   -6.276886   5.788252
H    0.098968   -6.367468   4.977698
O    1.476084    0.584738   3.988039
H    2.337594    0.611980   4.446948
