 26
Energy: -16507.70620215.7 eV PBE+vdW (tier 2 basis)
N    0.061023   -0.941304   0.132501
C    0.209078   -0.271338   1.415598
C    1.619127   -0.060058   1.963403
O    1.880169    0.676436   2.900225
H    0.509353   -1.857993   0.143472
H    0.496288   -0.405410  -0.617123
H   -0.198361    0.746797   1.313395
C   -0.639082   -0.991948   2.495573
C   -2.124783   -0.618099   2.464246
C   -2.450504    0.726008   3.128512
N   -1.966395    1.897844   2.386005
C   -1.339157    2.975745   3.012691
N   -1.705273    4.169813   2.682126
N   -0.373494    2.609665   3.949871
H   -0.231381   -0.770407   3.493036
H   -0.517273   -2.075857   2.341801
H   -2.695141   -1.393466   2.999064
H   -2.488683   -0.631417   1.425037
H   -2.005140    0.760497   4.131929
H   -3.542528    0.804561   3.265901
H   -2.635662    2.265217   1.714120
H   -1.068339    4.871059   3.070678
H    0.119939    3.402892   4.344324
H    0.272463    1.867326   3.669780
O    2.578338   -0.774443   1.320632
H    3.419211   -0.558700   1.770121
