 26
Energy: -16507.62615815.7 eV PBE+vdW (tier 2 basis)
N    0.359776   -0.603582  -0.075892
C   -0.218541   -0.204045   1.208474
C    0.777362    0.574590   2.072559
O    1.907028    0.212752   2.333248
H    1.234395   -1.107566   0.087690
H    0.599202    0.218906  -0.631043
H   -1.078734    0.449861   1.006840
C   -0.699610   -1.451209   1.967547
C   -1.374422   -1.159101   3.308796
C   -1.904361   -2.429460   3.970094
N   -2.502527   -2.131494   5.262243
C   -3.373910   -3.028688   5.853183
N   -3.754127   -4.085983   5.220053
N   -3.841041   -2.612283   7.107862
H    0.166158   -2.116009   2.120921
H   -1.390946   -1.980815   1.296077
H   -2.206388   -0.450709   3.172244
H   -0.655966   -0.666406   3.987144
H   -1.095851   -3.178664   4.061544
H   -2.686313   -2.898576   3.359522
H   -1.924204   -1.588428   5.894640
H   -4.492155   -4.572929   5.734104
H   -4.086243   -3.368154   7.736514
H   -3.328909   -1.868451   7.571915
O    0.261261    1.753500   2.525083
H    0.966148    2.169196   3.060899
