 26
Energy: -16507.66674215.7 eV PBE+vdW (tier 2 basis)
N    0.082133    0.561414  -0.248062
C   -0.108944    0.334161   1.180800
C    1.163506    0.503918   2.012325
O    2.298342    0.311254   1.615412
H    0.884873    0.034745  -0.594986
H    0.297933    1.544064  -0.419309
H   -0.829128    1.084658   1.535927
C   -0.731545   -1.059321   1.480784
C    0.221525   -2.259810   1.568640
C    0.962672   -2.637787   0.272193
N    1.858021   -3.770947   0.398328
C    3.069043   -3.745295   1.078314
N    3.526644   -4.865721   1.533685
N    3.719721   -2.514910   1.103199
H   -1.486399   -1.221430   0.697037
H   -1.271271   -0.985928   2.435425
H   -0.365100   -3.134457   1.890318
H    0.962219   -2.098445   2.368378
H    1.546594   -1.789129  -0.111626
H    0.233140   -2.870593  -0.517725
H    1.427128   -4.686205   0.485680
H    4.463226   -4.751265   1.928131
H    4.479882   -2.464878   1.769741
H    3.175258   -1.656374   1.072001
O    0.890792    0.869134   3.291236
H    1.748445    0.906683   3.759507
