 26
Energy: -16507.63658215.7 eV PBE+vdW (tier 2 basis)
N    1.118655    0.660086   0.613204
C    0.498779    0.369956   1.906180
C    1.558273   -0.296429   2.770165
O    2.295973   -1.186372   2.408312
H    1.437425   -0.206085   0.174953
H    0.437741    1.094039  -0.009598
H    0.227956    1.329061   2.364845
C   -0.747827   -0.558339   1.820939
C   -1.409589   -1.026828   3.127216
C   -2.252324    0.011426   3.881475
N   -1.489769    1.126443   4.440858
C   -1.485589    2.416499   3.930386
N   -0.509959    3.261216   3.986502
N   -2.667521    2.796704   3.286850
H   -0.435589   -1.447683   1.251277
H   -1.492119   -0.031859   1.202315
H   -0.654876   -1.452979   3.809131
H   -2.081285   -1.865472   2.884498
H   -2.797324   -0.501456   4.691266
H   -3.006554    0.427761   3.201365
H   -0.592940    0.865018   4.840072
H    0.341558    2.822221   4.348150
H   -3.523638    2.542290   3.772733
H   -2.634716    3.788424   3.067303
O    1.577268    0.189761   4.050382
H    2.272515   -0.317204   4.515490
