 26
Energy: -16507.65073815.7 eV PBE+vdW (tier 2 basis)
N    2.144870    0.252466   1.091186
C    0.819541   -0.204179   1.495689
C   -0.310655    0.659219   0.931349
O   -0.204602    1.824398   0.609791
H    2.306940    0.039631   0.106905
H    2.182012    1.272005   1.167100
H    0.672689   -1.230385   1.126411
C    0.701047   -0.221180   3.037338
C    1.637472   -1.239783   3.685933
C    1.691487   -1.096678   5.212652
N    2.587565   -2.045361   5.863037
C    3.885252   -1.771503   6.267444
N    4.569579   -2.418473   7.151165
N    4.460144   -0.661551   5.646567
H   -0.342758   -0.426695   3.319296
H    0.932246    0.793095   3.404619
H    2.644036   -1.114345   3.260388
H    1.318948   -2.262863   3.429769
H    0.683995   -1.238289   5.633455
H    2.000518   -0.074555   5.480470
H    2.158811   -2.824858   6.343861
H    3.992413   -3.108837   7.639399
H    5.442539   -0.590545   5.894062
H    4.304589   -0.580485   4.645535
O   -1.486306   -0.025621   0.853179
H   -2.152373    0.611374   0.527402
