 26
Energy: -16507.72299715.7 eV PBE+vdW (tier 2 basis)
N   -0.689945    0.146713   0.529451
C   -0.303763    0.172797   1.946235
C    1.192538    0.404543   2.218360
O    1.755176    0.191879   3.270588
H   -0.288421   -0.676163   0.076199
H   -0.303151    0.955719   0.042308
H   -0.789354    1.058072   2.398660
C   -0.795305   -1.080384   2.698214
C   -2.230079   -1.045823   3.244545
C   -3.377958   -1.049883   2.221575
N   -3.520357    0.167749   1.421447
C   -3.825217    1.393951   2.001218
N   -3.390222    2.550189   1.616809
N   -4.682066    1.334257   3.101125
H   -0.115425   -1.232884   3.546071
H   -0.663101   -1.953758   2.035429
H   -2.350999   -0.174809   3.907740
H   -2.357831   -1.932787   3.886159
H   -4.320190   -1.257598   2.748231
H   -3.243119   -1.879439   1.510126
H   -2.739938    0.255350   0.761327
H   -2.695870    2.442640   0.871938
H   -5.017198    2.261510   3.344924
H   -5.432230    0.653062   3.032229
O    1.838304    0.942675   1.142160
H    2.754408    1.105513   1.439828
