 26
Energy: -16507.68591915.7 eV PBE+vdW (tier 2 basis)
N    0.113035   -0.206091  -0.084424
C   -0.256889   -0.230670   1.343113
C    1.034387   -0.189523   2.201063
O    1.042714   -0.355570   3.401366
H   -0.520401    0.372909  -0.631574
H    1.793535    0.149536   0.547772
H   -0.747667    0.729512   1.568172
C   -1.219263   -1.349514   1.786548
C   -0.853079   -2.773460   1.347212
C    0.476764   -3.302189   1.889481
N    0.693456   -4.671277   1.449632
C    1.919624   -5.329072   1.486508
N    2.115729   -6.579451   1.231397
N    3.017624   -4.508787   1.730705
H   -2.220712   -1.113667   1.397530
H   -1.284768   -1.301764   2.882835
H   -0.845317   -2.861609   0.247487
H   -1.665331   -3.439604   1.681064
H    0.491693   -3.195227   2.990928
H    1.309501   -2.699685   1.499912
H   -0.101407   -5.293803   1.542944
H    1.250918   -7.038967   0.933419
H    3.863949   -5.062101   1.821632
H    2.921906   -3.808721   2.459919
O    2.138537    0.086694   1.485027
H    0.099028   -1.142075  -0.490964
