 26
Energy: -16507.71717115.7 eV PBE+vdW (tier 2 basis)
N    0.905148    0.173879   2.996748
C    1.353811   -0.920151   2.134021
C    2.576009   -0.646528   1.255223
O    3.349212   -1.495801   0.866942
H    0.559867    0.955894   2.437863
H    1.683315    0.538836   3.546418
H    1.646824   -1.759554   2.781216
C    0.215338   -1.404014   1.205011
C   -1.130502   -1.697339   1.885235
C   -1.134203   -2.770373   2.975926
N   -0.486995   -2.303470   4.188334
C   -0.611490   -2.978032   5.386178
N   -1.183350   -4.114268   5.604712
N   -0.042871   -2.282675   6.462717
H    0.575634   -2.302953   0.684313
H    0.049358   -0.640302   0.427119
H   -1.825822   -2.022002   1.097257
H   -1.556231   -0.770852   2.299864
H   -0.633607   -3.684286   2.607575
H   -2.184562   -3.048688   3.182953
H   -0.292745   -1.302285   4.224025
H   -1.656045   -4.464344   4.768638
H   -0.001942   -2.877907   7.285147
H    0.855260   -1.851597   6.261052
O    2.697786    0.671386   0.916190
H    3.478805    0.722427   0.331323
