 26
Energy: -16507.67192315.7 eV PBE+vdW (tier 2 basis)
N   -0.049702    0.687540   0.165462
C   -0.301479    0.688912   1.607545
C    0.929593    0.892374   2.492821
O    0.983191    1.619733   3.462118
H    0.653100   -0.015951  -0.067142
H    0.324674    1.587238  -0.135545
H   -0.957903    1.541156   1.836475
C   -1.016028   -0.609098   2.034085
C   -2.421427   -0.722710   1.441372
C   -3.159591   -2.023852   1.786342
N   -3.419612   -2.236635   3.199717
C   -2.602209   -2.981738   4.038898
N   -1.564135   -3.687423   3.747161
N   -3.016004   -2.902744   5.375582
H   -1.059504   -0.648467   3.132229
H   -0.397256   -1.465475   1.719366
H   -2.364435   -0.633908   0.346395
H   -3.028692    0.132379   1.785132
H   -2.599621   -2.894528   1.414977
H   -4.123054   -2.036647   1.253252
H   -3.949043   -1.505561   3.664111
H   -1.278253   -3.563683   2.774052
H   -2.484652   -3.553219   5.947509
H   -4.017750   -3.008562   5.515263
O    1.990267    0.135723   2.081359
H    2.705604    0.305770   2.724076
