 26
Energy: -16507.62412515.7 eV PBE+vdW (tier 2 basis)
N   -0.306238   -0.383868   0.293740
C    0.180935    0.096739   1.581081
C    1.698234    0.297856   1.618839
O    2.496579   -0.253066   0.890735
H    0.279428   -1.163088  -0.015959
H   -0.204069    0.340966  -0.416714
H   -0.284890    1.073006   1.788319
C   -0.216301   -0.882986   2.707506
C   -1.731415   -0.960845   2.906703
C   -2.168495   -2.091909   3.839409
N   -1.882608   -3.385848   3.244954
C   -2.024681   -4.607969   3.877220
N   -2.107622   -5.670115   3.147603
N   -1.962122   -4.563744   5.274235
H    0.270581   -0.575740   3.644982
H    0.181202   -1.878882   2.456614
H   -2.218304   -1.083588   1.926978
H   -2.101725   -0.009733   3.319658
H   -3.244428   -1.965776   4.074984
H   -1.613626   -2.004424   4.788317
H   -2.062216   -3.471288   2.248684
H   -2.145679   -6.516310   3.719991
H   -2.290041   -5.411756   5.721338
H   -2.319031   -3.728268   5.726747
O    2.071582    1.169321   2.599459
H    3.048082    1.202933   2.575180
