 26
Energy: -16507.57657915.7 eV PBE+vdW (tier 2 basis)
N    1.155162   -0.381012   0.256437
C    0.774510   -0.352648   1.676425
C    2.063217   -0.302472   2.499247
O    2.408676   -1.086405   3.360162
H    1.681925    0.456393   0.008441
H    0.314866   -0.393985  -0.321900
H    0.207762    0.561990   1.958906
C   -0.061152   -1.582118   2.031821
C   -0.734991   -1.504557   3.414094
C   -0.847959   -2.865197   4.103346
N    0.480958   -3.368368   4.444100
C    0.842494   -4.703875   4.398980
N    2.030931   -5.177324   4.221195
N   -0.225199   -5.593710   4.554994
H    0.587701   -2.466748   1.966887
H   -0.830033   -1.707500   1.254773
H   -1.739018   -1.065339   3.324430
H   -0.170887   -0.832469   4.080055
H   -1.359289   -3.585668   3.444332
H   -1.473383   -2.756071   5.007425
H    1.245364   -2.726094   4.245615
H    2.689091   -4.431308   3.978808
H    0.121767   -6.542251   4.664049
H   -0.898993   -5.343782   5.273746
O    2.818646    0.774303   2.155591
H    3.628781    0.727475   2.700046
