 26
Energy: -16507.61935215.7 eV PBE+vdW (tier 2 basis)
N    0.388034   -0.385081  -0.394699
C    0.048892   -0.175616   1.013853
C    1.211192   -0.210769   2.005949
O    1.279467    0.472974   3.006053
H    0.995029    0.366338  -0.722816
H    0.921830   -1.247013  -0.509676
H   -0.355042    0.841915   1.107977
C   -1.088930   -1.126756   1.472480
C   -0.921286   -2.642879   1.209609
C   -0.683936   -3.541389   2.433656
N    0.649855   -3.447427   3.015852
C    0.897802   -2.662295   4.124342
N   -0.050665   -2.146802   4.819801
N    2.296605   -2.483068   4.324944
H   -1.979353   -0.781481   0.930500
H   -1.275148   -0.950829   2.541229
H   -0.128961   -2.832660   0.466967
H   -1.839799   -3.011026   0.729084
H   -0.857443   -4.588505   2.139804
H   -1.392988   -3.299859   3.235135
H    1.404323   -3.445865   2.336837
H    0.307820   -1.649680   5.636755
H    2.494706   -1.999434   5.196776
H    2.817923   -3.358626   4.282302
O    2.170259   -1.127540   1.678604
H    2.695585   -1.253219   2.503657
