 26
Energy: -16507.62482715.7 eV PBE+vdW (tier 2 basis)
N   -0.324916    0.527993   0.345573
C    0.314303    0.304409   1.637757
C    1.813250    0.198128   1.423268
O    2.349550   -0.165476   0.398050
H   -1.286409    0.190740   0.350552
H    0.186532    0.010329  -0.372373
H    0.151540    1.188487   2.277714
C   -0.147599   -0.958774   2.415705
C   -1.621868   -0.936891   2.836282
C   -2.011541    0.213585   3.781032
N   -1.202951    0.329297   4.997257
C   -1.105289   -0.695217   5.940596
N   -0.060459   -1.015229   6.624661
N   -2.286722   -1.411946   6.126940
H    0.481299   -1.080967   3.310503
H    0.037553   -1.838467   1.780547
H   -1.851933   -1.891571   3.330969
H   -2.281070   -0.891911   1.952717
H   -3.070857    0.106169   4.054032
H   -1.939158    1.182697   3.266839
H   -0.312534    0.796512   4.859065
H    0.769172   -0.515052   6.292886
H   -2.208699   -2.029198   6.929656
H   -3.137175   -0.856401   6.141260
O    2.507187    0.523012   2.549072
H    3.449411    0.371657   2.340038
