 26
Energy: -16507.64590415.7 eV PBE+vdW (tier 2 basis)
N   -1.441663    0.837371   0.007856
C   -0.635922    0.486568   1.177290
C    0.867083    0.522292   0.883864
O    1.384182    0.110249  -0.133423
H   -1.139114    0.270021  -0.787917
H   -1.270201    1.807904  -0.258689
H   -0.846099    1.216163   1.972734
C   -1.036466   -0.916987   1.671368
C   -0.377573   -1.358859   2.979179
C   -0.920392   -2.694783   3.509111
N   -0.699079   -3.853697   2.641286
C    0.573171   -4.332427   2.324783
N    0.944448   -4.855845   1.206977
N    1.500600   -4.218478   3.360786
H   -0.805020   -1.635261   0.867891
H   -2.132017   -0.898778   1.779830
H   -0.540583   -0.593059   3.755207
H    0.712081   -1.449003   2.858409
H   -2.006918   -2.624770   3.669308
H   -0.482487   -2.896455   4.496360
H   -1.329297   -3.904946   1.847808
H    0.226004   -4.746961   0.485779
H    2.350285   -4.726387   3.133354
H    1.149434   -4.440747   4.287925
O    1.582383    1.075377   1.904313
H    2.521568    1.022205   1.636331
