 26
Energy: -16507.72929015.7 eV PBE+vdW (tier 2 basis)
N    0.121831   -0.906143   0.306886
C    0.511046   -1.323626   1.649446
C    1.983506   -1.728403   1.748754
O    2.655084   -2.148538   0.829222
H    0.519611    0.008353   0.092658
H    0.527189   -1.554237  -0.372924
H    0.347342   -0.483370   2.340815
C   -0.355261   -2.513945   2.122018
C   -1.828515   -2.142787   2.286795
C   -2.706826   -3.367713   2.581851
N   -4.109638   -3.071962   2.816003
C   -4.565792   -2.586574   4.036945
N   -3.920867   -2.461908   5.145604
N   -5.910835   -2.201453   3.980839
H    0.047368   -2.897619   3.071891
H   -0.246390   -3.326179   1.383106
H   -2.180218   -1.651022   1.368061
H   -1.939081   -1.409805   3.101271
H   -2.328289   -3.913189   3.460367
H   -2.649838   -4.075704   1.740766
H   -4.616197   -2.714480   2.011483
H   -2.922042   -2.645024   5.028293
H   -6.256029   -1.982198   4.911018
H   -6.517956   -2.857109   3.495558
O    2.466468   -1.592978   3.015450
H    3.389727   -1.913247   2.992092
