 26
Energy: -16507.69559815.7 eV PBE+vdW (tier 2 basis)
N    0.149885   -0.151073   0.170434
C   -0.190184   -0.173771   1.602358
C    1.062318   -0.486495   2.427476
O    1.470623   -1.594838   2.719897
H    0.535107   -1.054551  -0.112080
H    0.859102    0.556290  -0.025302
H   -0.532297    0.836236   1.872988
C   -1.285832   -1.199867   1.873010
C   -1.791189   -1.192899   3.323326
C   -2.369071   -2.533778   3.773726
N   -1.337004   -3.557559   3.736758
C   -1.643503   -4.878970   3.976879
N   -2.868920   -5.249814   4.140086
N   -0.496322   -5.689218   4.050153
H   -0.889086   -2.198298   1.633861
H   -2.110077   -1.004839   1.173547
H   -2.556692   -0.414807   3.456866
H   -0.970509   -0.923540   4.010805
H   -3.188320   -2.857144   3.115615
H   -2.805973   -2.438880   4.783273
H   -0.401322   -3.258830   3.994808
H   -2.937825   -6.267849   4.210357
H   -0.700860   -6.682031   4.015338
H    0.244649   -5.437069   3.400042
O    1.747510    0.648917   2.748205
H    2.563681    0.356021   3.199780
