 26
Energy: -16507.63516115.7 eV PBE+vdW (tier 2 basis)
N    1.059778    0.918693   1.313280
C    0.548558    0.005494   2.342060
C    1.573545   -0.179804   3.458253
O    1.745288   -1.191530   4.103623
H    0.322964    1.139076   0.638184
H    1.348908    1.800968   1.734381
H   -0.343299    0.410365   2.875036
C    0.155756   -1.344323   1.732920
C   -1.099289   -1.274242   0.840101
C   -0.907074   -1.889238  -0.557523
N    0.175910   -1.301662  -1.326231
C    0.220700    0.023363  -1.704043
N   -0.768867    0.853712  -1.782109
N    1.509285    0.442704  -2.052687
H    0.013330   -2.064704   2.546921
H    1.020105   -1.693350   1.147762
H   -1.424818   -0.230506   0.714761
H   -1.942321   -1.788782   1.323670
H   -1.851791   -1.820593  -1.122647
H   -0.685107   -2.961733  -0.469405
H    1.034832   -1.827010  -1.421460
H   -1.665777    0.378095  -1.651231
H    2.192077    0.280152  -1.313474
H    1.491309    1.423844  -2.319423
O    2.261697    0.970953   3.710065
H    2.857404    0.766277   4.456525
