 26
Energy: -16507.68577915.7 eV PBE+vdW (tier 2 basis)
N   -0.201071   -1.648202  -1.146845
C   -0.036436   -0.799136   0.027968
C    1.428811   -0.463681   0.327799
O    2.391135   -1.049995  -0.122916
H    0.513308   -2.379214  -1.140704
H   -0.023228   -1.106337  -1.992659
H   -0.550342    0.154937  -0.161576
C   -0.699680   -1.426256   1.276908
C   -0.086644   -2.755010   1.723122
C   -0.794373   -3.322075   2.951424
N   -0.199922   -4.590127   3.350229
C   -0.493989   -5.131339   4.590166
N   -1.195410   -4.474802   5.449140
N    0.028692   -6.428922   4.735099
H   -1.760603   -1.571196   1.026531
H   -0.654891   -0.700000   2.101963
H    0.983242   -2.632106   1.954221
H   -0.149945   -3.482791   0.896488
H   -1.877689   -3.427661   2.755694
H   -0.705532   -2.640636   3.807476
H   -0.110057   -5.276059   2.606347
H   -1.223180   -4.960064   6.349191
H   -0.024102   -6.781444   5.684895
H    0.958550   -6.555371   4.342033
O    1.543630    0.580147   1.196271
H    2.500953    0.700855   1.351465
