 26
Energy: -16507.59975915.7 eV PBE+vdW (tier 2 basis)
N    0.014820    0.476148   0.291433
C    0.099837    0.068851   1.683706
C    1.491046   -0.166661   2.291232
O    1.753950   -0.063422   3.470502
H    0.340165   -0.267611  -0.331619
H    0.580117    1.304987   0.113177
H   -0.306850    0.889204   2.294824
C   -0.793803   -1.161004   1.990378
C   -0.297382   -2.570353   1.620370
C   -0.289433   -2.975181   0.142221
N    0.793743   -2.341590  -0.597359
C    0.994917   -2.444588  -1.970251
N    2.011258   -1.985146  -2.620305
N   -0.062340   -3.012067  -2.674884
H   -1.759313   -0.963833   1.500815
H   -0.977090   -1.158638   3.073800
H   -0.958563   -3.284255   2.133778
H    0.702168   -2.751648   2.051549
H   -1.246623   -2.690071  -0.321603
H   -0.218869   -4.080247   0.096592
H    1.640797   -2.160443  -0.067737
H    2.650484   -1.480517  -2.000107
H    0.182668   -3.146277  -3.650820
H   -0.511172   -3.821776  -2.259482
O    2.442949   -0.529888   1.371173
H    3.265555   -0.643561   1.887039
