 26
Energy: -16507.57038815.7 eV PBE+vdW (tier 2 basis)
N   -0.102845   -0.736675  -0.482864
C    0.125079   -0.572895   0.952382
C    1.587514   -0.807443   1.338323
O    2.289836   -1.694284   0.898313
H    0.279602   -1.636378  -0.783805
H    0.408697   -0.023941  -1.004866
H   -0.134340    0.460218   1.225247
C   -0.812340   -1.528167   1.721642
C   -0.797586   -1.407727   3.253754
C    0.215566   -2.318294   3.947423
N    0.178578   -2.096675   5.392742
C    1.154916   -2.579237   6.260480
N    1.495040   -2.071855   7.397185
N    1.808801   -3.721522   5.806405
H   -0.579988   -2.562774   1.419849
H   -1.818056   -1.314920   1.336439
H   -1.797770   -1.649763   3.642728
H   -0.599657   -0.360866   3.540454
H    1.231491   -2.160387   3.550367
H   -0.050402   -3.364808   3.721851
H   -0.157614   -1.177773   5.662093
H    1.034135   -1.172303   7.558008
H    2.367428   -4.139605   6.543738
H    1.242106   -4.396678   5.303033
O    2.032666    0.106924   2.247160
H    2.957884   -0.135912   2.452207
