 26
Energy: -16507.67464415.7 eV PBE+vdW (tier 2 basis)
N   -0.120821    0.364543  -0.166090
C   -0.194125    0.387930   1.295542
C    1.115868    0.055800   2.008764
O    1.618010    0.711214   2.900921
H    0.174081   -0.555754  -0.495840
H    0.567372    1.037227  -0.504290
H   -0.438947    1.414497   1.599559
C   -1.321919   -0.552999   1.764268
C   -1.476197   -0.711888   3.281840
C   -1.808517    0.569510   4.066631
N   -3.083683    1.188168   3.712899
C   -3.254662    2.114809   2.695014
N   -4.327530    2.062757   1.980008
N   -2.194931    3.019743   2.551383
H   -1.144518   -1.547617   1.325191
H   -2.251222   -0.174681   1.315732
H   -0.560172   -1.143361   3.718751
H   -2.269847   -1.452958   3.469208
H   -1.006841    1.307610   3.941493
H   -1.832732    0.326572   5.139693
H   -3.882302    0.558049   3.728135
H   -4.411483    2.878477   1.368292
H   -2.409320    3.798081   1.938188
H   -1.756913    3.323230   3.417338
O    1.689633   -1.093610   1.541634
H    2.506122   -1.214967   2.063465
