 26
Energy: -16507.69458615.7 eV PBE+vdW (tier 2 basis)
N   -0.115552    0.531007   0.034067
C   -0.134557    0.118299   1.432544
C    1.292390   -0.154080   1.878261
O    2.229255   -0.385673   1.142529
H    0.654615    0.066767  -0.449910
H   -0.983408    0.271369  -0.432818
H   -0.502597    0.951308   2.055394
C   -1.029251   -1.110185   1.761933
C   -0.601251   -2.419521   1.100054
C   -1.604326   -3.548555   1.368455
N   -1.312582   -4.793837   0.671876
C   -1.626885   -4.924802  -0.670718
N   -2.278554   -4.001122  -1.291424
N   -1.131026   -6.120695  -1.214783
H   -2.050626   -0.851376   1.437173
H   -1.074513   -1.225986   2.856318
H    0.396442   -2.720697   1.460324
H   -0.522453   -2.286189   0.011953
H   -2.604827   -3.234082   1.043567
H   -1.656727   -3.769940   2.445565
H   -0.458778   -5.266198   0.951958
H   -2.537611   -4.301633  -2.233721
H   -1.479619   -6.318926  -2.146460
H   -1.209924   -6.930701  -0.604590
O    1.408408   -0.145194   3.235675
H    2.342265   -0.360617   3.423928
