 26
Energy: -16507.87267515.7 eV PBE+vdW (tier 2 basis)
N    0.370119    0.730803   0.579780
C   -0.078926    0.001274   1.768896
C    1.158972   -0.303780   2.646697
O    1.166564   -1.098372   3.563795
H    0.796159    0.144398  -0.154700
H   -0.364673    1.303532   0.172114
H   -0.640593    0.728299   2.382174
C   -1.014421   -1.218110   1.614478
C   -0.650718   -2.338736   0.628788
C    0.655710   -3.119702   0.868476
N    1.862441   -2.469516   0.333021
C    1.917577   -2.110859  -1.006915
N    2.184462   -0.884545  -1.328321
N    1.620331   -3.148394  -1.880676
H   -2.002831   -0.831884   1.320713
H   -1.135784   -1.644361   2.621605
H   -0.641446   -1.953356  -0.403736
H   -1.480597   -3.061932   0.659097
H    0.562432   -4.114924   0.412027
H    0.828960   -3.280451   1.939885
H    2.233776   -1.720966   0.912247
H    2.362652   -0.783668  -2.331796
H    1.767980   -2.952693  -2.863203
H    1.917514   -4.076189  -1.595550
O    2.235842    0.427078   2.302533
H    1.907901    0.952700   1.510793
