 26
Energy: -16507.65631415.7 eV PBE+vdW (tier 2 basis)
N   -0.099962   -0.093805  -0.335086
C   -0.193998    0.112567   1.107702
C    1.122989    0.288081   1.876051
O    1.222909    0.842714   2.950256
H    0.507611   -0.886227  -0.544110
H    0.328442    0.716655  -0.781833
H   -0.735162    1.055215   1.276117
C   -1.024431   -1.004273   1.779636
C   -0.458443   -2.417238   1.623613
C   -1.331430   -3.454120   2.343461
N   -0.881900   -4.831628   2.202033
C    0.178298   -5.304418   2.956036
N    0.724159   -4.571363   3.865021
N    0.555964   -6.604357   2.576280
H   -2.031802   -0.954681   1.338658
H   -1.122426   -0.759562   2.847841
H    0.558254   -2.480609   2.037357
H   -0.398240   -2.684728   0.555833
H   -2.366718   -3.401689   1.972432
H   -1.350240   -3.233833   3.418790
H   -0.943619   -5.222700   1.267487
H    1.401907   -5.105136   4.413764
H   -0.221607   -7.228020   2.372483
H    1.219472   -7.033647   3.212397
O    2.194283   -0.264651   1.234600
H    2.954492   -0.130922   1.833741
