 26
Energy: -16507.67480115.7 eV PBE+vdW (tier 2 basis)
N    0.667804   -0.540200   0.558311
C    0.730832   -0.605733   2.029074
C    2.121680   -1.067321   2.472588
O    2.518939   -2.215655   2.476424
H    0.904953   -1.452193   0.161083
H    1.353775    0.126258   0.201014
H    0.578963    0.413207   2.406535
C   -0.347894   -1.557337   2.555879
C   -0.520387   -1.555940   4.083401
C   -1.545563   -0.544762   4.623992
N   -1.352533    0.849129   4.238754
C   -0.295185    1.584164   4.739647
N    0.473719    1.098376   5.653222
N   -0.170201    2.832936   4.104257
H   -0.085026   -2.570761   2.217015
H   -1.291106   -1.294479   2.051009
H    0.443618   -1.381175   4.581535
H   -0.854517   -2.551548   4.411521
H   -1.539926   -0.584490   5.721110
H   -2.555437   -0.823525   4.287193
H   -1.634431    1.091806   3.295320
H    1.137332    1.800257   5.988446
H    0.494329    3.450849   4.557854
H   -1.051772    3.306358   3.919939
O    2.925601   -0.012977   2.792417
H    3.798824   -0.397504   3.005365
