 26
Energy: -16507.66188715.7 eV PBE+vdW (tier 2 basis)
N    0.000355   -0.206583  -0.300957
C   -0.139692    0.164922   1.105445
C    1.160868    0.464960   1.856315
O    1.302456    1.339011   2.685245
H    0.416628    0.555210  -0.835874
H    0.625449   -1.008358  -0.395518
H   -0.715614    1.100819   1.154611
C   -0.912514   -0.921752   1.881678
C   -2.352630   -1.087799   1.395008
C   -3.078407   -2.218847   2.119610
N   -4.438068   -2.358054   1.627382
C   -5.268670   -3.370649   2.094594
N   -4.969866   -4.344572   2.883087
N   -6.576719   -3.247707   1.611383
H   -0.900540   -0.664907   2.951943
H   -0.367938   -1.875648   1.781811
H   -2.357086   -1.277999   0.313056
H   -2.896944   -0.140951   1.554285
H   -3.054092   -2.042163   3.213562
H   -2.549159   -3.168368   1.939736
H   -4.916727   -1.481759   1.437990
H   -4.030861   -4.238579   3.273322
H   -7.127244   -4.064540   1.860548
H   -6.641567   -3.031964   0.619942
O    2.168289   -0.390283   1.509869
H    2.933951   -0.138154   2.061428
