 26
Energy: -16507.57611915.7 eV PBE+vdW (tier 2 basis)
N    0.480812    0.334291  -0.065195
C    0.122921    0.114596   1.326422
C    1.256680   -0.074402   2.342843
O    1.154533    0.140445   3.533754
H    1.176029    1.073718  -0.154915
H    0.853056   -0.494964  -0.534946
H   -0.381893    1.027067   1.680267
C   -0.908514   -1.039329   1.487187
C   -0.374123   -2.454146   1.756051
C    0.422478   -3.137539   0.636216
N   -0.361041   -3.381687  -0.571126
C   -0.220329   -2.731077  -1.785015
N   -1.121151   -2.576814  -2.693702
N    1.057547   -2.191745  -2.007537
H   -1.525880   -1.021894   0.576979
H   -1.570449   -0.779540   2.323835
H   -1.236748   -3.095373   2.004310
H    0.249248   -2.454338   2.664788
H    0.813424   -4.094737   1.019922
H    1.295364   -2.533318   0.363963
H   -1.291597   -3.755781  -0.419101
H   -2.044215   -2.871151  -2.362106
H    1.106252   -1.834233  -2.958550
H    1.827239   -2.826332  -1.806110
O    2.420220   -0.526068   1.785120
H    3.046097   -0.609738   2.531132
