 26
Energy: -16507.55298015.7 eV PBE+vdW (tier 2 basis)
N    0.309152   -0.210799  -1.783810
C   -0.427508    0.106057  -0.567516
C   -0.112190    1.541237  -0.174429
O    0.862462    2.168289  -0.532521
H    1.201432    0.285331  -1.791195
H    0.491656   -1.210135  -1.857452
H   -1.509932    0.066634  -0.775138
C   -0.177141   -0.832795   0.646897
C    1.246173   -0.802257   1.203921
C    1.451952   -1.822085   2.322282
N    2.822256   -1.780163   2.801567
C    3.320598   -2.568537   3.826081
N    4.364332   -2.157448   4.464312
N    2.677316   -3.798284   3.990475
H   -0.426619   -1.853750   0.313164
H   -0.901216   -0.581249   1.436980
H    1.475585    0.204629   1.590357
H    1.976282   -1.001895   0.405073
H    1.238338   -2.827351   1.920677
H    0.716513   -1.629711   3.130749
H    3.267147   -0.866980   2.807826
H    4.693314   -2.854827   5.135770
H    2.867455   -4.247021   4.878404
H    1.698551   -3.852775   3.728878
O   -1.045584    2.046710   0.676901
H   -0.744323    2.948174   0.902746
