 26
Energy: -16508.00415315.7 eV PBE+vdW (tier 2 basis)
N    0.836241   -0.050139   0.898492
C   -0.000989    0.201414   2.085649
C    0.926030    0.273054   3.332991
O    0.516300    0.432669   4.464642
H    2.162054    0.038660   2.001576
H    0.674558   -0.983080   0.478917
H   -0.448032    1.206691   2.008628
C   -1.131472   -0.805573   2.347719
C   -2.330981   -0.731341   1.393480
C   -2.167522   -1.422867   0.032136
N   -1.960776   -2.863628   0.136354
C   -0.745317   -3.459766  -0.091689
N    0.319664   -2.749205  -0.289089
N   -0.813917   -4.856195  -0.126231
H   -1.477063   -0.614558   3.372434
H   -0.714582   -1.825444   2.353724
H   -2.596485    0.323750   1.211613
H   -3.203543   -1.178917   1.895178
H   -1.322725   -1.009622  -0.531984
H   -3.071864   -1.251126  -0.570376
H   -2.775266   -3.451977   0.018130
H    1.147651   -3.337558  -0.392546
H    0.088360   -5.314640  -0.063620
H   -1.491192   -5.277696   0.503784
O    2.220345    0.152367   3.010758
H    0.700398    0.652261   0.176087
