 26
Energy: -16507.87012315.7 eV PBE+vdW (tier 2 basis)
N    1.141744   -0.107319   0.054206
C    0.911161   -0.012677   1.506183
C    2.267314    0.171454   2.226422
O    3.273268    0.455289   1.379482
H    1.199653   -1.080250  -0.250771
H    2.822914    0.419289   0.483045
H    0.380555    0.933523   1.680748
C    0.102205   -1.154380   2.148766
C   -1.293279   -1.389130   1.558661
C   -2.410145   -0.419083   1.988409
N   -2.115940    1.003466   1.863277
C   -1.888962    1.640933   0.658521
N   -1.880929    1.118950  -0.526246
N   -1.623804    2.999974   0.806863
H    0.046297   -0.960890   3.229528
H    0.686447   -2.083592   2.043022
H   -1.637419   -2.390172   1.860349
H   -1.225087   -1.428344   0.461182
H   -2.625838   -0.583549   3.052832
H   -3.333399   -0.682683   1.438784
H   -2.441600    1.594235   2.619190
H   -2.266204    0.172262  -0.514150
H   -1.354092    3.430488  -0.071861
H   -1.024213    3.261967   1.583679
O    2.404443    0.105348   3.429270
H    0.381060    0.338659  -0.466501
