 26
Energy: -16507.72798815.7 eV PBE+vdW (tier 2 basis)
N    0.009615    0.614415   0.298961
C   -0.120734    0.198064   1.680701
C    1.136581    0.356929   2.547516
O    2.295236    0.327092   2.176219
H    0.779150    0.159712  -0.210061
H    0.189624    1.615987   0.244952
H   -0.861945    0.857067   2.158907
C   -0.708826   -1.235925   1.822333
C   -0.148597   -2.370239   0.950694
C    1.320075   -2.797385   1.146429
N    2.305188   -2.009027   0.399462
C    2.220518   -1.909806  -0.980981
N    2.265237   -0.740393  -1.532611
N    2.049482   -3.129787  -1.635096
H   -1.776144   -1.142652   1.576010
H   -0.660926   -1.523465   2.884520
H   -0.305691   -2.133372  -0.112402
H   -0.781360   -3.249441   1.151228
H    1.417496   -3.854598   0.861786
H    1.607917   -2.744351   2.206768
H    2.483341   -1.088796   0.809634
H    2.345114   -0.803733  -2.551433
H    2.134724   -3.087670  -2.643830
H    2.536999   -3.921366  -1.225793
O    0.812882    0.558940   3.857289
H    1.661458    0.629337   4.337361
