 26
Energy: -16507.69285515.7 eV PBE+vdW (tier 2 basis)
N   -0.836196    0.834377   0.839566
C   -0.286625    0.057200   1.950042
C    1.231451    0.125051   2.111922
O    1.820735    0.253040   3.167175
H   -0.382905    0.578648  -0.038695
H   -0.671707    1.830630   0.982776
H   -0.697893    0.476226   2.878489
C   -0.746308   -1.410815   1.813356
C   -0.210476   -2.408174   2.847416
C   -0.482183   -2.051353   4.319840
N   -1.875407   -1.773489   4.607315
C   -2.369025   -0.540325   5.001105
N   -1.727955    0.553795   5.235299
N   -3.760483   -0.562208   5.164484
H   -0.470485   -1.765806   0.807820
H   -1.844161   -1.383988   1.845573
H    0.877820   -2.539273   2.733778
H   -0.655208   -3.391269   2.626060
H    0.114499   -1.174296   4.601613
H   -0.126931   -2.873558   4.960557
H   -2.482139   -2.565541   4.782716
H   -0.714284    0.416706   5.240459
H   -4.106668    0.373047   5.359080
H   -4.269601   -1.003806   4.402906
O    1.891836    0.000341   0.922328
H    2.843077    0.039450   1.140334
