 26
Energy: -16507.64286815.7 eV PBE+vdW (tier 2 basis)
N    0.612086   -0.699721   0.010459
C    0.237390   -0.290345   1.364669
C    1.329250    0.430518   2.162367
O    1.153390    1.396314   2.874680
H    0.890128    0.110366  -0.544020
H    1.421272   -1.322153   0.042097
H   -0.579535    0.441585   1.282809
C   -0.270397   -1.480943   2.204471
C   -1.581255   -2.115232   1.716101
C   -1.433732   -3.091003   0.533861
N   -2.649283   -3.814044   0.201767
C   -3.104502   -4.890298   0.951676
N   -2.509799   -5.508012   1.914584
N   -4.382764   -5.308637   0.558787
H   -0.413690   -1.119749   3.233374
H    0.524429   -2.244468   2.257907
H   -2.295222   -1.321736   1.441289
H   -2.038298   -2.657162   2.557449
H   -0.649273   -3.831893   0.756036
H   -1.098002   -2.549080  -0.358308
H   -3.382236   -3.261019  -0.231107
H   -1.647659   -5.034794   2.193501
H   -4.627453   -6.178445   1.023814
H   -4.515244   -5.369077  -0.447682
O    2.555093   -0.152508   2.003914
H    3.167732    0.356484   2.569215
