 26
Energy: -16507.63101515.7 eV PBE+vdW (tier 2 basis)
N   -0.136050    0.322355   0.211130
C    0.104467   -0.047697   1.604087
C    1.560218   -0.300441   2.017810
O    1.969127   -0.261098   3.159261
H    0.286241   -0.358746  -0.419983
H    0.309786    1.214821  -0.000317
H   -0.216780    0.795484   2.233062
C   -0.756604   -1.261713   2.018629
C   -0.445803   -2.564380   1.276951
C   -1.387236   -3.708811   1.656628
N   -2.756937   -3.423055   1.252056
C   -3.811762   -4.112876   1.823448
N   -3.616008   -4.935926   2.795652
N   -5.034569   -3.819199   1.193923
H   -1.804353   -0.981257   1.845208
H   -0.635054   -1.419160   3.100336
H    0.583896   -2.891494   1.488938
H   -0.495573   -2.406353   0.185702
H   -1.403219   -3.864603   2.743053
H   -1.027297   -4.655280   1.215140
H   -2.882337   -3.202096   0.268572
H   -4.503217   -5.270419   3.179177
H   -5.841522   -4.178303   1.692918
H   -5.156719   -2.840722   0.943172
O    2.371757   -0.605572   0.961409
H    3.252903   -0.772500   1.349543
