 26
Energy: -16507.65026115.7 eV PBE+vdW (tier 2 basis)
N    0.991823   -0.221044   0.200674
C    0.041042   -0.004204   1.282918
C    0.656391    0.693800   2.504513
O    1.822990    1.004236   2.624859
H    1.854926   -0.622491   0.572010
H    1.270018    0.674570  -0.200509
H   -0.728660    0.695425   0.917684
C   -0.714476   -1.307720   1.642067
C    0.142599   -2.525861   2.007267
C    0.890375   -2.422882   3.336717
N    1.513487   -3.695298   3.665401
C    2.215337   -3.855660   4.856123
N    2.323324   -3.023583   5.833307
N    2.859913   -5.095855   4.927529
H   -1.307255   -1.566096   0.754195
H   -1.426062   -1.093211   2.452196
H    0.854567   -2.731116   1.190559
H   -0.521458   -3.402313   2.056598
H    0.178402   -2.169921   4.138458
H    1.638563   -1.609217   3.302552
H    1.921854   -4.187739   2.875292
H    1.933440   -2.109457   5.592935
H    3.256224   -5.240115   5.851897
H    2.292737   -5.884437   4.627418
O   -0.277260    0.962370   3.461252
H    0.198076    1.419303   4.182556
