 26
Energy: -16507.56287615.7 eV PBE+vdW (tier 2 basis)
N   -0.232068   -0.219138  -0.128912
C   -0.536612   -0.089625   1.293509
C    0.584495    0.699029   1.962688
O    1.412315    1.364250   1.376942
H   -1.084669   -0.219370  -0.684768
H    0.347238    0.566260  -0.428889
H   -1.442265    0.523287   1.490343
C   -0.762160   -1.460386   1.955891
C    0.460641   -2.391667   1.886758
C    0.533412   -3.371918   3.056953
N    0.842932   -2.661195   4.285750
C    0.787023   -3.187396   5.558698
N    0.750522   -2.376316   6.564824
N    0.868927   -4.582248   5.621543
H   -1.621374   -1.937923   1.461606
H   -1.066384   -1.292723   2.998820
H    1.392995   -1.804346   1.874966
H    0.454430   -2.949756   0.942885
H    1.316351   -4.120370   2.847282
H   -0.429805   -3.918514   3.131179
H    0.719373   -1.653270   4.284262
H    0.792209   -2.881858   7.452446
H    0.544517   -4.975858   6.496654
H    0.542032   -5.103696   4.814478
O    0.539274    0.605390   3.320433
H    1.265669    1.162626   3.661242
