 26
Energy: -16507.65767115.7 eV PBE+vdW (tier 2 basis)
N    0.321659   -1.086304  -0.174484
C   -0.380032   -0.281609   0.825946
C    0.541487    0.740445   1.493196
O    1.678283    0.526222   1.861497
H    1.140571   -1.521356   0.256839
H    0.678852   -0.490128  -0.922428
H   -1.182634    0.272356   0.317837
C   -1.022557   -1.219042   1.869660
C   -1.910933   -0.552396   2.932165
C   -1.163329   -0.152328   4.213742
N   -2.000923    0.493414   5.214971
C   -2.829408   -0.260447   6.028348
N   -2.799608   -1.548809   5.994669
N   -3.668801    0.546012   6.816744
H   -0.221330   -1.799067   2.357460
H   -1.608310   -1.939879   1.283886
H   -2.705275   -1.251509   3.225333
H   -2.410068    0.332815   2.504243
H   -0.326598    0.526009   3.997247
H   -0.744994   -1.052310   4.682375
H   -2.375685    1.400495   4.955791
H   -3.375053   -1.951543   6.737612
H   -4.167211    0.029625   7.533764
H   -3.220543    1.375513   7.198990
O   -0.054311    1.963027   1.632047
H    0.608138    2.534792   2.068834
