 26
Energy: -16507.93332115.7 eV PBE+vdW (tier 2 basis)
N    0.225106   -0.169003  -0.313663
C   -0.075963    0.178784   1.074096
C    1.169594    0.599084   1.890233
O    2.289446    0.250236   1.567068
H    1.069452   -0.749206  -0.312918
H    0.489285    0.673745  -0.826117
H   -0.766244    1.032094   1.052710
C   -0.763899   -1.026062   1.760922
C   -2.230640   -1.242343   1.357870
C   -3.281063   -0.446419   2.150910
N   -3.304780    0.995169   1.928113
C   -2.469396    1.896218   2.530295
N   -1.688532    1.678333   3.550463
N   -2.490711    3.159730   1.964557
H   -0.681606   -0.944071   2.855179
H   -0.177848   -1.915547   1.484454
H   -2.484128   -2.304924   1.499350
H   -2.341286   -1.042475   0.280793
H   -3.165356   -0.640861   3.229898
H   -4.282187   -0.816961   1.891598
H   -3.974123    1.355361   1.259724
H   -1.895325    0.780474   3.992259
H   -1.823204    3.794027   2.390471
H   -2.531800    3.216956   0.952291
O    0.959802    1.356639   2.978080
H   -0.024661    1.545184   3.153931
