 26
Energy: -16507.69478115.7 eV PBE+vdW (tier 2 basis)
N   -0.986967    0.252778   0.033133
C    0.005685   -0.193420   1.019902
C    1.304500   -0.671948   0.344873
O    1.316681   -1.555246  -0.488798
H   -1.100679   -0.483791  -0.668556
H   -0.634603    1.069084  -0.469675
H    0.237028    0.679257   1.643757
C   -0.646148   -1.291996   1.884146
C    0.227189   -2.169838   2.797334
C    1.252445   -1.476964   3.720709
N    0.805373   -0.228515   4.322658
C    1.199762    1.000015   3.844029
N    2.318423    1.272771   3.231116
N    0.295444    2.020102   4.075174
H   -1.172843   -1.972641   1.198081
H   -1.433873   -0.793929   2.468611
H    0.789192   -2.893063   2.187241
H   -0.460406   -2.770542   3.412654
H    2.161933   -1.250179   3.153390
H    1.557681   -2.178103   4.511393
H   -0.047671   -0.252019   4.870982
H    2.999265    0.522520   3.379319
H    0.606347    2.915280   3.713584
H   -0.689088    1.822733   3.927161
O    2.439835   -0.027561   0.695378
H    2.277938    0.614169   1.444904
