 26
Energy: -16507.78095615.7 eV PBE+vdW (tier 2 basis)
N    0.540678   -0.493574   0.316904
C   -0.152859   -0.260233   1.574205
C    0.801265    0.443209   2.531919
O    1.862706    0.942404   2.220943
H    1.144947    0.292657   0.083633
H   -0.110666   -0.690178  -0.452499
H   -1.003466    0.450094   1.481171
C   -0.738758   -1.563321   2.164434
C    0.298938   -2.679411   2.410217
C    0.196812   -3.859174   1.430776
N    0.318653   -3.419854   0.035843
C   -0.756113   -3.419951  -0.832471
N   -0.971131   -2.384834  -1.585972
N   -1.542608   -4.572930  -0.778934
H   -1.513678   -1.913179   1.466649
H   -1.258192   -1.308931   3.096367
H    0.194606   -3.076348   3.430440
H    1.316588   -2.261885   2.349264
H   -0.769119   -4.367864   1.558269
H    0.983627   -4.594304   1.665793
H    0.814992   -2.522310  -0.034895
H   -1.684362   -2.577251  -2.293444
H   -2.238539   -4.643050  -1.512290
H   -1.037206   -5.441474  -0.628848
O    0.309891    0.505276   3.802160
H    0.969353    1.013411   4.312608
