 26
Energy: -16507.81272815.7 eV PBE+vdW (tier 2 basis)
N    0.568287   -0.207181   0.118683
C    0.180006   -0.021176   1.533776
C    1.482601    0.183555   2.366069
O    1.546732   -0.320706   3.515001
H    1.345862    0.439730  -0.043327
H   -0.197464    0.070545  -0.496831
H   -0.402744    0.912027   1.677129
C   -0.730589   -1.174026   2.001667
C   -0.126833   -2.546278   2.373677
C    0.989886   -3.117322   1.490271
N    2.260854   -2.450554   1.798158
C    3.236602   -2.211118   0.925407
N    4.054879   -1.174562   1.131194
N    3.431872   -3.055672  -0.126305
H   -1.478624   -1.322696   1.205121
H   -1.292657   -0.832201   2.882175
H   -0.944083   -3.282953   2.374333
H    0.249863   -2.503314   3.405215
H    0.756879   -2.960480   0.425819
H    1.083314   -4.198838   1.684195
H    2.230867   -1.828434   2.626377
H    4.861771   -1.075068   0.527735
H    3.809683   -2.664148  -0.979661
H    2.766687   -3.807831  -0.254733
O    2.427638    0.787622   1.753988
H    3.587676   -0.289018   1.523652
