 26
Energy: -16507.63760715.7 eV PBE+vdW (tier 2 basis)
N   -0.129389   -0.570765  -0.230873
C   -0.232684   -0.274192   1.197566
C    1.149729    0.148603   1.673943
O    2.185107   -0.397136   1.355685
H    0.667088   -1.191589  -0.389355
H   -0.967421   -1.055510  -0.552464
H   -0.911639    0.580880   1.326111
C   -0.731395   -1.465220   2.063356
C   -0.867419   -1.225670   3.572164
C   -1.869557   -0.133087   3.945783
N   -2.034218   -0.067452   5.386999
C   -2.804534    0.930775   5.976336
N   -3.357302    1.948173   5.412926
N   -2.960561    0.732370   7.353131
H   -0.045848   -2.308688   1.890655
H   -1.708797   -1.764840   1.650722
H    0.109495   -0.983038   4.017059
H   -1.185502   -2.175072   4.034433
H   -2.831979   -0.318755   3.426902
H   -1.502435    0.845969   3.605149
H   -2.103899   -0.969593   5.850453
H   -3.287068    1.900605   4.394147
H   -2.107347    0.473087   7.841508
H   -3.415305    1.534490   7.779981
O    1.098293    1.194422   2.541266
H    2.019979    1.363536   2.820666
