 26
Energy: -16507.95675715.7 eV PBE+vdW (tier 2 basis)
N    0.247996   -1.012319  -0.260166
C    0.223585   -0.577716   1.140228
C    1.567733   -0.818848   1.858587
O    2.204457   -1.845230   1.703578
H    0.676610   -1.942210  -0.292346
H    0.872476   -0.405774  -0.794365
H    0.016106    0.499877   1.147198
C   -0.931766   -1.320405   1.848328
C   -0.975335   -1.370832   3.383297
C   -0.914822   -0.050636   4.178464
N   -1.656864    1.069174   3.618105
C   -1.063358    2.160362   3.050665
N    0.224731    2.220466   2.871163
N   -1.970457    3.140803   2.654846
H   -0.900201   -2.364174   1.499914
H   -1.866444   -0.901048   1.448443
H   -0.150759   -1.997659   3.756920
H   -1.899081   -1.905793   3.654924
H    0.118766    0.289622   4.284282
H   -1.286625   -0.240599   5.197391
H   -2.650649    0.957102   3.458496
H    0.524918    3.143147   2.557430
H   -1.552490    3.997834   2.312320
H   -2.752565    3.307639   3.280846
O    1.999177    0.164756   2.664220
H    1.335202    0.939401   2.702397
