 26
Energy: -16507.52194715.7 eV PBE+vdW (tier 2 basis)
N   -0.287896    0.833653   0.753154
C    0.279228    0.021583   1.844301
C    1.651149   -0.509200   1.429343
O    2.717262   -0.022309   1.748162
H   -0.425353    0.260086  -0.081320
H    0.354371    1.584925   0.496972
H    0.471605    0.699799   2.687975
C   -0.735534   -1.047763   2.269843
C   -0.485019   -1.715799   3.626889
C    0.760326   -2.599612   3.707287
N    0.781901   -3.312027   4.973739
C    1.815537   -4.133226   5.392075
N    1.940131   -4.371072   6.654594
N    2.566967   -4.702943   4.359722
H   -0.814785   -1.813013   1.481846
H   -1.707442   -0.535321   2.306104
H   -1.358484   -2.339698   3.870005
H   -0.428728   -0.941537   4.410727
H    1.669604   -1.981379   3.572273
H    0.729635   -3.325717   2.877588
H    0.355516   -2.841177   5.766089
H    2.683981   -5.048250   6.837301
H    2.644754   -4.172036   3.498139
H    3.457509   -5.079556   4.662123
O    1.563069   -1.561683   0.557240
H    2.479811   -1.750189   0.278075
