 26
Energy: -16507.72249815.7 eV PBE+vdW (tier 2 basis)
N    0.394351    0.752917   2.990678
C    0.952950   -0.514556   2.542884
C    2.339701   -0.388454   1.914853
O    2.814505    0.622769   1.442466
H    0.823210    1.041666   3.869129
H    0.609963    1.482416   2.307587
H    1.053002   -1.173738   3.415467
C    0.000363   -1.178209   1.512532
C   -1.284870   -1.723392   2.148793
C   -1.190493   -3.190112   2.612984
N   -0.099315   -3.526692   3.516242
C   -0.082324   -3.129836   4.845887
N   -1.021649   -2.575142   5.531099
N    1.154849   -3.373255   5.457951
H    0.530287   -1.978573   0.971902
H   -0.244540   -0.410639   0.763186
H   -2.108790   -1.672996   1.420770
H   -1.570913   -1.060705   2.978532
H   -1.078625   -3.841602   1.733389
H   -2.135415   -3.487390   3.092909
H    0.816659   -3.611081   3.086526
H   -1.821335   -2.323395   4.947052
H    1.089668   -3.217529   6.460058
H    1.566624   -4.277461   5.241386
O    3.003115   -1.583573   1.912184
H    3.856020   -1.418437   1.464554
