 26
Energy: -16507.60420515.7 eV PBE+vdW (tier 2 basis)
N   -0.465831    0.830466   0.386763
C   -0.234182    0.251804   1.709662
C    1.171091    0.660080   2.129173
O    2.145272    0.613997   1.407251
H   -1.295630    0.418276  -0.040136
H    0.330696    0.619265  -0.217959
H   -0.941294    0.702134   2.422502
C   -0.400486   -1.292778   1.771021
C   -0.238283   -1.944234   3.154907
C    1.193545   -2.386756   3.462921
N    1.290828   -2.921598   4.808132
C    2.526314   -3.177389   5.394095
N    3.699061   -2.912422   4.931965
N    2.399263   -3.805732   6.638273
H    0.297085   -1.745092   1.047633
H   -1.413059   -1.495743   1.391364
H   -0.896259   -2.826057   3.212016
H   -0.577766   -1.254754   3.943566
H    1.880727   -1.532226   3.396824
H    1.524315   -3.116666   2.698069
H    0.563135   -3.582849   5.065436
H    3.662538   -2.598052   3.959808
H    3.302423   -3.871150   7.099135
H    1.688782   -3.403936   7.244505
O    1.226245    1.058488   3.427395
H    2.165229    1.259496   3.614047
