 26
Energy: -16507.71228215.7 eV PBE+vdW (tier 2 basis)
N   -0.769817    0.228797  -0.408521
C   -0.822744    0.349488   1.042517
C   -0.449918   -0.909966   1.841416
O   -0.871141   -1.236549   2.937628
H    0.156561   -0.066804  -0.711475
H   -1.440644   -0.476945  -0.737765
H   -0.013855    1.046026   1.337125
C   -2.142507    1.006468   1.512872
C   -3.428494    0.586422   0.783080
C   -4.136623   -0.694282   1.254031
N   -3.344674   -1.912168   1.360303
C   -2.846808   -2.574953   0.265702
N   -2.997211   -2.099311  -0.931508
N   -2.241876   -3.796717   0.576518
H   -2.013603    2.084272   1.346080
H   -2.240609    0.865268   2.599351
H   -3.239436    0.523169  -0.295334
H   -4.162503    1.397991   0.909143
H   -4.971532   -0.897333   0.568593
H   -4.566418   -0.531059   2.253456
H   -2.827496   -2.020474   2.226296
H   -2.715179   -2.790677  -1.630892
H   -2.092535   -4.000674   1.559596
H   -1.457228   -4.048105  -0.013019
O    0.508826   -1.645114   1.207560
H    0.732467   -2.367770   1.825246
