 26
Energy: -16507.70071515.7 eV PBE+vdW (tier 2 basis)
N    0.162708    0.139430   0.081574
C    0.168882    0.067228   1.544053
C    1.570545   -0.204045   2.094791
O    2.339310   -1.040378   1.666420
H    0.610554   -0.697699  -0.299107
H    0.724244    0.930995  -0.235386
H   -0.166539    1.037973   1.935774
C   -0.832088   -1.014894   1.998698
C   -1.075507   -1.125435   3.512129
C   -0.111727   -2.078897   4.242416
N   -0.319186   -2.179702   5.675207
C    0.153114   -1.217626   6.560746
N    0.869430   -0.177203   6.306983
N   -0.240964   -1.478819   7.878597
H   -0.501855   -1.986998   1.594579
H   -1.770181   -0.770729   1.482643
H   -2.099757   -1.492883   3.677947
H   -1.034566   -0.129432   3.979370
H    0.936067   -1.790464   4.082608
H   -0.210436   -3.088968   3.816638
H   -1.170434   -2.647655   5.970460
H    0.953024   -0.004350   5.303079
H    0.210857   -0.832344   8.519079
H   -0.128706   -2.446277   8.170666
O    1.880338    0.618141   3.138631
H    2.780484    0.372626   3.433809
