 26
Energy: -16507.65054815.7 eV PBE+vdW (tier 2 basis)
N   -0.227379   -0.387912  -0.066230
C   -0.161674   -0.162425   1.387834
C    1.294783   -0.001550   1.818427
O    1.848978    1.054460   2.041844
H    0.234466   -1.265392  -0.312315
H    0.255065    0.358387  -0.568840
H   -0.626980    0.813557   1.587148
C   -0.953420   -1.257176   2.113473
C   -1.241694   -1.015045   3.600933
C   -0.040726   -1.123206   4.557756
N    0.691188   -2.389999   4.495144
C    0.105454   -3.613741   4.817650
N    0.332997   -4.749274   4.248885
N   -0.805787   -3.554827   5.871867
H   -0.455480   -2.230213   1.976969
H   -1.909174   -1.332145   1.575596
H   -1.996574   -1.746469   3.924239
H   -1.698943   -0.020527   3.733992
H   -0.393733   -0.956127   5.584842
H    0.691346   -0.325095   4.370043
H    1.287416   -2.460761   3.675441
H    0.905893   -4.632459   3.408245
H   -0.536569   -2.957151   6.647994
H   -1.068226   -4.489339   6.170594
O    1.979431   -1.194849   1.841952
H    2.910294   -0.956369   2.019545
