 26
Energy: -16507.64142215.7 eV PBE+vdW (tier 2 basis)
N    0.546828    0.123912   0.237803
C    0.140991    0.069406   1.640087
C    1.278316   -0.075516   2.650824
O    1.353365    0.531158   3.704666
H    1.033652   -0.733195  -0.028052
H    1.194352    0.895210   0.074991
H   -0.334953    1.027446   1.894464
C   -0.910221   -1.047780   1.829023
C   -1.429738   -1.223826   3.266065
C   -0.682562   -2.308523   4.061969
N   -1.004746   -2.304831   5.478503
C   -0.085433   -2.133819   6.500270
N   -0.343260   -2.666223   7.649264
N    1.059026   -1.414249   6.147054
H   -0.484317   -1.996473   1.460348
H   -1.728841   -0.795088   1.142525
H   -2.498131   -1.482429   3.241209
H   -1.363786   -0.274701   3.818413
H    0.403525   -2.189786   3.960430
H   -0.913435   -3.296912   3.628563
H   -1.771107   -2.895225   5.783368
H    0.333733   -2.370008   8.356228
H    1.630343   -1.157507   6.943716
H    0.948841   -0.642406   5.489905
O    2.213906   -0.986292   2.268151
H    2.863065   -1.034512   2.997172
