 26
Energy: -16507.75110615.7 eV PBE+vdW (tier 2 basis)
N   -0.151357    0.120506  -0.128425
C   -0.240934    0.116479   1.346482
C    1.166766    0.000542   1.926836
O    1.771424   -1.044468   2.107991
H    0.305550   -0.736567  -0.448605
H    0.428073    0.898745  -0.446984
H   -0.659332    1.087083   1.648288
C   -1.164370   -1.020555   1.794068
C   -1.759437   -0.929403   3.206285
C   -0.788449   -1.078155   4.379335
N    0.050713    0.111430   4.533316
C    1.250417    0.134324   5.249419
N    1.714741    1.138109   5.916754
N    1.984764   -1.043722   5.174993
H   -0.625359   -1.974976   1.681435
H   -1.991362   -1.035412   1.069799
H   -2.514506   -1.724355   3.302708
H   -2.317647    0.017412   3.314089
H   -0.135950   -1.944031   4.217138
H   -1.358892   -1.282760   5.304203
H   -0.479565    0.968224   4.664622
H    1.017545    1.883427   6.001395
H    2.897509   -0.918343   5.602340
H    2.040212   -1.453103   4.242579
O    1.743329    1.219384   2.090682
H    2.644291    1.062606   2.435242
