 26
Energy: -16507.75021015.7 eV PBE+vdW (tier 2 basis)
N    0.816191   -0.007296  -0.353668
C    0.042265    0.276723   0.865977
C    0.765824    1.135864   1.901029
O    0.249453    1.996411   2.581625
H    0.983280    0.853945  -0.875795
H    1.736632   -0.365485  -0.090572
H   -0.842945    0.862168   0.580213
C   -0.420347   -1.038652   1.543889
C   -1.759956   -1.602691   1.048164
C   -1.903122   -1.807141  -0.471473
N   -0.787986   -2.469843  -1.127710
C   -0.541555   -3.809310  -0.923345
N   -1.364066   -4.551303  -0.258308
N    0.685448   -4.214054  -1.484307
H   -0.507295   -0.873596   2.627719
H    0.380617   -1.783404   1.414881
H   -2.576280   -0.938116   1.375035
H   -1.919841   -2.570393   1.542834
H   -2.029738   -0.839292  -0.978045
H   -2.810645   -2.395662  -0.658799
H    0.027872   -1.861454  -1.215519
H   -1.086488   -5.534826  -0.298305
H    0.790343   -5.222065  -1.533939
H    0.900588   -3.775125  -2.376657
O    2.087538    0.804003   2.013534
H    2.446456    1.372457   2.721973
