 26
Energy: -16507.70302815.7 eV PBE+vdW (tier 2 basis)
N    0.059082   -0.287812   0.399558
C    0.045369   -0.228505   1.854692
C    1.473996   -0.187270   2.369214
O    2.465744   -0.036887   1.685694
H    0.899922    0.165571   0.042798
H   -0.766424    0.182234   0.024380
H   -0.398733    0.711657   2.240715
C   -0.743553   -1.421841   2.453118
C   -2.163272   -1.573106   1.892860
C   -3.256035   -0.692247   2.523113
N   -2.996243    0.738755   2.650614
C   -2.885766    1.581448   1.568723
N   -2.974247    1.132502   0.358973
N   -2.620423    2.905754   1.953130
H   -0.761077   -1.336335   3.550415
H   -0.176793   -2.333169   2.211810
H   -2.489270   -2.614066   2.045097
H   -2.146576   -1.418090   0.807375
H   -3.471937   -1.044640   3.542697
H   -4.178648   -0.812064   1.937568
H   -2.515554    1.038740   3.490002
H   -3.012071    1.901881  -0.313988
H   -2.644580    3.567720   1.185176
H   -3.149201    3.236685   2.756232
O    1.538049   -0.298890   3.728263
H    2.486661   -0.230287   3.949844
