 26
Energy: -16507.66754615.7 eV PBE+vdW (tier 2 basis)
N   -0.210065   -0.673301  -0.653321
C    0.004296   -0.172434   0.703335
C    1.463307    0.006217   1.131705
O    1.885559    0.919970   1.808211
H    0.151990   -0.014601  -1.342393
H    0.295071   -1.549949  -0.790828
H   -0.434287    0.834110   0.767921
C   -0.703028   -1.077520   1.733806
C   -2.224297   -1.067372   1.580542
C   -2.907617   -2.059876   2.517878
N   -4.350678   -2.005614   2.359102
C   -5.188631   -2.772626   3.161683
N   -4.871306   -3.504753   4.172945
N   -6.526251   -2.694915   2.756629
H   -0.422770   -0.746753   2.745540
H   -0.315752   -2.103840   1.619961
H   -2.476943   -1.302472   0.535108
H   -2.611336   -0.056288   1.782799
H   -2.667623   -1.811193   3.564073
H   -2.511568   -3.078425   2.332769
H   -4.669598   -1.909240   1.398768
H   -3.857384   -3.587121   4.274867
H   -7.130749   -3.154581   3.431670
H   -6.846177   -1.755566   2.535375
O    2.261721   -1.009039   0.686112
H    3.153912   -0.820064   1.035816
