 26
Energy: -16507.68453815.7 eV PBE+vdW (tier 2 basis)
N    0.051605    0.883185   0.192227
C    0.439530    0.191912   1.437171
C    1.968101    0.223811   1.471731
O    2.730227   -0.718290   1.398258
H    0.353598    1.857569   0.216512
H   -0.965439    0.883775   0.112123
H    0.104549    0.728747   2.350144
C   -0.139214   -1.228092   1.457212
C   -0.385931   -1.827452   2.847948
C    0.857319   -2.114054   3.707614
N    1.831474   -3.006090   3.102408
C    1.604711   -4.364430   3.052640
N    0.591827   -4.894677   3.655134
N    2.557971   -5.038077   2.270364
H    0.498879   -1.888448   0.852892
H   -1.105694   -1.187488   0.932161
H   -0.929823   -2.774776   2.728691
H   -1.047916   -1.157864   3.423132
H    0.529329   -2.575411   4.647743
H    1.382980   -1.182223   3.966590
H    2.361524   -2.601026   2.334594
H    0.628665   -5.915234   3.605152
H    2.554817   -6.043451   2.403803
H    3.498985   -4.655420   2.320891
O    2.415895    1.505165   1.581237
H    3.391441    1.457778   1.553846
