 26
Energy: -16507.71009415.7 eV PBE+vdW (tier 2 basis)
N   -0.133469    0.494230  -0.182827
C   -0.138801    0.144258   1.232348
C    1.263258    0.092007   1.860525
O    2.305888    0.135360   1.241156
H    0.569129   -0.066960  -0.669438
H    0.176144    1.459930  -0.298392
H   -0.713782    0.912227   1.772500
C   -0.833230   -1.213563   1.481355
C   -0.032231   -2.426039   0.985214
C   -0.313964   -3.716252   1.776335
N   -0.193921   -3.564183   3.218137
C    0.996703   -3.334484   3.884668
N    2.189109   -3.247915   3.399529
N    0.805513   -3.194691   5.264785
H   -1.819229   -1.173222   0.997939
H   -0.993438   -1.316628   2.562606
H    1.045085   -2.211487   1.041010
H   -0.241081   -2.629316  -0.075329
H    0.346292   -4.520110   1.402846
H   -1.344600   -4.047691   1.588520
H   -0.934885   -3.961767   3.781762
H    2.219979   -3.513670   2.412923
H    1.679083   -2.954193   5.724268
H    0.051411   -2.563924   5.524593
O    1.208071   -0.075331   3.208466
H    2.115440   -0.303980   3.495479
