 26
Energy: -16507.84165215.7 eV PBE+vdW (tier 2 basis)
N    0.582078   -0.877365   0.033097
C    0.156162   -1.081049   1.433600
C    0.995840   -2.238466   2.027990
O    2.032374   -2.592067   1.259172
H   -0.058220   -1.341106  -0.612602
H    0.600893    0.109518  -0.216409
H    0.489372   -0.192291   1.994960
C   -1.364507   -1.274944   1.657091
C   -1.998049   -0.342657   2.698176
C   -1.497106   -0.542873   4.143510
N   -1.619018   -1.889879   4.657732
C   -2.835313   -2.445844   5.011789
N   -3.979331   -1.861274   5.152709
N   -2.754011   -3.826074   5.222011
H   -1.567400   -2.318788   1.934964
H   -1.868799   -1.106798   0.694219
H   -3.086741   -0.496512   2.672322
H   -1.825028    0.709327   2.413549
H   -2.032262    0.150849   4.810135
H   -0.433596   -0.271270   4.218826
H   -0.900288   -2.523959   4.310132
H   -3.936229   -0.878271   4.876956
H   -3.589892   -4.171702   5.683627
H   -1.900896   -4.143626   5.673547
O    0.763154   -2.759224   3.101672
H    1.928313   -1.999946   0.455135
