 26
Energy: -16507.65984515.7 eV PBE+vdW (tier 2 basis)
N    0.217348    0.264875  -0.425403
C    0.243185    0.288803   1.032468
C    1.659335    0.004634   1.502333
O    2.653992    0.058203   0.809076
H    1.063263    0.695375  -0.799691
H   -0.595479    0.800903  -0.733838
H    0.028574    1.295240   1.448854
C   -0.817821   -0.695081   1.584526
C   -1.457316   -0.346700   2.935511
C   -2.568714    0.715569   2.893733
N   -2.145382    2.094537   2.690073
C   -2.153762    2.718504   1.463896
N   -2.500849    2.091092   0.387174
N   -1.703000    4.045970   1.544950
H   -0.375005   -1.700606   1.627451
H   -1.607237   -0.741346   0.822242
H   -0.688925   -0.060558   3.670724
H   -1.921938   -1.260866   3.338130
H   -3.126940    0.678550   3.842445
H   -3.274892    0.488634   2.084488
H   -1.531301    2.496487   3.388986
H   -2.590358    2.740663  -0.397382
H   -1.806156    4.566266   0.680663
H   -2.045120    4.570783   2.346077
O    1.723960   -0.277496   2.838073
H    2.673533   -0.403695   3.028665
