 26
Energy: -16507.75781915.7 eV PBE+vdW (tier 2 basis)
N   -0.229458   -0.521489  -0.250032
C    0.172330    0.021780   1.041275
C    1.652173   -0.201066   1.379842
O    2.393052   -0.969109   0.802919
H    0.336429   -0.106090  -0.991361
H   -0.013213   -1.520346  -0.280342
H    0.005784    1.110517   1.022401
C   -0.708819   -0.556720   2.174681
C   -0.484746   -2.055823   2.488557
C   -0.134965   -2.346171   3.957790
N    1.123669   -1.751699   4.404774
C    2.324028   -2.305621   3.998864
N    2.381413   -3.473839   3.470053
N    3.413510   -1.407926   4.198874
H   -1.749607   -0.381724   1.872110
H   -0.541231    0.052386   3.075163
H    0.323973   -2.476345   1.872042
H   -1.386193   -2.631383   2.235041
H   -0.050713   -3.428962   4.107606
H   -0.927672   -1.973699   4.623817
H    1.128232   -0.735882   4.415079
H    3.345419   -3.761727   3.291402
H    4.309431   -1.868264   4.059417
H    3.394010   -0.961398   5.116215
O    2.042853    0.536186   2.457294
H    2.881698    0.128482   2.785327
