 26
Energy: -16507.62810615.7 eV PBE+vdW (tier 2 basis)
N    2.194477   -0.094356   0.216273
C    0.987243    0.021231   1.024847
C    0.886900    1.350870   1.781937
O    1.809516    2.107674   2.001565
H    2.132109    0.525629  -0.591386
H    2.999167    0.237781   0.751816
H    0.116861   -0.030194   0.354074
C    0.860885   -1.156907   2.019338
C    1.994942   -1.253930   3.041255
C    1.781499   -2.415210   4.021976
N    2.858287   -2.579358   4.991920
C    2.817573   -2.151054   6.310180
N    3.517978   -2.609407   7.292895
N    1.895432   -1.130324   6.554564
H    0.829573   -2.075042   1.414019
H   -0.106454   -1.076268   2.538133
H    2.084134   -0.311424   3.606442
H    2.959182   -1.397057   2.530815
H    1.687038   -3.354010   3.454711
H    0.833391   -2.279627   4.563907
H    3.508932   -3.335420   4.823852
H    4.036248   -3.450092   7.023046
H    1.999449   -0.788289   7.505479
H    1.886323   -0.375676   5.873740
O   -0.382863    1.592075   2.215818
H   -0.348823    2.439385   2.701787
