 26
Energy: -16507.62054515.7 eV PBE+vdW (tier 2 basis)
N    0.758892    0.290957   0.242680
C    0.252946    0.142208   1.603668
C    1.281920    0.169288   2.743120
O    1.012226    0.370117   3.908618
H    1.485118   -0.398703   0.049667
H    1.197569    1.203657   0.123694
H   -0.405122    0.999425   1.810038
C   -0.617767   -1.126305   1.744741
C    0.121935   -2.445308   1.509180
C   -0.802138   -3.649222   1.678718
N   -0.084303   -4.891863   1.429969
C   -0.650081   -6.100295   1.802958
N   -1.749939   -6.136748   2.472724
N    0.097381   -7.196489   1.336239
H   -1.440456   -1.026171   1.021871
H   -1.062310   -1.125581   2.750622
H    0.967868   -2.546832   2.207132
H    0.547171   -2.456338   0.490768
H   -1.683313   -3.552244   1.017661
H   -1.194429   -3.701887   2.702411
H    0.422269   -4.926023   0.549924
H   -1.970039   -7.090935   2.768426
H   -0.198028   -8.083281   1.730666
H    1.105684   -7.077413   1.401736
O    2.557490   -0.076701   2.320150
H    3.107187   -0.058120   3.127927
