 26
Energy: -16507.70812615.7 eV PBE+vdW (tier 2 basis)
N   -0.080138    0.115139  -0.021627
C    0.158450   -0.137235   1.399855
C    1.650354   -0.227777   1.735056
O    2.463754   -0.872940   1.105918
H    0.436503   -0.571262  -0.576750
H    0.287619    1.030159  -0.285555
H   -0.271598    0.696025   1.973712
C   -0.538689   -1.445379   1.813592
C   -0.448452   -1.778723   3.303180
C   -1.215777   -3.063895   3.651039
N   -1.146792   -3.463319   5.045285
C   -0.025475   -4.090449   5.578936
N    1.016280   -4.535786   4.966049
N   -0.108477   -4.219634   6.971109
H   -0.104096   -2.266799   1.219799
H   -1.589162   -1.351014   1.499738
H   -0.853756   -0.945427   3.900263
H    0.600918   -1.895144   3.613483
H   -0.846124   -3.902230   3.040563
H   -2.278277   -2.945887   3.389132
H   -1.632134   -2.853902   5.696736
H    1.026824   -4.267045   3.979843
H    0.652827   -4.796279   7.318344
H   -1.011448   -4.540158   7.311826
O    1.980002    0.505210   2.835364
H    2.936407    0.361854   2.982660
