 26
Energy: -16507.59688015.7 eV PBE+vdW (tier 2 basis)
N    0.159530    1.226713   0.464466
C    0.090453    0.388966   1.654345
C    1.459034   -0.213549   1.906225
O    2.272592   -0.510686   1.059329
H    0.507276    0.686587  -0.329565
H   -0.762528    1.589995   0.226216
H   -0.143802    1.039836   2.508300
C   -0.940284   -0.784030   1.602814
C   -2.390391   -0.351733   1.871453
C   -2.822279   -0.500166   3.341813
N   -1.991562    0.178161   4.337540
C   -1.843295    1.561310   4.406338
N   -0.794920    2.201607   4.799654
N   -2.959399    2.283131   3.984163
H   -0.655210   -1.569416   2.322947
H   -0.851732   -1.240955   0.606281
H   -3.080444   -0.962485   1.269118
H   -2.548534    0.689631   1.549552
H   -2.819074   -1.565906   3.615051
H   -3.865094   -0.168361   3.449608
H   -1.130542   -0.307937   4.567333
H   -0.002973    1.569451   4.948302
H   -2.854856    3.266745   4.215127
H   -3.859521    1.908509   4.269551
O    1.659678   -0.451558   3.238942
H    2.533058   -0.884850   3.304090
