 26
Energy: -16507.66458515.7 eV PBE+vdW (tier 2 basis)
N    0.851219    0.584301  -0.072968
C   -0.021721    0.587886   1.098740
C    0.738743    0.841448   2.403046
O    1.790111    0.320820   2.713158
H    1.603319   -0.094298   0.065491
H    1.301101    1.493349  -0.187288
H   -0.750614    1.401383   0.972073
C   -0.757785   -0.764633   1.186186
C   -1.745438   -0.927270   2.347113
C   -2.932798    0.051367   2.340973
N   -3.761487    0.023145   1.134622
C   -4.434296   -1.121732   0.719676
N   -4.458655   -1.408882  -0.537112
N   -5.006175   -1.857667   1.762294
H    0.005937   -1.554846   1.256777
H   -1.266475   -0.912141   0.222628
H   -1.226109   -0.828744   3.314377
H   -2.140231   -1.953443   2.319512
H   -2.585991    1.086605   2.462587
H   -3.562412   -0.150086   3.219767
H   -3.342519    0.467877   0.321823
H   -5.099679   -2.182065  -0.734569
H   -5.657615   -2.570026   1.453064
H   -5.370789   -1.311082   2.537719
O    0.097400    1.737388   3.210923
H    0.646228    1.815323   4.016681
