 26
Energy: -16507.70818615.7 eV PBE+vdW (tier 2 basis)
N    0.260498   -0.330886  -0.221761
C    0.029485   -0.083153   1.201574
C    1.303123    0.342619   1.937371
O    2.399464   -0.151560   1.773449
H    1.035143   -0.991034  -0.324301
H    0.560478    0.528329  -0.684668
H   -0.704566    0.730442   1.294689
C   -0.548263   -1.352086   1.856402
C   -0.956285   -1.199561   3.322112
C   -1.628769   -2.470310   3.857413
N   -2.034288   -2.398860   5.254158
C   -1.099740   -2.567970   6.261895
N    0.116636   -2.895568   5.989052
N   -1.643211   -2.312143   7.532841
H    0.196412   -2.159384   1.760339
H   -1.412953   -1.645086   1.241394
H   -1.645583   -0.345213   3.430990
H   -0.080792   -0.987544   3.951817
H   -0.934981   -3.316749   3.772097
H   -2.522826   -2.708591   3.260636
H   -2.766576   -1.728824   5.466775
H    0.644562   -3.102682   6.839765
H   -1.031891   -2.584050   8.295388
H   -2.587444   -2.665999   7.668070
O    1.077477    1.359217   2.817931
H    1.933584    1.528915   3.259169
