 26
Energy: -16507.69803715.7 eV PBE+vdW (tier 2 basis)
N    0.868297   -0.127498   0.106473
C    0.285276    0.117572   1.419301
C    1.266048    0.751897   2.412630
O    2.420065    1.045214   2.181019
H    1.377462   -1.017214   0.109084
H    1.568360    0.588371  -0.095126
H   -0.524726    0.862713   1.313420
C   -0.347609   -1.168529   1.982521
C    0.685096   -2.233454   2.388846
C    0.271981   -3.671308   2.045855
N   -0.141353   -3.850476   0.655701
C    0.754182   -3.778231  -0.391488
N    1.979080   -3.420122  -0.191606
N    0.178233   -4.157549  -1.614672
H   -0.989274   -1.563800   1.181690
H   -0.999813   -0.915659   2.828137
H    0.876486   -2.188353   3.471027
H    1.649232   -2.046267   1.898107
H   -0.590416   -3.970930   2.658648
H    1.108186   -4.347259   2.290231
H   -0.918828   -4.481412   0.507156
H    2.489249   -3.348243  -1.074932
H    0.752573   -3.919696  -2.416651
H   -0.778901   -3.838235  -1.745642
O    0.676157    1.005117   3.618758
H    1.362777    1.435907   4.163903
