 26
Energy: -16507.87058415.7 eV PBE+vdW (tier 2 basis)
N   -2.210221    1.478331   1.740044
C   -1.351981    0.452403   2.354361
C    0.005895    0.996424   2.821416
O    0.416355    0.874830   3.968094
H   -2.396661    2.219118   2.418132
H   -1.700247    1.922700   0.972689
H   -1.865470    0.076213   3.251163
C   -1.159466   -0.694060   1.342382
C   -0.613543   -2.041311   1.853464
C    0.711328   -2.053394   2.631481
N    1.783938   -1.337354   1.925171
C    2.747347   -0.615884   2.591176
N    3.085178    0.559755   2.133804
N    3.311705   -1.226458   3.689021
H   -0.535669   -0.312067   0.517773
H   -2.148403   -0.883293   0.899932
H   -0.520803   -2.709045   0.982432
H   -1.361306   -2.510100   2.511341
H    0.995408   -3.107320   2.789612
H    0.562104   -1.592707   3.619965
H    1.497486   -0.858525   1.076328
H    3.899710    0.942606   2.615532
H    3.606040   -0.609789   4.436259
H    2.903001   -2.097129   4.007046
O    0.695285    1.565509   1.822459
H    1.716514    1.397631   1.979684
