 26
Energy: -16507.72071415.7 eV PBE+vdW (tier 2 basis)
N    0.100349   -0.011858   0.435537
C    0.358251   -0.499103   1.785614
C    1.795294   -0.987936   1.986168
O    2.522586   -1.397003   1.105438
H    0.499176   -0.669808  -0.238566
H    0.584507    0.872628   0.281202
H    0.185116    0.324861   2.494557
C   -0.604632   -1.654082   2.142370
C   -2.067322   -1.211822   2.175093
C   -3.020823   -2.381015   2.409240
N   -4.398429   -1.920749   2.446041
C   -5.438894   -2.796880   2.736758
N   -5.363130   -4.027280   3.110760
N   -6.694379   -2.199357   2.575727
H   -0.313900   -2.075501   3.116323
H   -0.467268   -2.455682   1.397467
H   -2.306127   -0.714990   1.222280
H   -2.213344   -0.464197   2.970847
H   -2.793958   -2.860053   3.375102
H   -2.864664   -3.150155   1.626746
H   -4.630105   -1.218164   1.748896
H   -4.405745   -4.380821   3.050596
H   -7.428527   -2.813287   2.916922
H   -6.769086   -1.262339   2.963061
O    2.172542   -0.939172   3.294615
H    3.077651   -1.306427   3.332342
