 26
Energy: -16507.76163915.7 eV PBE+vdW (tier 2 basis)
N    0.096875    1.211544   0.452469
C    0.092210    0.643273   1.798297
C    1.429959    0.080144   2.280148
O    1.868586    0.166127   3.415156
H    0.409252    0.520918  -0.231266
H    0.737381    2.002910   0.394455
H   -0.151888    1.453031   2.496207
C   -1.002222   -0.450020   1.875819
C   -1.091855   -1.290486   3.158317
C   -1.632494   -0.584961   4.409741
N   -0.806169    0.516812   4.886413
C   -1.250551    1.819702   4.780741
N   -2.477627    2.092535   4.484528
N   -0.220689    2.755193   4.969448
H   -0.835995   -1.131065   1.025261
H   -1.955860    0.063299   1.689411
H   -0.114697   -1.750177   3.384275
H   -1.766491   -2.136659   2.954676
H   -1.742449   -1.332193   5.212402
H   -2.626711   -0.161333   4.215679
H    0.197759    0.396266   4.758858
H   -2.643105    3.100921   4.491094
H   -0.548021    3.679167   5.228927
H    0.547767    2.445458   5.559066
O    2.110573   -0.577035   1.301624
H    2.923248   -0.918694   1.722640
