 26
Energy: -16507.54962115.7 eV PBE+vdW (tier 2 basis)
N   -1.100754    0.009699  -0.300844
C   -0.410854    0.097531   0.979140
C    1.063086    0.425435   0.722797
O    1.522529    0.715220  -0.356433
H   -2.035636    0.407039  -0.249041
H   -0.566932    0.513608  -1.010398
H   -0.758882    0.958683   1.590474
C   -0.651817   -1.171501   1.842122
C   -0.411040   -2.522487   1.164192
C    1.030543   -2.844866   0.733423
N    2.061523   -2.691472   1.749868
C    2.133308   -3.489396   2.866130
N    1.298252   -4.457758   3.046890
N    3.153829   -3.081895   3.749617
H   -1.703961   -1.134653   2.162853
H   -0.077176   -1.113960   2.784935
H   -1.039291   -2.580214   0.264255
H   -0.742693   -3.308763   1.854537
H    1.331113   -2.216492  -0.116062
H    1.049187   -3.886702   0.383180
H    2.539653   -1.799755   1.791112
H    1.546857   -5.007968   3.871909
H    3.341099   -3.762596   4.478572
H    4.015927   -2.790726   3.293362
O    1.874708    0.426070   1.824474
H    1.357877    0.139985   2.600860
