 26
Energy: -16507.66932515.7 eV PBE+vdW (tier 2 basis)
N   -0.514241    0.178428  -0.010644
C   -0.348302    0.256743   1.445128
C    1.116783    0.233739   1.894343
O    1.700917    1.152062   2.431507
H   -0.090388   -0.679776  -0.367464
H   -0.039639    0.957557  -0.468135
H   -0.733252    1.233174   1.772179
C   -1.133024   -0.872561   2.125726
C   -0.998695   -0.880486   3.653544
C   -1.175318   -2.274065   4.279675
N   -0.286911   -3.279531   3.718692
C    1.080100   -3.311413   3.939615
N    1.795692   -2.526636   4.670800
N    1.696080   -4.366382   3.255007
H   -0.757779   -1.829285   1.731586
H   -2.184740   -0.786082   1.817575
H   -1.732490   -0.201336   4.112556
H   -0.012847   -0.490868   3.946248
H   -2.199402   -2.632513   4.105359
H   -1.052615   -2.199260   5.375567
H   -0.703467   -4.166098   3.462851
H    1.217482   -1.897449   5.232230
H    2.704859   -4.324844   3.368197
H    1.424436   -4.449465   2.278623
O    1.716324   -0.959884   1.615168
H    2.598739   -0.927244   2.033531
