 26
Energy: -16507.75535315.7 eV PBE+vdW (tier 2 basis)
N    0.014247   -0.110893   0.009280
C   -0.310018    0.022836   1.442715
C    0.994296    0.198569   2.218078
O    1.754920   -0.694057   2.554713
H    0.524423    0.708039  -0.325114
H    0.619669   -0.921723  -0.136262
H   -0.903169    0.941313   1.558281
C   -1.127319   -1.186438   1.906211
C   -1.859790   -1.037568   3.245407
C   -0.977514   -0.899473   4.499842
N    0.006912   -1.950308   4.680680
C   -0.349756   -3.186849   5.167581
N   -1.555418   -3.413388   5.575039
N    0.724692   -4.086233   5.249660
H   -0.471524   -2.071753   1.932268
H   -1.865717   -1.372221   1.113635
H   -2.500601   -1.918709   3.387129
H   -2.532307   -0.164587   3.205027
H   -1.627849   -0.904549   5.384074
H   -0.439170    0.061107   4.499488
H    0.835150   -1.886489   4.096557
H   -1.626115   -4.336959   6.007583
H    0.452044   -5.060269   5.184625
H    1.535997   -3.876198   4.675097
O    1.288741    1.511569   2.424656
H    2.167120    1.531682   2.853945
