 26
Energy: -16507.85158515.7 eV PBE+vdW (tier 2 basis)
N   -1.233718    0.273532   0.739106
C   -0.223970   -0.097422   1.754168
C    1.048952   -0.612637   1.033258
O    0.949264   -0.548234  -0.303294
H    0.020535   -0.168678  -0.423865
H   -2.056992   -0.345286   0.774763
H    0.097754    0.805277   2.295994
C   -0.726316   -1.127345   2.775838
C   -1.142241   -2.453483   2.120346
C   -2.284165   -3.186301   2.832682
N   -3.438687   -2.351933   3.186026
C   -4.245747   -1.732356   2.257678
N   -3.854126   -1.549322   1.036478
N   -5.496086   -1.365864   2.773211
H   -1.584425   -0.686104   3.303896
H    0.062110   -1.296137   3.521641
H   -0.282814   -3.137969   2.079406
H   -1.454242   -2.289846   1.082428
H   -1.924060   -3.599216   3.785786
H   -2.603006   -4.035122   2.203962
H   -3.919842   -2.654097   4.024069
H   -4.575964   -1.069165   0.493892
H   -5.970835   -0.651557   2.231870
H   -5.525635   -1.160141   3.768185
O    2.028159   -1.021939   1.621390
H   -1.558901    1.228341   0.870087
