 26
Energy: -16507.66884115.7 eV PBE+vdW (tier 2 basis)
N   -0.139179   -0.418624  -0.179237
C   -0.055750   -0.091635   1.249439
C    1.375802    0.107871   1.726787
O    1.701033    0.214989   2.890665
H    0.399628    0.239091  -0.741152
H   -1.113506   -0.366300  -0.481193
H   -0.527346    0.887219   1.480776
C   -0.803642   -1.136688   2.109799
C   -0.111870   -2.479240   2.407618
C    0.443330   -3.273608   1.210053
N   -0.436238   -3.377326   0.044167
C   -1.740777   -3.831925   0.137190
N   -2.679961   -3.185193  -0.475105
N   -1.898852   -4.967628   0.937765
H   -1.766589   -1.317669   1.608977
H   -1.041025   -0.666968   3.073782
H   -0.849100   -3.104243   2.933031
H    0.714273   -2.319385   3.117644
H    0.738478   -4.274914   1.560151
H    1.364191   -2.805189   0.836388
H   -0.407785   -2.503973  -0.487591
H   -3.563627   -3.702081  -0.453487
H   -2.801089   -5.420732   0.848572
H   -1.126279   -5.627396   0.915181
O    2.274054    0.207487   0.705080
H    3.136985    0.375862   1.131484
