 26
Energy: -16507.78133815.7 eV PBE+vdW (tier 2 basis)
N   -0.043869   -1.155762   0.441298
C   -0.331601   -0.119730   1.452368
C    0.821944    0.910386   1.440961
O    0.750351    2.002362   1.963327
H   -0.349530   -2.077877   0.749844
H   -0.500822   -0.956555  -0.447300
H   -1.256181    0.438337   1.234139
C   -0.452135   -0.772595   2.843180
C   -0.854569    0.179171   3.970918
C   -0.881826   -0.476507   5.359943
N    0.398773   -0.984307   5.820678
C    0.806619   -2.303233   5.672666
N    0.133247   -3.319443   5.251145
N    2.146208   -2.482670   6.035920
H    0.503475   -1.264404   3.083106
H   -1.202699   -1.577263   2.760174
H   -1.854399    0.597023   3.769441
H   -0.171576    1.040941   3.989295
H   -1.601587   -1.307726   5.388504
H   -1.245667    0.261608   6.090950
H    1.154092   -0.305870   5.839382
H   -0.788496   -3.048422   4.903438
H    2.378611   -3.471237   6.063664
H    2.426498   -2.001621   6.886555
O    1.926652    0.460203   0.820131
H    1.638487   -0.427808   0.458273
