 26
Energy: -16507.84717015.7 eV PBE+vdW (tier 2 basis)
N    0.564480   -0.135641   0.165184
C    0.396013    0.317558   1.560921
C    1.797334    0.481327   2.199776
O    2.797969    0.381779   1.313917
H    2.315558    0.180143   0.456388
H    0.375275   -1.134890   0.079251
H    0.005911    1.347482   1.527931
C   -0.574623   -0.508398   2.424365
C   -0.317597   -2.019915   2.510615
C    0.968436   -2.453244   3.242649
N    1.131262   -1.912359   4.588796
C    0.211810   -2.141726   5.607624
N   -0.125887   -1.317627   6.540394
N   -0.380383   -3.409217   5.576106
H   -1.588188   -0.349722   2.026786
H   -0.574051   -0.078546   3.435735
H   -0.315097   -2.482160   1.506788
H   -1.174352   -2.470615   3.031927
H    1.864768   -2.157137   2.678709
H    0.994257   -3.552494   3.272918
H    1.492566   -0.959240   4.588859
H    0.275565   -0.390558   6.372663
H   -0.904855   -3.570571   6.431350
H    0.257823   -4.173035   5.369135
O    1.974823    0.714539   3.379568
H   -0.067571    0.348928  -0.468593
