 26
Energy: -16507.81849515.7 eV PBE+vdW (tier 2 basis)
N    0.038132    0.686626  -0.060175
C    0.032471    0.295581   1.360877
C    1.406027   -0.343212   1.696165
O    1.702518   -0.781824   2.785776
H    1.669797    0.126324  -0.062466
H   -0.518622    0.027808  -0.624667
H   -0.024260    1.207689   1.973349
C   -1.104898   -0.641756   1.818847
C   -1.053260   -2.102357   1.328037
C   -1.749112   -2.435689   0.003772
N   -1.251502   -1.740930  -1.202568
C   -0.251976   -2.314900  -2.012069
N   -0.447721   -2.316437  -3.284905
N    0.828494   -2.839029  -1.316263
H   -2.067783   -0.179315   1.549158
H   -1.063066   -0.657138   2.916055
H   -1.548441   -2.730043   2.084735
H   -0.013454   -2.461826   1.319725
H   -2.809975   -2.160467   0.091061
H   -1.713390   -3.527283  -0.144982
H   -2.008121   -1.482303  -1.833024
H    0.384779   -2.624076  -3.795019
H    1.596971   -3.143525  -1.903058
H    1.149024   -2.331727  -0.495234
O    2.223573   -0.378910   0.625173
H   -0.309713    1.631489  -0.201333
