 26
Energy: -16507.78274415.7 eV PBE+vdW (tier 2 basis)
N   -1.023719   -0.544249  -0.389103
C   -1.457988   -0.043419   0.931621
C   -0.392621    0.941335   1.439939
O    0.810255    0.771217   0.874030
H   -1.346759   -1.498712  -0.544909
H   -1.393447    0.029341  -1.146908
H   -2.406173    0.510145   0.883508
C   -1.640899   -1.253619   1.874870
C   -1.722572   -1.034066   3.392229
C   -2.743491    0.007330   3.901008
N   -3.935356    0.120837   3.077219
C   -4.509951    1.323847   2.681696
N   -5.771311    1.316040   2.391908
N   -3.653099    2.413948   2.650991
H   -0.805168   -1.947556   1.685579
H   -2.559090   -1.757904   1.537231
H   -0.734949   -0.755612   3.789554
H   -1.952931   -2.018485   3.827973
H   -2.260568    0.986401   3.941523
H   -3.009406   -0.241200   4.942993
H   -4.660615   -0.576823   3.212103
H   -6.072687    2.221673   2.025047
H   -4.020792    3.234528   2.188115
H   -2.648900    2.271343   2.529408
O   -0.610906    1.793535   2.281911
H    0.630216    0.089054   0.163340
