 26
Energy: -16507.68565615.7 eV PBE+vdW (tier 2 basis)
N   -0.152172   -0.369744   0.104684
C   -0.080747   -0.594100   1.552734
C    0.920020   -1.664292   1.977527
O    1.742216   -1.527852   2.870860
H    0.764760   -0.107822  -0.259656
H   -0.415217   -1.236888  -0.367661
H    0.252700    0.340500   2.026587
C   -1.489894   -0.957905   2.069111
C   -1.717695   -0.973738   3.588649
C   -1.055024   -2.101716   4.401118
N   -1.363134   -3.423453   3.873017
C   -0.564875   -4.551323   3.911921
N   -1.140264   -5.705743   3.936053
N    0.824464   -4.339603   3.785697
H   -1.771697   -1.934889   1.647182
H   -2.163994   -0.212624   1.623119
H   -2.806131   -1.026373   3.752676
H   -1.397817   -0.016702   4.030802
H   -1.383834   -2.008375   5.452605
H    0.029209   -1.954456   4.409070
H   -2.339303   -3.701864   3.929178
H   -0.464656   -6.465556   3.825782
H    1.191769   -3.444693   4.107675
H    1.367877   -5.112232   4.156630
O    0.751794   -2.821444   1.298506
H    1.158898   -3.535111   1.847673
