 26
Energy: -16507.76544215.7 eV PBE+vdW (tier 2 basis)
N   -0.848156    1.084640   1.258757
C   -0.508072    0.137941   2.321525
C    0.994787    0.085121   2.589572
O    1.862422    0.126112   1.739035
H   -0.216395    0.946282   0.466243
H   -0.697541    2.040750   1.581779
H   -1.030274    0.444367   3.239108
C   -1.017669   -1.263870   1.923205
C   -0.752130   -2.399040   2.918006
C   -1.422177   -2.261836   4.294366
N   -2.877315   -2.237229   4.254828
C   -3.596511   -1.062574   4.347119
N   -3.014017    0.068295   4.564229
N   -4.971554   -1.270098   4.145912
H   -0.566070   -1.528754   0.953837
H   -2.096340   -1.149278   1.745321
H    0.330185   -2.520655   3.085422
H   -1.081981   -3.344145   2.454770
H   -1.109405   -1.339250   4.796677
H   -1.103168   -3.104225   4.927960
H   -3.325935   -2.975752   3.723438
H   -3.697570    0.813685   4.708996
H   -5.539653   -0.458892   4.364873
H   -5.343124   -2.112937   4.577616
O    1.286708   -0.025079   3.918889
H    2.261972   -0.072578   3.974587
