 26
Energy: -16507.69680415.7 eV PBE+vdW (tier 2 basis)
N    0.402983    0.209357   0.215094
C    0.228909   -0.211605   1.620778
C    1.576387   -0.751911   2.142486
O    2.446077   -1.037893   1.145932
H   -0.426255    0.016801  -0.345354
H    0.596152    1.207381   0.145217
H   -0.044210    0.628994   2.276208
C   -0.863665   -1.291668   1.759349
C   -0.609887   -2.610108   1.001676
C    0.133373   -3.683875   1.824774
N    0.422640   -4.902103   1.088191
C    1.469485   -5.053374   0.175229
N    1.529409   -5.956642  -0.748647
N    2.559946   -4.226634   0.368292
H   -1.807403   -0.837675   1.419379
H   -0.994475   -1.495675   2.832296
H   -0.059156   -2.428728   0.065521
H   -1.578324   -3.033402   0.694969
H   -0.481290   -3.953381   2.697696
H    1.069445   -3.298843   2.248440
H   -0.393070   -5.444543   0.825320
H    0.704110   -6.561119  -0.731894
H    3.242894   -4.307936  -0.374882
H    2.451969   -3.294151   0.750440
O    1.814994   -0.947981   3.311463
H    1.965565   -0.700100   0.331284
