 26
Energy: -16507.64385115.7 eV PBE+vdW (tier 2 basis)
N   -0.471750    0.636838   0.935752
C    0.374510   -0.131388   1.842031
C    1.631360   -0.535331   1.090056
O    1.706334   -0.684289  -0.111709
H   -1.450521    0.582955   1.213472
H   -0.389790    0.249145  -0.006577
H    0.695536    0.512948   2.676663
C   -0.258053   -1.424101   2.434768
C   -1.529954   -1.190201   3.257119
C   -1.317615   -0.335133   4.518310
N   -2.473648   -0.249674   5.393177
C   -2.836766   -1.294196   6.237095
N   -2.187109   -2.374460   6.503424
N   -4.081150   -1.076588   6.839938
H    0.493459   -1.924632   3.065880
H   -0.483857   -2.107923   1.601961
H   -1.935057   -2.168435   3.555037
H   -2.315439   -0.727366   2.635777
H   -1.036917    0.692572   4.246242
H   -0.474910   -0.731752   5.105988
H   -3.255628    0.287662   5.031428
H   -1.361504   -2.481849   5.910450
H   -4.258841   -1.780470   7.550958
H   -4.219915   -0.134516   7.196670
O    2.675703   -0.760286   1.931793
H    3.415209   -1.064168   1.370196
