 26
Energy: -16507.71228915.7 eV PBE+vdW (tier 2 basis)
N    0.156744    0.569388   1.153257
C   -0.050210   -0.557794   2.047995
C    1.254644   -1.250470   2.467794
O    2.353086   -1.029978   2.004699
H    0.425644    0.229090   0.223986
H    0.932009    1.142298   1.487829
H   -0.501007   -0.184378   2.985510
C   -1.022969   -1.597236   1.452428
C   -2.426160   -1.055794   1.136721
C   -2.588606   -0.329695  -0.209578
N   -2.359004   -1.179384  -1.378897
C   -1.131987   -1.388196  -1.995063
N   -0.743388   -2.458737  -2.601760
N   -0.255325   -0.296402  -1.941844
H   -1.112035   -2.417419   2.176187
H   -0.570913   -2.037024   0.548836
H   -2.748148   -0.369379   1.936850
H   -3.137114   -1.898474   1.157781
H   -1.907149    0.526379  -0.246885
H   -3.611521    0.071233  -0.278002
H   -2.951614   -2.003095  -1.420308
H   -1.401165   -3.229859  -2.456231
H    0.534034   -0.464095  -2.560344
H   -0.689939    0.607145  -2.113848
O    1.048862   -2.154676   3.470616
H    1.925500   -2.536486   3.670786
