 26
Energy: -16507.80551115.7 eV PBE+vdW (tier 2 basis)
N   -0.236738   -0.039087  -0.227149
C   -0.130129   -0.064601   1.245829
C    1.363488    0.026118   1.651621
O    2.180906    0.261638   0.611771
H    1.550981    0.291558  -0.166896
H   -0.424593   -0.967999  -0.605798
H   -0.578693    0.864759   1.629502
C   -0.820613   -1.249944   1.939350
C   -0.242064   -2.616543   1.563749
C   -1.013976   -3.797919   2.179316
N   -2.413383   -3.904615   1.796199
C   -2.807515   -4.264016   0.514415
N   -2.083977   -4.726658  -0.447033
N   -4.177789   -4.063070   0.300665
H   -1.892021   -1.207280   1.687956
H   -0.731402   -1.101384   3.025409
H    0.803725   -2.680298   1.900641
H   -0.226737   -2.744327   0.469340
H   -0.983942   -3.727526   3.276256
H   -0.512117   -4.742107   1.920132
H   -3.048434   -3.273112   2.272159
H   -1.090334   -4.731377  -0.208431
H   -4.459938   -4.480033  -0.582343
H   -4.773599   -4.370011   1.065689
O    1.747195   -0.084433   2.795740
H   -0.987539    0.572237  -0.540310
