 26
Energy: -16507.72729515.7 eV PBE+vdW (tier 2 basis)
N    1.041709   -0.794888  -0.810135
C    0.343855    0.055178   0.148261
C    1.264272    0.618314   1.232241
O    2.284465    0.091620   1.627378
H    1.664523   -1.427795  -0.302511
H    1.643310   -0.230686  -1.410376
H   -0.098051    0.905475  -0.392437
C   -0.801664   -0.722719   0.836273
C   -1.915078   -1.111784  -0.136192
C   -2.978511   -2.033899   0.474973
N   -3.695529   -1.500482   1.627832
C   -4.677887   -0.541207   1.471405
N   -5.052385   -0.159302   0.298005
N   -5.146740   -0.058898   2.707563
H   -1.205972   -0.102489   1.650742
H   -0.365291   -1.622723   1.304358
H   -1.470745   -1.625245  -1.001172
H   -2.412926   -0.207934  -0.516749
H   -2.519561   -2.983413   0.791327
H   -3.731087   -2.265874  -0.288889
H   -3.173216   -1.439789   2.494720
H   -5.866236    0.457244   0.353620
H   -5.271113   -0.774775   3.419876
H   -5.972309    0.524784   2.623148
O    0.794612    1.790533   1.745997
H    1.418902    2.046339   2.453279
