 26
Energy: -16507.78521515.7 eV PBE+vdW (tier 2 basis)
N   -0.382172   -1.464231   0.102363
C   -0.754814   -0.787008   1.359426
C    0.287634   -1.131967   2.421108
O    0.329007   -2.157176   3.080085
H   -0.355541   -2.475856   0.247608
H    0.550768   -1.179850  -0.200036
H   -0.708062    0.295551   1.172828
C   -2.177805   -1.184794   1.760812
C   -2.850634   -0.313552   2.828742
C   -2.242833   -0.363874   4.242558
N   -2.116953   -1.692849   4.817792
C   -3.222518   -2.355947   5.306526
N   -4.370296   -1.768586   5.385734
N   -2.938812   -3.689089   5.648348
H   -2.178812   -2.239866   2.079006
H   -2.773322   -1.141283   0.838092
H   -3.902301   -0.620515   2.910289
H   -2.856375    0.738916   2.499310
H   -2.879887    0.225183   4.914646
H   -1.243088    0.096643   4.259765
H   -1.380412   -2.270770   4.420143
H   -5.054091   -2.360946   5.862050
H   -3.659473   -4.124645   6.213652
H   -2.012094   -3.842004   6.038746
O    1.264808   -0.185673   2.498490
H    1.922345   -0.523892   3.138320
