 26
Energy: -16507.74915115.7 eV PBE+vdW (tier 2 basis)
N   -0.050370   -0.451509  -0.377833
C   -0.046955   -0.048766   1.037903
C    1.381950    0.162856   1.522314
O    2.381111   -0.118548   0.891010
H   -0.479753    0.271896  -0.950662
H    0.919374   -0.541718  -0.693125
H   -0.559542    0.919069   1.157812
C   -0.795021   -1.053744   1.955336
C   -0.099271   -2.388708   2.260978
C    0.287277   -3.254408   1.045320
N   -0.751726   -3.398094   0.026980
C   -1.975008   -4.005723   0.283431
N   -3.119008   -3.676611  -0.219176
N   -1.917505   -5.078524   1.176966
H   -1.768676   -1.240324   1.480006
H   -1.006336   -0.550638   2.909639
H   -0.779244   -2.969592   2.901350
H    0.810154   -2.214273   2.860210
H    0.603488   -4.244356   1.403647
H    1.163204   -2.830309   0.536094
H   -0.843975   -2.531097  -0.507185
H   -3.042631   -2.805548  -0.752195
H   -2.795509   -5.589286   1.174542
H   -1.113207   -5.689363   1.065868
O    1.424390    0.688809   2.773302
H    2.370329    0.760841   3.007420
