 26
Energy: -16507.74132515.7 eV PBE+vdW (tier 2 basis)
N    0.686390    0.790243   1.290548
C    1.383947    0.161305   2.406533
C    1.752857   -1.291515   2.122034
O    2.588065   -1.892885   2.772412
H   -0.074632    0.203903   0.950924
H    0.298256    1.692588   1.563880
H    2.351171    0.671888   2.534478
C    0.691299    0.231153   3.807104
C   -0.788582   -0.168629   3.921765
C   -1.192218   -1.605811   3.547211
N   -0.387406   -2.625641   4.191876
C    0.183517   -3.698179   3.548954
N   -0.108404   -4.153306   2.364534
N    1.179277   -4.319298   4.296522
H    0.768353    1.276586   4.144881
H    1.306513   -0.356224   4.504517
H   -1.407661    0.503654   3.306530
H   -1.096459    0.027312   4.961907
H   -1.090250   -1.750364   2.464617
H   -2.263118   -1.737154   3.781318
H   -0.186393   -2.527428   5.180405
H   -0.988935   -3.755043   2.026245
H    1.902664   -3.679563   4.619463
H    1.582535   -5.089258   3.769412
O    1.006079   -1.857511   1.152056
H    1.012137   -2.843821   1.302873
