 26
Energy: -16507.53812015.7 eV PBE+vdW (tier 2 basis)
N   -0.913819   -0.114922  -0.361930
C   -0.506560    0.258864   0.989946
C    0.925679    0.772217   1.143817
O    1.345048    1.372529   2.111405
H   -0.105505   -0.294983  -0.952771
H   -1.483354    0.617639  -0.790194
H   -1.123964    1.104230   1.330503
C   -0.698558   -0.918994   1.986054
C   -2.129308   -1.149030   2.498830
C   -3.247083   -1.359118   1.467651
N   -3.763433   -0.085281   0.955961
C   -4.015026    0.167123  -0.376106
N   -3.720254    1.333359  -0.860893
N   -4.540500   -0.916875  -1.071690
H   -0.058217   -0.755196   2.865348
H   -0.333749   -1.826059   1.480334
H   -2.418665   -0.317100   3.164741
H   -2.102906   -2.038288   3.146936
H   -4.062380   -1.924671   1.950901
H   -2.876245   -1.957696   0.623494
H   -3.411656    0.748005   1.415585
H   -4.107646    1.456929  -1.799740
H   -4.851767   -0.713751  -2.013591
H   -5.169997   -1.526239  -0.558764
O    1.725661    0.451172   0.084720
H    2.609552    0.802205   0.307099
