 26
Energy: -16507.64399815.7 eV PBE+vdW (tier 2 basis)
N    0.483648   -0.050087   0.903649
C    0.056597   -0.453709   2.249305
C    1.147063   -1.059424   3.132694
O    1.188208   -0.971292   4.341358
H    0.897295   -0.850304   0.421011
H    1.222094    0.652932   0.970037
H   -0.281124    0.447807   2.776536
C   -1.125227   -1.459673   2.170319
C   -2.533422   -0.871761   2.331589
C   -2.971836    0.195227   1.321348
N   -2.452108    1.530729   1.634090
C   -2.094751    2.458319   0.646968
N   -2.264797    3.737675   0.711014
N   -1.481039    1.887620  -0.457802
H   -0.998037   -2.226635   2.948024
H   -1.047017   -1.986797   1.205974
H   -2.643896   -0.468792   3.351785
H   -3.245353   -1.709721   2.265758
H   -2.637328   -0.067239   0.311105
H   -4.076232    0.217042   1.286068
H   -2.937254    1.981241   2.404505
H   -2.849528    3.994011   1.511910
H   -1.115997    2.602735  -1.078670
H   -0.808067    1.148021  -0.222083
O    2.074266   -1.762317   2.415085
H    2.692329   -2.135712   3.073125
