 26
Energy: -16507.70144915.7 eV PBE+vdW (tier 2 basis)
N   -0.265998    0.412211   0.208941
C   -0.000328    0.206784   1.626278
C    1.478534   -0.034600   1.941079
O    2.287617   -0.526343   1.181706
H    0.168523   -0.339647  -0.330642
H    0.167971    1.277773  -0.112009
H   -0.313562    1.108922   2.173800
C   -0.810757   -0.992738   2.167561
C   -2.323237   -0.778207   2.102302
C   -3.136413   -1.970689   2.627056
N   -3.003123   -3.204497   1.862441
C   -3.692049   -3.374564   0.674687
N   -4.555447   -2.503877   0.278341
N   -3.303602   -4.548195   0.002903
H   -0.500249   -1.189438   3.206213
H   -0.521821   -1.878802   1.576670
H   -2.628497   -0.557343   1.071861
H   -2.590760    0.103302   2.708172
H   -4.201444   -1.709088   2.616246
H   -2.856100   -2.197347   3.667998
H   -2.097773   -3.659886   1.897156
H   -5.057262   -2.831542  -0.549970
H   -3.907149   -4.781366  -0.778575
H   -3.155794   -5.352377   0.608573
O    1.799472    0.347409   3.211315
H    2.742215    0.119360   3.332350
