 26
Energy: -16507.63804115.7 eV PBE+vdW (tier 2 basis)
N   -1.278385    0.482480   0.372269
C   -0.625324    0.238613   1.667734
C    0.632985    1.104266   1.789358
O    1.768425    0.764415   1.508394
H   -0.635875    0.267472  -0.392784
H   -1.548469    1.461878   0.277123
H   -1.329495    0.552330   2.453203
C   -0.283755   -1.240782   1.818133
C    0.300715   -1.605994   3.196295
C    1.368831   -2.697280   3.137512
N    2.511324   -2.241538   2.353137
C    3.767947   -2.816872   2.386005
N    4.878772   -2.267885   2.020817
N    3.793597   -4.118931   2.894737
H    0.434963   -1.505924   1.027709
H   -1.197285   -1.815654   1.617500
H   -0.502354   -1.932108   3.871997
H    0.753055   -0.719679   3.670377
H    0.927168   -3.608444   2.690672
H    1.681400   -2.963646   4.160563
H    2.493638   -1.266737   2.062515
H    4.742224   -1.279538   1.791882
H    4.703824   -4.540585   2.735372
H    3.029620   -4.722222   2.603783
O    0.332889    2.371415   2.185557
H    1.171752    2.873079   2.162403
