 26
Energy: -16507.65179815.7 eV PBE+vdW (tier 2 basis)
N   -0.670977   -0.317804   0.038867
C    0.000364   -0.625576   1.319699
C    1.512528   -0.837822   1.040505
O    2.298183   -1.263772   1.859180
H   -1.398502    0.385250   0.153999
H    1.007597   -0.188528  -0.616993
H   -0.050241    0.282287   1.943079
C   -0.632863   -1.794372   2.097618
C   -0.224330   -1.881726   3.573788
C   -0.844811   -3.064465   4.315731
N   -2.292990   -2.909297   4.451835
C   -3.118744   -3.926959   4.910928
N   -4.303453   -4.034729   4.410281
N   -2.533432   -4.754277   5.870284
H   -0.384536   -2.741660   1.590329
H   -1.724820   -1.670922   2.009467
H   -0.500340   -0.947241   4.089934
H    0.867672   -1.966952   3.631486
H   -0.386483   -3.114894   5.315588
H   -0.582872   -4.007476   3.799368
H   -2.749957   -2.451433   3.668071
H   -4.859636   -4.735669   4.906288
H   -3.189775   -5.344064   6.368525
H   -1.851417   -4.320398   6.485457
O    1.873545   -0.474328  -0.202258
H   -1.114709   -1.151171  -0.350058
