 26
Energy: -16507.69271215.7 eV PBE+vdW (tier 2 basis)
N    0.643861   -0.405937   0.233643
C    0.034075    0.314755   1.351577
C    1.044523    0.668693   2.442623
O    2.014614   -0.001528   2.731636
H    1.368072    0.172687  -0.195603
H    1.135944   -1.224910   0.600282
H   -0.398175    1.249254   0.962813
C   -1.107933   -0.548179   1.949031
C   -2.217057    0.194558   2.731401
C   -2.318794   -0.092124   4.238510
N   -1.285213    0.534653   5.055687
C   -0.126901   -0.139052   5.390275
N    0.006480   -1.402166   5.196351
N    0.858692    0.749887   5.900593
H   -0.667945   -1.337655   2.576120
H   -1.552658   -1.045830   1.076853
H   -3.190811   -0.077656   2.296832
H   -2.127580    1.283071   2.579521
H   -2.264229   -1.170378   4.432531
H   -3.296180    0.262068   4.600923
H   -1.138368    1.518467   4.852529
H    0.895701   -1.747076   5.561989
H    1.665647    0.254409   6.269606
H    0.491494    1.397230   6.597537
O    0.726155    1.820650   3.098825
H    1.265563    1.811315   3.923556
