 26
Energy: -16507.71913715.7 eV PBE+vdW (tier 2 basis)
N    0.954545    0.788980   0.734080
C    0.227221    0.273728   1.907920
C    1.328356   -0.133463   2.883853
O    2.012255   -1.136096   2.780433
H    1.411548    0.014484   0.248540
H    0.294420    1.205876   0.077345
H   -0.312503    1.121569   2.353705
C   -0.756114   -0.874291   1.611232
C   -1.687305   -1.308418   2.751114
C   -1.020855   -2.015558   3.947477
N   -0.163726   -3.140268   3.610198
C   -0.704181   -4.344641   3.211852
N   -1.979742   -4.545300   3.247346
N    0.273368   -5.245368   2.757385
H   -0.183848   -1.739704   1.239794
H   -1.376514   -0.537015   0.766283
H   -2.438445   -1.995713   2.338661
H   -2.238330   -0.434839   3.137938
H   -1.811761   -2.391568   4.609135
H   -0.416359   -1.310640   4.536791
H    0.740095   -2.897078   3.212738
H   -2.205311   -5.516545   3.021197
H   -0.061270   -6.199066   2.673338
H    1.160224   -5.200961   3.253435
O    1.499952    0.766609   3.881480
H    2.253050    0.443655   4.415473
