 26
Energy: -16507.52460015.7 eV PBE+vdW (tier 2 basis)
N   -0.167955   -0.177137  -0.143763
C    0.090946   -0.138701   1.296817
C    1.585346   -0.164016   1.606748
O    2.075477   -0.549936   2.646553
H   -1.142600    0.060077  -0.327405
H    0.411119    0.500449  -0.637134
H   -0.238888    0.812636   1.772098
C   -0.645321   -1.274135   2.025879
C   -0.274497   -2.678689   1.546448
C   -1.049038   -3.761962   2.293885
N   -0.675166   -5.082280   1.812731
C   -1.315244   -6.268253   2.135537
N   -0.953622   -7.456313   1.779870
N   -2.506995   -6.111683   2.845362
H   -1.726944   -1.108991   1.890957
H   -0.444227   -1.173471   3.101782
H    0.805436   -2.839849   1.698998
H   -0.463281   -2.768731   0.468105
H   -2.128990   -3.624937   2.128074
H   -0.868140   -3.648547   3.382870
H    0.286530   -5.191616   1.513939
H   -0.145607   -7.426701   1.152145
H   -2.865630   -7.017079   3.133617
H   -2.494328   -5.435940   3.603334
O    2.332152    0.370294   0.599767
H    3.256722    0.352771   0.914719
