 26
Energy: -16507.71944715.7 eV PBE+vdW (tier 2 basis)
N    0.052147    0.251424   0.249225
C    0.352301    0.232536   1.676061
C    1.848543    0.157973   1.963093
O    2.703031   -0.184495   1.170882
H    0.779228   -0.257274  -0.258628
H    0.068555    1.211984  -0.090430
H   -0.014577    1.174693   2.107861
C   -0.342247   -0.971893   2.369910
C   -1.873397   -0.951201   2.275562
C   -2.595793   -0.128620   3.354645
N   -2.302354    1.308253   3.388181
C   -2.523892    2.140130   2.298970
N   -1.622256    3.013918   1.989384
N   -3.721418    1.900546   1.631281
H   -0.020150   -1.024211   3.422058
H    0.034133   -1.885185   1.883069
H   -2.249059   -1.983334   2.358549
H   -2.161408   -0.597213   1.274789
H   -2.345041   -0.513299   4.354383
H   -3.681259   -0.272002   3.244483
H   -1.413722    1.547165   3.819437
H   -1.959785    3.666427   1.276771
H   -3.970953    2.596896   0.939504
H   -4.505912    1.604909   2.204162
O    2.139949    0.498802   3.251555
H    3.106651    0.392271   3.346342
