 26
Energy: -16507.83257115.7 eV PBE+vdW (tier 2 basis)
N    0.008050    0.285388   0.028586
C   -0.136263    0.219063   1.483475
C    1.251326    0.514736   2.085158
O    2.249893   -0.007797   1.625727
H   -0.735143   -0.241556  -0.431186
H    0.898563   -0.153149  -0.220369
H   -0.829839    1.016436   1.793240
C   -0.633835   -1.169001   1.978824
C   -0.904894   -1.380185   3.479591
C   -2.249719   -0.850374   4.000424
N   -2.381393    0.615143   4.005147
C   -1.621382    1.391538   4.865726
N   -0.870105    2.330047   4.369967
N   -1.731103    1.052057   6.196193
H    0.124407   -1.895680   1.649982
H   -1.552349   -1.405865   1.413333
H   -0.085851   -0.962777   4.086633
H   -0.894093   -2.464126   3.674837
H   -2.416630   -1.216760   5.021639
H   -3.074917   -1.244472   3.388878
H   -2.337440    1.019643   3.073032
H   -0.500976    2.955284   5.090960
H   -1.232120    1.626400   6.863005
H   -2.619781    0.685576   6.518033
O    1.313500    1.332458   3.138481
H    0.414910    1.715432   3.422658
