 26
Energy: -16507.81165515.7 eV PBE+vdW (tier 2 basis)
N   -0.126053    0.112498   0.157700
C    0.096577    0.158429   1.601049
C    1.525633   -0.081487   2.099518
O    1.889762    0.214674   3.228399
H    0.388817    0.866755  -0.297351
H    0.258963   -0.750942  -0.228352
H   -0.179931    1.162925   1.952822
C   -0.844139   -0.834515   2.332903
C   -0.591568   -2.343976   2.099358
C   -0.023466   -3.112702   3.308764
N    1.350603   -2.799842   3.701571
C    2.465633   -3.109132   2.945819
N    3.606983   -2.480886   2.991719
N    2.316582   -4.137176   2.032517
H   -1.855776   -0.578199   1.992281
H   -0.804559   -0.608776   3.409010
H    0.067304   -2.512835   1.234402
H   -1.545328   -2.827288   1.840925
H   -0.106018   -4.194155   3.121700
H   -0.650925   -2.923532   4.192388
H    1.457484   -1.910460   4.182734
H    3.571842   -1.726330   3.683581
H    3.207885   -4.477650   1.689259
H    1.647796   -4.866021   2.250044
O    2.292488   -0.732481   1.207386
H    3.046304   -1.171043   1.705797
