 26
Energy: -16507.61587815.7 eV PBE+vdW (tier 2 basis)
N    0.127622   -1.258168  -0.086704
C    0.081804   -0.273351   0.988191
C    1.461597    0.292627   1.342265
O    2.523957   -0.197886   1.021634
H    0.245855   -0.787498  -0.983697
H    0.958799   -1.843153   0.022766
H   -0.537246    0.573506   0.657442
C   -0.591414   -0.851535   2.256035
C    0.155735   -2.027796   2.886874
C   -0.566861   -2.573221   4.115930
N    0.185423   -3.688186   4.691771
C   -0.288016   -4.455850   5.753977
N   -0.020924   -5.696122   5.987027
N   -1.132698   -3.770808   6.625167
H   -1.599799   -1.170045   1.954921
H   -0.708032   -0.042878   2.992970
H    1.176299   -1.729914   3.175994
H    0.257223   -2.836658   2.144374
H   -1.596803   -2.872528   3.847483
H   -0.656444   -1.767026   4.861176
H    0.670601   -4.252062   4.000485
H    0.497589   -6.119141   5.212476
H   -1.295430   -4.312653   7.468454
H   -0.886006   -2.804884   6.817826
O    1.369550    1.423117   2.097415
H    2.287510    1.693433   2.296396
