 26
Energy: -16507.67177515.7 eV PBE+vdW (tier 2 basis)
N    0.466075    0.294864   0.038736
C   -0.030476    0.098956   1.399450
C    1.176426   -0.106530   2.301111
O    2.128866   -0.810425   2.044554
H    0.997976   -0.523678  -0.262692
H   -0.318501    0.414327  -0.601773
H   -0.532914    1.023875   1.703246
C   -0.994935   -1.114029   1.558329
C   -1.483777   -1.475176   2.970853
C   -2.577531   -0.586463   3.584308
N   -2.251910    0.821861   3.730631
C   -2.643526    1.788822   2.812358
N   -3.430665    1.678696   1.796132
N   -2.042689    3.024840   3.067000
H   -0.468278   -1.986016   1.139696
H   -1.856424   -0.921157   0.899911
H   -0.627676   -1.524436   3.663008
H   -1.889280   -2.499060   2.942981
H   -2.837092   -0.989602   4.576205
H   -3.497536   -0.654824   2.986369
H   -1.358123    1.011368   4.176420
H   -3.709055    0.709492   1.632166
H   -2.452383    3.753983   2.490981
H   -1.989638    3.286350   4.047365
O    1.063576    0.564501   3.488141
H    1.870505    0.340962   3.993578
