 26
Energy: -16507.69662015.7 eV PBE+vdW (tier 2 basis)
N    0.127146    0.492127   0.273906
C    0.070512    0.309688   1.720266
C    1.407582    0.345137   2.461516
O    1.579673    0.826335   3.567034
H    0.691171   -0.240080  -0.159552
H    0.562423    1.382786   0.034158
H   -0.506533    1.145739   2.140031
C   -0.659786   -1.016349   2.038252
C   -0.840465   -1.346873   3.523577
C   -1.742762   -0.357440   4.284941
N   -1.851556   -0.613148   5.708542
C   -0.942617   -0.187118   6.675201
N   -0.933274   -0.569424   7.911056
N   -0.056623    0.799624   6.268964
H   -0.108457   -1.833652   1.546780
H   -1.635514   -0.952677   1.533283
H    0.135148   -1.406084   4.030070
H   -1.278676   -2.353763   3.603854
H   -2.755570   -0.381383   3.851353
H   -1.389738    0.675023   4.160655
H   -2.360879   -1.447451   5.974827
H   -1.713444   -1.201539   8.110181
H    0.613639    1.003322   7.002581
H    0.365695    0.745950   5.344432
O    2.412667   -0.252875   1.768798
H    3.202437   -0.207583   2.342532
