 26
Energy: -16507.50826415.7 eV PBE+vdW (tier 2 basis)
N    0.022697    0.344793   0.005336
C    0.289432   -0.079741   1.386879
C    1.803646   -0.182671   1.573470
O    2.415490   -1.141001   1.994904
H   -0.979671    0.485435  -0.121806
H    0.481499    1.234235  -0.191070
H   -0.046957    0.663873   2.143819
C   -0.386532   -1.420176   1.677429
C   -0.427225   -1.786407   3.170668
C   -0.451439   -3.294466   3.417453
N    0.827344   -3.890464   3.044513
C    0.966043   -5.186741   2.592529
N    1.927346   -5.479277   1.781616
N   -0.026559   -6.060627   3.064184
H    0.133982   -2.197184   1.100047
H   -1.413059   -1.379064   1.282403
H   -1.310197   -1.334966   3.646422
H    0.448778   -1.371525   3.692052
H   -1.272028   -3.758223   2.842994
H   -0.669219   -3.472922   4.486092
H    1.515547   -3.262404   2.633327
H    1.988914   -6.488912   1.628251
H    0.183464   -7.037584   2.892436
H   -0.335200   -5.901405   4.019954
O    2.421836    0.978493   1.219094
H    3.378259    0.827350   1.349725
