 26
Energy: -16507.71969415.7 eV PBE+vdW (tier 2 basis)
N   -0.306163    0.045912  -0.286505
C   -0.090588    0.076154   1.155475
C    1.387078    0.212898   1.544015
O    2.326684    0.052645   0.793518
H    0.415909   -0.529153  -0.725854
H   -0.175968    0.980213  -0.674731
H   -0.611152    0.955351   1.563874
C   -0.697269   -1.168239   1.845299
C   -0.050078   -2.492887   1.438004
C   -0.658721   -3.710309   2.156695
N   -0.521182   -3.726568   3.603717
C    0.683140   -4.009477   4.235142
N    1.787124   -4.421862   3.714225
N    0.618466   -3.793363   5.618286
H   -1.767785   -1.180400   1.590039
H   -0.613437   -1.029280   2.933188
H    1.032831   -2.460247   1.634974
H   -0.169653   -2.651740   0.354992
H   -0.210718   -4.635006   1.763605
H   -1.734190   -3.772402   1.931828
H   -1.125553   -3.091387   4.113863
H    1.753344   -4.417352   2.692884
H    1.462042   -4.138908   6.067522
H   -0.220379   -4.158107   6.062917
O    1.536357    0.516677   2.862522
H    2.498318    0.532675   3.034381
