 26
Energy: -16507.70594115.7 eV PBE+vdW (tier 2 basis)
N    0.071472   -0.613137  -0.120012
C    0.053377   -0.250094   1.289305
C    1.380401   -0.249314   2.058105
O    1.508230    0.156135   3.198465
H    0.628869    0.046314  -0.661187
H    0.489355   -1.534222  -0.255270
H   -0.279936    0.798646   1.354617
C   -0.945869   -1.131381   2.069820
C   -2.419122   -0.900937   1.714786
C   -2.876971    0.565693   1.809380
N   -2.415488    1.240758   3.009529
C   -1.557664    2.329605   2.983180
N   -1.467140    3.232207   2.062037
N   -0.754275    2.411764   4.124706
H   -0.784934   -0.954991   3.141411
H   -0.693183   -2.189491   1.891793
H   -3.031459   -1.524803   2.385402
H   -2.624241   -1.248964   0.692467
H   -3.975281    0.608123   1.725521
H   -2.482863    1.128977   0.951829
H   -2.432656    0.718950   3.878689
H   -2.231352    3.149139   1.385709
H   -0.169530    3.242258   4.073475
H   -0.182244    1.579762   4.275690
O    2.423779   -0.752370   1.345644
H    3.200011   -0.695941   1.936999
