 26
Energy: -16507.85969515.7 eV PBE+vdW (tier 2 basis)
N    0.832986   -0.777808   0.058035
C    0.169279   -0.209755   1.233863
C    1.076753    0.387259   2.320079
O    0.652646    1.159974   3.165536
H    1.703687   -1.224483   0.352072
H    1.115390   -0.025760  -0.570235
H   -0.486440    0.606107   0.899596
C   -0.760157   -1.252418   1.917094
C   -0.170466   -2.628198   2.271075
C    0.949739   -2.715634   3.321955
N    0.634628   -2.031087   4.570229
C    1.484274   -1.224259   5.268816
N    2.633041   -0.841335   4.780977
N    1.041805   -0.889170   6.545896
H   -1.589899   -1.434923   1.218889
H   -1.191507   -0.778855   2.810982
H    0.207938   -3.109426   1.355916
H   -1.011354   -3.260109   2.603619
H    1.880089   -2.283691   2.946554
H    1.153046   -3.781226   3.524946
H   -0.213048   -2.317639   5.043954
H    3.134035   -0.246781   5.440765
H    1.410941   -0.006988   6.884656
H    0.040238   -0.953170   6.702827
O    2.320935   -0.114520   2.307754
H    2.607054   -0.263023   3.305929
