 26
Energy: -16507.65539915.7 eV PBE+vdW (tier 2 basis)
N    0.106762   -0.308569  -0.076796
C    0.231395   -0.307608   1.382202
C    1.593420   -0.777473   1.898084
O    2.323528   -0.146246   2.633439
H    0.805080    0.303236  -0.499772
H    0.267226   -1.246485  -0.447406
H    0.145378    0.734382   1.719319
C   -0.907815   -1.143769   1.993322
C   -0.897145   -1.266500   3.520863
C   -1.036978    0.066202   4.257832
N   -1.159372   -0.157717   5.687364
C   -1.195469    0.909404   6.579856
N   -1.027284    2.161633   6.332784
N   -1.461281    0.491205   7.889810
H   -0.866834   -2.152834   1.555179
H   -1.849176   -0.690806   1.648489
H    0.019975   -1.769875   3.864901
H   -1.732771   -1.924785   3.810170
H   -1.903127    0.625842   3.850185
H   -0.142775    0.684776   4.089803
H   -1.762608   -0.933073   5.948725
H   -0.978537    2.345308   5.328271
H   -1.357187    1.267138   8.537687
H   -0.929625   -0.323661   8.185421
O    1.921281   -2.018588   1.427733
H    2.800257   -2.222653   1.801218
