 26
Energy: -16507.69577615.7 eV PBE+vdW (tier 2 basis)
N    0.525667   -1.980590  -0.327079
C    0.996306   -1.588173   0.993288
C    2.466026   -1.910199   1.252294
O    3.128306   -2.746402   0.676423
H    0.872308   -2.915629  -0.552743
H    0.902063   -1.353917  -1.038162
H    0.893303   -0.497226   1.075910
C    0.130494   -2.267931   2.087348
C   -1.216674   -1.567709   2.317483
C   -1.186636   -0.508109   3.433468
N   -0.176206    0.546082   3.308911
C   -0.155620    1.477081   2.274436
N    0.895718    2.012844   1.747871
N   -1.410021    1.822030   1.780482
H    0.691373   -2.325724   3.033935
H   -0.030677   -3.306939   1.764827
H   -1.978965   -2.310257   2.599928
H   -1.559905   -1.119494   1.373808
H   -0.995327   -0.998160   4.400032
H   -2.181740   -0.049029   3.525798
H    0.759886    0.259862   3.578235
H    1.751203    1.581161   2.109381
H   -2.152007    1.906369   2.468205
H   -1.348907    2.624062   1.161110
O    2.976275   -1.137885   2.263129
H    3.902255   -1.426258   2.383256
