 26
Energy: -16507.66629615.7 eV PBE+vdW (tier 2 basis)
N    0.469942    0.511313   0.168065
C   -0.100384   -0.011222   1.402224
C    0.893769   -0.041534   2.570104
O    2.087603    0.163447   2.487926
H    0.692577    1.500588   0.279736
H    1.364654    0.056220  -0.021606
H   -0.901651    0.674791   1.720004
C   -0.784419   -1.382699   1.170641
C    0.081939   -2.500610   0.575649
C    1.157094   -3.075693   1.516128
N    1.789203   -4.291120   1.031486
C    1.160770   -5.528555   1.103349
N    0.062663   -5.838515   1.702849
N    1.867007   -6.521382   0.412969
H   -1.615630   -1.188163   0.479337
H   -1.229203   -1.719322   2.118957
H    0.555426   -2.155454  -0.357320
H   -0.588943   -3.320480   0.278984
H    0.719100   -3.293641   2.502845
H    1.956177   -2.343504   1.693823
H    2.399210   -4.175208   0.228162
H   -0.425300   -5.012685   2.056178
H    1.464227   -7.435730   0.598177
H    2.871659   -6.511545   0.569968
O    0.277583   -0.322383   3.752587
H    0.979473   -0.321458   4.432509
