 26
Energy: -16508.02559015.7 eV PBE+vdW (tier 2 basis)
N   -0.088198   -0.414114  -0.457673
C   -0.172280   -0.156529   0.977842
C    1.185798    0.127232   1.648568
O    2.247457   -0.177078   1.139669
H    0.736259   -0.999143  -0.622800
H    0.107515    0.458770  -0.949335
H   -0.792769    0.740755   1.126402
C   -0.849811   -1.350710   1.689305
C   -2.368344   -1.369576   1.510404
C   -3.096991   -0.254726   2.270834
N   -2.957760   -0.323735   3.720786
C   -2.195079    0.523862   4.470821
N   -1.305936    1.305975   3.924883
N   -2.486985    0.524519   5.829498
H   -0.603716   -1.345039   2.761215
H   -0.413430   -2.273032   1.278001
H   -2.768294   -2.344468   1.833789
H   -2.609369   -1.273973   0.440451
H   -4.170354   -0.283651   2.027878
H   -2.725782    0.734111   1.974092
H   -3.483938   -1.038434   4.206483
H   -0.966698    1.986944   4.607274
H   -1.704382    0.699061   6.448388
H   -3.144588   -0.160991   6.183742
O    1.119735    0.714405   2.854268
H    0.157775    0.891844   3.130727
