 26
Energy: -16507.79068615.7 eV PBE+vdW (tier 2 basis)
N   -0.153960    0.057180  -0.173846
C   -0.190403    0.048758   1.287329
C    1.050412    0.644738   1.956941
O    2.167111    0.577455   1.458916
H    0.794766   -0.191825  -0.468217
H   -0.299964    1.008993  -0.512921
H   -1.069107    0.616674   1.625818
C   -0.346844   -1.418885   1.780860
C   -0.363384   -1.622072   3.311401
C    0.879514   -2.302057   3.933669
N    2.194449   -1.942993   3.413516
C    3.021087   -0.968576   3.890191
N    2.579955   -0.028930   4.684909
N    4.347009   -1.076361   3.494473
H    0.461126   -2.005438   1.312511
H   -1.277398   -1.787495   1.330582
H   -1.219265   -2.256324   3.584752
H   -0.525805   -0.658333   3.806890
H    0.794567   -3.391316   3.801529
H    0.894482   -2.103506   5.013128
H    2.490414   -2.404864   2.563795
H    3.359931    0.502673   5.075500
H    4.779339   -0.189988   3.255315
H    4.568864   -1.808474   2.827476
O    0.781282    1.134210   3.172982
H    1.552837    0.874063   3.822449
