 26
Energy: -16507.68250915.7 eV PBE+vdW (tier 2 basis)
N    0.911711    0.143297   0.827473
C   -0.466096    0.593285   1.106367
C   -1.040829   -0.232582   2.286296
O   -2.187905   -0.144208   2.663780
H    1.543137    0.925619   0.669736
H    0.698664   -0.857893   2.326109
H   -0.407216    1.617235   1.507055
C   -1.422747    0.630363  -0.101862
C   -1.490597   -0.642759  -0.955839
C   -2.072286   -1.871144  -0.256019
N   -2.059234   -3.007719  -1.168967
C   -2.607009   -4.243711  -0.840352
N   -3.102910   -4.963992  -1.789287
N   -2.579180   -4.551054   0.516920
H   -1.118023    1.466130  -0.748920
H   -2.422624    0.875473   0.283493
H   -0.497520   -0.902902  -1.362421
H   -2.107824   -0.415706  -1.840027
H   -3.083461   -1.641776   0.126562
H   -1.459402   -2.117625   0.624480
H   -2.294037   -2.787076  -2.134024
H   -3.387216   -5.886758  -1.451768
H   -2.737397   -5.526961   0.735668
H   -1.855036   -4.124464   1.085908
O   -0.126328   -1.032309   2.868030
H    0.948571   -0.451705  -0.000672
