 26
Energy: -16507.53957315.7 eV PBE+vdW (tier 2 basis)
N   -0.631242    0.453267   0.078479
C   -0.231749   -0.150724   1.361358
C    1.248312    0.117211   1.631740
O    1.678532    0.967280   2.384279
H   -0.097096    0.040110  -0.688449
H   -0.427090    1.453655   0.077915
H   -0.772352    0.384421   2.155095
C   -0.640900   -1.629301   1.379176
C   -0.594046   -2.330649   2.742734
C    0.804275   -2.620974   3.287680
N    0.702930   -3.441105   4.497059
C    1.817763   -3.813030   5.248714
N    1.858379   -4.003725   6.523390
N    2.980194   -3.988883   4.500425
H   -0.032951   -2.186826   0.648997
H   -1.674363   -1.652165   1.005093
H   -1.127527   -3.289529   2.655145
H   -1.156210   -1.731173   3.479802
H    1.355306   -1.686146   3.490459
H    1.375630   -3.165034   2.520897
H   -0.081703   -3.188219   5.090999
H    0.985866   -3.713426   6.973166
H    3.703057   -4.431572   5.059753
H    2.860233   -4.427671   3.592484
O    2.068307   -0.656342   0.855547
H    2.977782   -0.361020   1.054742
