 26
Energy: -16507.57609615.7 eV PBE+vdW (tier 2 basis)
N   -0.130995   -0.177273  -0.337025
C   -0.253236   -0.084597   1.121929
C    1.099939    0.028130   1.828243
O    1.488522    0.989525   2.458090
H    0.346391    0.643642  -0.710662
H    0.428242   -0.991747  -0.596028
H   -0.773402    0.855823   1.352721
C   -1.080362   -1.261907   1.654318
C   -1.307168   -1.223337   3.166523
C   -2.196036   -2.367939   3.650399
N   -2.377199   -2.303812   5.090855
C   -2.906278   -3.311859   5.883283
N   -3.133614   -3.246787   7.152599
N   -3.120869   -4.521277   5.220859
H   -0.580332   -2.203699   1.376667
H   -2.040327   -1.242305   1.117123
H   -1.768244   -0.259946   3.443938
H   -0.347515   -1.275446   3.703812
H   -1.720078   -3.329138   3.404360
H   -3.160541   -2.330717   3.103027
H   -2.443659   -1.376502   5.493306
H   -2.805379   -2.360502   7.545751
H   -3.590236   -5.179763   5.835408
H   -3.554531   -4.464312   4.304324
O    1.867810   -1.088271   1.643950
H    2.713519   -0.911244   2.099075
