 26
Energy: -16507.64710515.7 eV PBE+vdW (tier 2 basis)
N   -0.497640   -0.947624  -0.594790
C   -0.341737   -0.284004   0.711042
C    1.075976    0.160058   1.069863
O    1.347899    1.008957   1.890686
H   -0.640633   -0.249812  -1.323526
H    0.359123   -1.441280  -0.846215
H   -0.929833    0.643725   0.686211
C   -0.920129   -1.117365   1.884769
C   -0.181524   -2.398862   2.295618
C   -0.056534   -3.492726   1.216459
N   -1.276029   -3.761734   0.454454
C   -2.426982   -4.275869   1.046181
N   -3.646166   -3.985199   0.737201
N   -2.191573   -5.197433   2.069055
H   -1.958375   -1.355659   1.613200
H   -0.969953   -0.455606   2.761097
H   -0.724442   -2.821827   3.153696
H    0.830059   -2.158429   2.662638
H    0.296179   -4.418580   1.691478
H    0.720409   -3.226584   0.486082
H   -1.481372   -2.998983  -0.192745
H   -3.678539   -3.207410   0.071862
H   -3.055856   -5.660747   2.334026
H   -1.437641   -5.855460   1.892889
O    2.037054   -0.542290   0.396650
H    2.892592   -0.208657   0.730001
