 26
Energy: -16507.79427315.7 eV PBE+vdW (tier 2 basis)
N    0.592287   -0.425425  -0.006329
C    0.153706   -0.424775   1.403259
C    1.232935    0.272976   2.270941
O    2.184027    0.883396   1.542608
H   -0.173352   -0.233092  -0.648532
H    1.919770    0.672420   0.600674
H   -0.728850    0.232467   1.475277
C   -0.206896   -1.797833   1.981884
C   -1.469266   -2.410034   1.376157
C   -1.779297   -3.801189   1.952302
N   -2.927997   -4.466034   1.364086
C   -2.867490   -5.066694   0.111206
N   -1.833242   -5.275880  -0.629440
N   -4.128152   -5.467478  -0.344658
H   -0.314875   -1.682036   3.069869
H    0.652572   -2.475780   1.833245
H   -1.376650   -2.492193   0.281640
H   -2.328799   -1.744974   1.564472
H   -1.952554   -3.726143   3.036140
H   -0.907075   -4.462741   1.832967
H   -3.830396   -4.059588   1.591073
H   -0.995184   -4.833025  -0.246741
H   -4.040501   -6.025555  -1.189384
H   -4.704800   -5.927360   0.355330
O    1.204114    0.287433   3.481514
H    0.989637   -1.328525  -0.268670
