 26
Energy: -16507.64945315.7 eV PBE+vdW (tier 2 basis)
N    1.172195   -0.278241  -0.329908
C    0.431525   -0.035709   0.900964
C    1.224641    0.418499   2.136856
O    0.721780    0.872066   3.144143
H    1.883559   -0.996634  -0.195980
H    1.666995    0.562574  -0.625263
H   -0.267936    0.792986   0.709772
C   -0.427598   -1.260060   1.287368
C    0.370683   -2.501419   1.694138
C   -0.524708   -3.680383   2.116901
N   -1.349699   -4.255570   1.069160
C   -0.833067   -5.111885   0.104322
N    0.345552   -5.628805   0.037109
N   -1.768487   -5.407680  -0.894453
H   -1.056302   -1.482320   0.412896
H   -1.090918   -0.963040   2.113561
H    1.030080   -2.262858   2.544597
H    1.021344   -2.828428   0.868743
H    0.094903   -4.486517   2.536383
H   -1.196324   -3.358333   2.927361
H   -2.131324   -3.689353   0.756520
H    0.974433   -5.238296   0.741726
H   -1.412458   -6.133810  -1.509625
H   -2.700370   -5.625553  -0.550793
O    2.571947    0.251959   2.003024
H    2.958297    0.559784   2.846417
