 26
Energy: -16507.67102415.7 eV PBE+vdW (tier 2 basis)
N    0.116180    0.102439   0.363247
C    0.059449   -0.130327   1.801925
C    1.397155   -0.554615   2.411755
O    2.119198   -1.446870   2.003723
H    0.581922   -0.642911  -0.169162
H    0.646017    0.952474   0.171817
H   -0.200857    0.831338   2.264943
C   -1.065566   -1.113699   2.230753
C   -0.844119   -2.637616   2.206997
C   -0.817432   -3.342981   0.847698
N    0.421537   -3.104901   0.113440
C    0.468361   -2.857714  -1.239036
N    1.338816   -2.012587  -1.694392
N   -0.505729   -3.530339  -1.981299
H   -1.931932   -0.853472   1.603461
H   -1.334289   -0.850145   3.265077
H   -1.677477   -3.083273   2.771936
H    0.063642   -2.906244   2.770734
H   -1.670411   -3.006590   0.237837
H   -0.958694   -4.424537   1.027317
H    1.170274   -2.636597   0.628259
H    1.370588   -2.017181  -2.716542
H   -0.396373   -3.449787  -2.985424
H   -0.720002   -4.477369  -1.681943
O    1.723246    0.187068   3.506460
H    2.578630   -0.163446   3.826645
