 26
Energy: -16507.74059915.7 eV PBE+vdW (tier 2 basis)
N   -0.376713    0.849809   1.382296
C    0.212755    0.234917   2.564875
C    1.731720    0.401979   2.646403
O    2.465421    0.610573   1.702553
H    0.149552    0.563460   0.553588
H   -0.285319    1.864714   1.431582
H   -0.214447    0.713002   3.459202
C   -0.108957   -1.276167   2.622882
C   -1.607827   -1.596625   2.555924
C   -2.465962   -0.880735   3.600284
N   -1.990055   -1.120873   4.951390
C   -2.347503   -0.299439   6.013821
N   -3.046259    0.782825   5.989507
N   -1.850787   -0.772770   7.234277
H    0.327995   -1.681823   3.545433
H    0.400444   -1.777337   1.784145
H   -1.733422   -2.687596   2.653552
H   -2.000817   -1.324773   1.567185
H   -3.523003   -1.179914   3.471552
H   -2.425889    0.202628   3.416611
H   -1.860926   -2.096605   5.203686
H   -3.477271    0.933580   5.074825
H   -2.024825   -0.099024   7.974689
H   -0.877765   -1.066926   7.207424
O    2.192787    0.264406   3.922168
H    3.164897    0.351089   3.869245
