 26
Energy: -16507.63904615.7 eV PBE+vdW (tier 2 basis)
N   -0.405344   -0.475879  -0.021514
C   -0.051846   -0.238803   1.376237
C    1.449760   -0.351319   1.587036
O    2.108036    0.343498   2.331784
H   -0.143499   -1.423140  -0.298607
H   -1.418708   -0.403794  -0.143863
H   -0.297563    0.805962   1.616164
C   -0.755356   -1.146723   2.425815
C   -2.284906   -0.958911   2.440208
C   -3.100892   -2.243327   2.220948
N   -2.798574   -2.992182   1.006641
C   -3.113494   -2.509500  -0.245666
N   -3.722441   -1.378776  -0.389102
N   -2.650667   -3.350038  -1.269989
H   -0.332830   -0.936720   3.419419
H   -0.489072   -2.190644   2.191587
H   -2.592835   -0.241195   1.667803
H   -2.601265   -0.526200   3.400455
H   -4.168030   -1.984976   2.192381
H   -2.952721   -2.938414   3.060482
H   -1.989315   -3.601051   1.041089
H   -3.995571   -1.227756  -1.362952
H   -2.978522   -3.088455  -2.193480
H   -2.764527   -4.345589  -1.096211
O    1.993325   -1.389328   0.884798
H    2.943325   -1.391081   1.111222
