 26
Energy: -16507.54059015.7 eV PBE+vdW (tier 2 basis)
N   -0.677724   -0.221020   0.558606
C   -0.011153   -0.046867   1.851543
C    1.497846    0.116769   1.699857
O    2.314848   -0.117814   2.564920
H   -0.352225    0.467829  -0.117656
H   -1.683292   -0.092889   0.669708
H   -0.306334    0.894544   2.366701
C   -0.358816   -1.202086   2.803770
C    0.096552   -2.580017   2.313730
C   -0.551734   -3.734001   3.080316
N   -1.980079   -3.783736   2.816387
C   -2.893456   -4.589904   3.470139
N   -4.036214   -4.804757   2.906999
N   -2.505269   -5.013222   4.745456
H   -1.451572   -1.202812   2.937023
H    0.078951   -0.988066   3.788790
H    1.187853   -2.669860   2.411161
H   -0.133633   -2.681174   1.241470
H   -0.393722   -3.574986   4.159713
H   -0.042027   -4.679733   2.808806
H   -2.262290   -3.624460   1.853623
H   -4.648940   -5.363287   3.505104
H   -3.068869   -5.772031   5.110157
H   -1.513256   -5.160983   4.901135
O    1.846986    0.633040   0.486810
H    2.817378    0.741955   0.514150
