 26
Energy: -16507.55720315.7 eV PBE+vdW (tier 2 basis)
N   -0.081974    0.007427  -0.171474
C   -0.335562    0.208100   1.256440
C    0.866906    0.731103   2.045646
O    0.875692    1.732674   2.731292
H    0.210523    0.879154  -0.613588
H    0.674289   -0.665124  -0.307916
H   -1.096268    0.995358   1.348579
C   -0.868954   -1.100471   1.868630
C   -1.146477   -1.075140   3.375257
C   -2.202291   -0.057296   3.809819
N   -2.518580   -0.242629   5.216557
C   -3.388617    0.558312   5.936985
N   -3.285022    0.576860   7.223604
N   -4.370047    1.195994   5.172056
H   -0.140752   -1.898680   1.657384
H   -1.782945   -1.357805   1.313000
H   -0.212456   -0.882108   3.929347
H   -1.484703   -2.076020   3.682578
H   -3.112796   -0.220013   3.207452
H   -1.839840    0.967793   3.600576
H   -1.761316   -0.569443   5.809052
H   -4.023282    1.140231   7.651203
H   -4.831671    1.958458   5.653619
H   -4.128251    1.434379   4.215517
O    1.967427   -0.064101   1.894336
H    2.674275    0.350818   2.425446
