 26
Energy: -16507.63563615.7 eV PBE+vdW (tier 2 basis)
N    0.965023    0.221280  -0.072437
C    0.383222    0.121709   1.268766
C    1.423993    0.328982   2.363688
O    1.314865   -0.053922   3.509163
H    0.219798    0.318262  -0.761835
H    1.564936    1.040970  -0.150751
H   -0.354426    0.927502   1.479947
C   -0.359407   -1.214059   1.443344
C    0.537894   -2.448177   1.325672
C   -0.225373   -3.776833   1.237315
N   -1.031634   -3.939874   0.038697
C   -2.389783   -3.668097  -0.032900
N   -3.206568   -3.338697   0.908164
N   -2.875542   -3.773917  -1.345178
H   -1.149505   -1.246219   0.677780
H   -0.868723   -1.204006   2.417203
H    1.210696   -2.502632   2.195744
H    1.181189   -2.341588   0.438303
H   -0.886401   -3.906598   2.106594
H    0.496526   -4.607076   1.281894
H   -0.532299   -3.837772  -0.839266
H   -2.722967   -3.163376   1.791236
H   -2.553113   -4.598227  -1.846446
H   -3.889749   -3.707791  -1.347542
O    2.490126    1.066867   1.939525
H    3.061660    1.180225   2.723621
