 26
Energy: -16507.75874915.7 eV PBE+vdW (tier 2 basis)
N    0.549058    0.089492   0.305273
C    0.936417   -0.547620   1.570774
C    2.346066   -1.103525   1.413220
O    3.304459   -0.845924   2.118718
H   -0.290772    0.649517   0.452554
H    0.322019   -0.616626  -0.397038
H    1.007211    0.249344   2.318311
C   -0.048347   -1.635892   2.069794
C    0.336669   -2.449411   3.315628
C    0.394745   -1.683280   4.646487
N    1.525604   -0.783999   4.765449
C    1.402650    0.585054   4.695371
N    0.247749    1.152246   4.838493
N    2.640431    1.217486   4.510298
H   -0.215006   -2.333869   1.233586
H   -1.006971   -1.125426   2.252776
H    1.297393   -2.967502   3.148426
H   -0.408010   -3.252907   3.430857
H    0.419582   -2.411303   5.473500
H   -0.502829   -1.065825   4.784392
H    2.444995   -1.160253   4.569486
H    0.327471    2.166033   4.738384
H    2.557963    2.212127   4.330028
H    3.235671    0.757922   3.819716
O    2.433347   -1.975544   0.374957
H    3.365225   -2.266420   0.338745
