 26
Energy: -16507.63237915.7 eV PBE+vdW (tier 2 basis)
N    0.492305   -0.407673  -0.454205
C   -0.199600   -0.206953   0.818396
C    0.725309    0.438923   1.833897
O    0.375704    1.218691   2.702804
H   -0.163527   -0.769623  -1.146740
H    1.240772   -1.095594  -0.357920
H   -1.013478    0.511052   0.656486
C   -0.813695   -1.497379   1.443134
C   -1.655914   -1.317600   2.714870
C   -3.111952   -0.887235   2.485992
N   -3.313489    0.310773   1.653072
C   -3.464940    1.591493   2.208530
N   -4.307546    2.489178   1.818672
N   -2.605253    1.854250   3.263603
H    0.012144   -2.199872   1.638098
H   -1.429278   -1.957242   0.652234
H   -1.162961   -0.619706   3.406012
H   -1.695742   -2.278600   3.251298
H   -3.598754   -0.754972   3.465587
H   -3.637665   -1.706817   1.973711
H   -3.983276    0.164366   0.906402
H   -4.978545    2.102729   1.148298
H   -2.708090    2.815034   3.576361
H   -1.627059    1.593085   3.122828
O    2.006354    0.004641   1.732631
H    2.502418    0.451631   2.445896
