 26
Energy: -16507.73278215.7 eV PBE+vdW (tier 2 basis)
N   -0.079572    0.002831   0.907193
C   -0.194894   -0.975783   1.978990
C    0.910888   -2.031849   1.979564
O    1.558276   -2.381229   1.015368
H    0.785152    0.535860   1.002273
H   -0.013418   -0.482363   0.009804
H   -0.123670   -0.440850   2.938974
C   -1.559346   -1.701342   1.910825
C   -2.770484   -0.791616   2.135779
C   -2.842426   -0.142942   3.527313
N   -2.773229   -1.061395   4.658220
C   -3.855621   -1.851490   4.996912
N   -4.984836   -1.727029   4.386725
N   -3.542543   -2.768867   6.016395
H   -1.565591   -2.522403   2.643414
H   -1.638046   -2.179374   0.921369
H   -3.684361   -1.382000   1.984118
H   -2.770556    0.013611   1.387260
H   -3.791204    0.401271   3.612039
H   -2.034228    0.592027   3.656749
H   -1.867243   -1.476896   4.846743
H   -5.710008   -2.292040   4.834407
H   -4.356267   -3.240834   6.396317
H   -2.952053   -2.394617   6.755597
O    1.084684   -2.577147   3.221113
H    1.769180   -3.267282   3.120551
