 26
Energy: -16507.66399715.7 eV PBE+vdW (tier 2 basis)
N    0.516061    0.044688   1.846509
C   -0.144836   -0.735104   2.896490
C    0.801083   -1.563028   3.785261
O    0.613677   -2.696524   4.188659
H    0.985419   -0.575132   1.184886
H    1.236411    0.646876   2.244075
H   -0.601427   -0.007923   3.591647
C   -1.265213   -1.607542   2.326819
C   -0.810670   -2.648094   1.280915
C   -1.590334   -3.958890   1.369536
N   -1.251967   -4.654169   2.603257
C   -2.089770   -5.618600   3.113462
N   -3.099754   -6.041768   2.428131
N   -1.735460   -6.014406   4.415707
H   -2.012418   -0.936947   1.882610
H   -1.758339   -2.117423   3.166040
H    0.261111   -2.882111   1.402008
H   -0.921015   -2.238391   0.267882
H   -1.355395   -4.599573   0.505341
H   -2.677501   -3.776060   1.329140
H   -0.699409   -4.124099   3.274818
H   -3.591867   -6.788674   2.923814
H   -0.740099   -5.969108   4.620654
H   -2.129822   -6.908747   4.686494
O    1.916924   -0.860887   4.123436
H    2.439903   -1.445895   4.705400
