 26
Energy: -16507.72686615.7 eV PBE+vdW (tier 2 basis)
N    2.075666   -2.143090   2.356880
C    1.724775   -0.730013   2.362089
C    2.864289    0.193067   1.924234
O    4.046097   -0.075217   1.973468
H    2.338360   -2.440677   1.417072
H    2.898789   -2.302729   2.941545
H    0.900907   -0.582301   1.647747
C    1.249917   -0.273330   3.766760
C    0.256639   -1.229786   4.434516
C   -1.021408   -1.478101   3.625335
N   -1.831277   -2.551508   4.185294
C   -1.529079   -3.883523   3.892601
N   -0.500077   -4.353040   3.283755
N   -2.533503   -4.755478   4.340191
H    0.819799    0.734705   3.669954
H    2.132382   -0.171971   4.418625
H   -0.017805   -0.826463   5.420662
H    0.746123   -2.194881   4.618149
H   -0.766651   -1.708229   2.575579
H   -1.638593   -0.568610   3.609136
H   -2.826855   -2.362259   4.231686
H    0.122804   -3.623814   2.920701
H   -2.874623   -4.553603   5.276769
H   -2.225200   -5.719889   4.252809
O    2.396918    1.395062   1.479756
H    3.185605    1.928677   1.259686
