 26
Energy: -16507.76147615.7 eV PBE+vdW (tier 2 basis)
N   -0.495488    1.237516   0.656618
C   -1.014213    0.509180   1.833651
C    0.025445   -0.567887   2.238925
O   -0.212016   -1.483358   3.000404
H   -0.855624    0.837972  -0.211076
H   -0.768611    2.218266   0.674202
H   -1.018013    1.221333   2.674730
C   -2.414255   -0.099593   1.707391
C   -2.520979   -1.219231   0.655013
C   -3.470149   -2.349671   1.079121
N   -3.037796   -2.980649   2.327415
C   -3.753666   -2.872790   3.518535
N   -3.260430   -2.763088   4.704411
N   -5.142774   -2.891678   3.353696
H   -3.136695    0.702050   1.495568
H   -2.677342   -0.502217   2.694623
H   -1.528405   -1.666619   0.474781
H   -2.855603   -0.826590  -0.317707
H   -3.524370   -3.095101   0.268494
H   -4.485012   -1.956898   1.228761
H   -2.033975   -2.922152   2.491378
H   -2.249952   -2.598893   4.665783
H   -5.600575   -2.943674   4.259318
H   -5.486567   -3.597687   2.707697
O    1.228558   -0.377408   1.676325
H    1.077149    0.411873   1.078522
