 26
Energy: -16507.70544015.7 eV PBE+vdW (tier 2 basis)
N   -0.916419    0.456481   0.020793
C   -0.206148   -0.111894   1.182508
C    1.263701   -0.331041   0.777934
O    1.427718   -0.505599  -0.549034
H   -0.853175    1.473880  -0.001364
H    0.527013   -0.293484  -0.924095
H   -0.190167    0.559654   2.055940
C   -0.905663   -1.430450   1.575609
C   -0.284607   -2.277132   2.696562
C    0.872119   -3.214440   2.283466
N    0.636010   -4.015968   1.084272
C   -0.442543   -4.874257   0.935037
N   -1.032135   -4.948950  -0.211485
N   -0.790512   -5.561436   2.102714
H   -1.027170   -2.046851   0.670201
H   -1.924547   -1.147721   1.885221
H   -1.089187   -2.897368   3.116826
H    0.073894   -1.632634   3.514193
H    1.098583   -3.874583   3.134821
H    1.787183   -2.642472   2.099581
H    0.831874   -3.545047   0.205503
H   -1.708673   -5.716640  -0.235475
H   -0.014832   -5.816196   2.708267
H   -1.430634   -6.332494   1.950868
O    2.182172   -0.375094   1.567618
H   -1.904762    0.206156   0.030475
