 26
Energy: -16507.62623215.7 eV PBE+vdW (tier 2 basis)
N   -0.599346    1.250498   1.196296
C    0.531973    0.634455   1.883235
C    1.764363    0.792719   1.010456
O    1.755883    0.870765  -0.200616
H   -1.480153    0.843711   1.507954
H   -0.511282    1.076899   0.192632
H    0.731702    1.187112   2.816401
C    0.382910   -0.874565   2.224531
C   -0.752888   -1.186981   3.206423
C   -0.584162   -0.580016   4.610035
N    0.650596   -0.947993   5.305151
C    0.969729   -2.272172   5.592155
N    2.181184   -2.674525   5.411341
N   -0.114190   -3.034762   6.037692
H    1.332006   -1.249019   2.637765
H    0.211631   -1.420833   1.284290
H   -0.833927   -2.279672   3.304230
H   -1.723611   -0.853537   2.801239
H   -1.449576   -0.863047   5.226264
H   -0.603054    0.518275   4.566779
H    1.484175   -0.479147   4.958832
H    2.327944   -3.612199   5.794903
H    0.146618   -3.934966   6.423876
H   -0.785884   -2.543655   6.621436
O    2.906664    0.793010   1.747363
H    3.644514    0.831156   1.108257
