 26
Energy: -16507.71299015.7 eV PBE+vdW (tier 2 basis)
N   -0.200286   -0.070658  -0.149444
C   -0.133680    0.117242   1.293989
C    1.295123    0.282149   1.818719
O    2.291790   -0.157077   1.284155
H    0.503086   -0.756839  -0.432833
H    0.041006    0.794880  -0.631967
H   -0.691096    1.029837   1.554500
C   -0.787541   -1.074765   2.029615
C   -2.282657   -1.205460   1.740516
C   -2.892498   -2.445183   2.412002
N   -4.306867   -2.652391   2.157654
C   -4.772578   -3.211361   0.972225
N   -4.096720   -3.724282   0.003280
N   -6.170803   -3.178859   0.891567
H   -0.616300   -0.965320   3.111678
H   -0.261907   -1.994300   1.720619
H   -2.443417   -1.246183   0.654668
H   -2.808480   -0.306124   2.102405
H   -2.755234   -2.387331   3.503097
H   -2.357835   -3.352060   2.089189
H   -4.930827   -1.964658   2.568521
H   -3.093322   -3.558334   0.106186
H   -6.489850   -3.702021   0.080922
H   -6.648580   -3.468662   1.741249
O    1.330478    0.968741   2.996530
H    2.267926    0.986712   3.272892
