 26
Energy: -16507.71210915.7 eV PBE+vdW (tier 2 basis)
N   -0.511748    0.060744   0.116951
C   -0.116275   -0.068246   1.512314
C    1.401185   -0.083451   1.721420
O    2.219288   -0.446507   0.902652
H   -0.016928   -0.635932  -0.444417
H   -0.231202    0.970139  -0.249908
H   -0.517697    0.792665   2.068959
C   -0.702754   -1.358626   2.127996
C   -2.231319   -1.374020   2.139428
C   -2.823593   -2.666853   2.726364
N   -2.537886   -3.888398   1.992900
C   -3.193688   -4.225002   0.815694
N   -4.188380   -3.632509   0.251174
N   -2.646984   -5.368140   0.216763
H   -0.314343   -1.472348   3.152282
H   -0.318296   -2.211586   1.543835
H   -2.599968   -1.215744   1.116977
H   -2.601437   -0.528288   2.742159
H   -3.916823   -2.569874   2.803279
H   -2.458075   -2.811822   3.754914
H   -1.590623   -4.243482   2.066457
H   -4.405161   -2.739464   0.698320
H   -2.466225   -6.135353   0.859489
H   -3.221494   -5.662363  -0.568199
O    1.746369    0.343582   2.970536
H    2.719004    0.263938   3.025620
