 26
Energy: -16507.61269015.7 eV PBE+vdW (tier 2 basis)
N   -0.281995    0.387819   0.132697
C   -0.344978    0.120003   1.569838
C    1.075623    0.173690   2.109098
O    2.052583   -0.251906   1.530256
H   -1.134242    0.059473  -0.322238
H    0.498321   -0.137313  -0.268254
H   -0.912028    0.930873   2.052974
C   -0.988748   -1.247158   1.931931
C   -1.160494   -1.582270   3.418761
C   -2.005932   -0.582476   4.228728
N   -3.323186   -0.267042   3.671898
C   -4.309415   -1.219801   3.424713
N   -5.184999   -1.194553   2.477382
N   -4.310715   -2.287938   4.320078
H   -0.390868   -2.035165   1.449321
H   -1.975004   -1.267554   1.440972
H   -0.179599   -1.669187   3.911967
H   -1.629128   -2.574396   3.488458
H   -1.476298    0.373623   4.334587
H   -2.122621   -0.966115   5.253251
H   -3.322432    0.471644   2.977331
H   -4.994869   -0.438260   1.813910
H   -5.145546   -2.854122   4.203268
H   -4.129754   -2.048712   5.290467
O    1.136730    0.726000   3.352482
H    2.074654    0.674388   3.623607
