 26
Energy: -16507.65377615.7 eV PBE+vdW (tier 2 basis)
N    0.347299   -0.283378  -0.008165
C   -0.307528    0.040429   1.264595
C    0.534920    0.965551   2.145178
O    0.246895    2.103417   2.454363
H    0.555177    0.566901  -0.532844
H    1.236633   -0.756597   0.160057
H   -1.215051    0.616252   1.034202
C   -0.699858   -1.248005   1.998307
C   -1.457120   -1.008803   3.305677
C   -1.852815   -2.314471   3.990059
N   -2.567190   -2.048132   5.230466
C   -3.232698   -3.075559   5.877653
N   -3.328883   -4.242299   5.339149
N   -3.717940   -2.677731   7.136176
H    0.209200   -1.839119   2.194092
H   -1.314590   -1.836344   1.301175
H   -2.362781   -0.412103   3.114497
H   -0.833268   -0.410785   3.993002
H   -0.959392   -2.942386   4.165053
H   -2.520251   -2.908063   3.351883
H   -2.114785   -1.385902   5.854020
H   -3.944193   -4.850319   5.885105
H   -4.349868   -3.351110   7.556221
H   -4.105743   -1.737427   7.160801
O    1.707094    0.377115   2.535532
H    2.185007    1.053279   3.053071
