 26
Energy: -16507.75960415.7 eV PBE+vdW (tier 2 basis)
N    0.476353   -0.221468  -0.066059
C    0.805762   -0.492956   1.325494
C    2.001541   -1.426558   1.601162
O    2.230745   -1.988903   2.654302
H    1.281953    0.171659  -0.550094
H    0.223064   -1.084146  -0.566409
H    1.145350    0.458077   1.776892
C   -0.436999   -0.930326   2.133119
C   -1.312519   -1.982829   1.443365
C   -0.620898   -3.327366   1.171309
N   -1.334920   -4.175562   0.223782
C   -1.270080   -3.891522  -1.126033
N   -0.507546   -2.946601  -1.571177
N   -2.120250   -4.705031  -1.887368
H   -1.051024   -0.034795   2.299216
H   -0.100461   -1.282851   3.118058
H   -1.669744   -1.576960   0.486632
H   -2.207174   -2.155779   2.062460
H   -0.478470   -3.893752   2.102243
H    0.374237   -3.173443   0.737634
H   -2.225458   -4.547315   0.538271
H   -0.474506   -2.947439  -2.592620
H   -1.981298   -4.623311  -2.888566
H   -2.165178   -5.675911  -1.588605
O    2.852095   -1.513758   0.537919
H    3.588168   -2.079040   0.842506
