 26
Energy: -16507.68438215.7 eV PBE+vdW (tier 2 basis)
N   -0.195826    0.365458  -0.504700
C    0.137712    0.545531   0.907037
C    1.586729    0.988869   1.112206
O    2.549171    0.539513   0.524016
H   -0.200666    1.264707  -0.986639
H    0.524158   -0.203197  -0.956242
H   -0.527501    1.316180   1.319606
C   -0.110754   -0.783758   1.651696
C    0.240872   -0.811903   3.143473
C   -0.544908    0.160379   4.039428
N   -1.988766   -0.067465   4.060955
C   -2.907699    0.546984   3.216890
N   -4.014096    0.044705   2.784234
N   -2.562940    1.846754   2.831338
H    0.469294   -1.567576   1.139657
H   -1.171057   -1.026431   1.494860
H    1.315265   -0.613009   3.290624
H    0.081150   -1.837762   3.513957
H   -0.362650    1.194402   3.725795
H   -0.165372    0.078565   5.069726
H   -2.260662   -1.016174   4.299853
H   -4.084053   -0.952626   3.005510
H   -3.342370    2.277275   2.341564
H   -2.207237    2.437281   3.578742
O    1.703481    1.970022   2.057443
H    2.659577    2.165596   2.123356
