 26
Energy: -16507.71961215.7 eV PBE+vdW (tier 2 basis)
N    0.751803    0.203569   0.679407
C    1.647807   -0.924053   0.908870
C    2.511695   -1.168268  -0.318257
O    2.457691   -0.539586  -1.355244
H    0.983999    0.648810  -0.209154
H    0.835470    0.892244   1.425209
H    2.359607   -0.713006   1.724091
C    0.856590   -2.219657   1.259808
C   -0.122529   -2.046965   2.426033
C    0.465696   -2.196558   3.843645
N    1.669806   -1.436989   4.160066
C    1.703126   -0.053283   4.189924
N    0.716451    0.774867   4.121318
N    3.008738    0.450221   4.268234
H    1.563120   -3.041258   1.453764
H    0.282355   -2.497378   0.363329
H   -0.915417   -2.806119   2.341975
H   -0.626886   -1.078078   2.302827
H    0.722174   -3.250684   4.021878
H   -0.309152   -1.943657   4.584576
H    2.542248   -1.875625   3.885875
H   -0.168148    0.293878   3.948305
H    2.992736    1.451052   4.444101
H    3.614631   -0.037440   4.923227
O    3.383739   -2.200304  -0.134787
H    3.881615   -2.278308  -0.971521
