 26
Energy: -16507.73490415.7 eV PBE+vdW (tier 2 basis)
N   -0.933498    0.169967   0.563806
C   -0.469299    0.003310   1.938765
C    1.047991    0.096706   2.150295
O    1.666723   -0.392577   3.081889
H   -0.780287    1.128285   0.252412
H   -0.372620   -0.418781  -0.053925
H   -0.855978    0.865589   2.512348
C   -1.067678   -1.252364   2.605413
C   -0.968199   -2.579933   1.839581
C    0.435350   -3.147864   1.619678
N    1.150689   -2.419685   0.562322
C    2.537143   -2.527824   0.397039
N    2.992108   -2.647917  -0.804979
N    3.262796   -2.497319   1.581027
H   -2.134186   -1.039609   2.762556
H   -0.611201   -1.363557   3.599317
H   -1.486143   -2.490188   0.870644
H   -1.542211   -3.327352   2.408195
H    0.363020   -4.222183   1.369135
H    1.016039   -3.080302   2.547080
H    0.732653   -2.559890  -0.357001
H    4.013700   -2.585484  -0.826609
H    4.264874   -2.416854   1.458097
H    2.892242   -1.908608   2.327634
O    1.652877    0.871661   1.215031
H    2.599672    0.893290   1.452764
