 26
Energy: -16507.78468315.7 eV PBE+vdW (tier 2 basis)
N    0.832924   -0.925491  -0.279773
C    0.820614   -0.838385   1.194332
C    2.247671   -1.125391   1.712395
O    2.625153   -0.853942   2.831128
H    1.017318   -0.018405  -0.707066
H    2.449854   -1.767102  -0.014425
H    0.540314    0.161950   1.560517
C   -0.164876   -1.873628   1.770927
C   -0.430867   -1.739777   3.270311
C   -1.335237   -2.867953   3.782756
N   -1.726448   -2.733126   5.178213
C   -2.764307   -1.884725   5.526141
N   -3.472114   -1.297532   4.621594
N   -2.893692   -1.751184   6.917387
H    0.206358   -2.885100   1.532971
H   -1.120035   -1.755411   1.230911
H   -0.924300   -0.777916   3.471879
H    0.520027   -1.738749   3.822522
H   -0.832636   -3.840563   3.665206
H   -2.264954   -2.897914   3.199376
H   -0.967693   -2.769996   5.851928
H   -4.267844   -0.807874   5.036796
H   -3.742715   -1.276660   7.204762
H   -2.745154   -2.608529   7.444093
O    3.024906   -1.747131   0.803226
H   -0.062087   -1.257083  -0.637993
