 26
Energy: -16507.86805215.7 eV PBE+vdW (tier 2 basis)
N   -0.247285   -0.753714  -0.210811
C   -0.177414   -0.317983   1.181835
C    0.987830    0.621459   1.475169
O    2.021586    0.632086   0.814454
H   -0.683114   -0.025818  -0.777046
H    0.703331   -0.848207  -0.576358
H   -1.108714    0.206048   1.438200
C   -0.080857   -1.535192   2.148849
C    1.145653   -2.463634   1.986630
C    2.222754   -2.353050   3.076739
N    2.925212   -1.078715   3.066806
C    3.004947   -0.231338   4.148681
N    2.793028   -0.455527   5.396455
N    3.320056    1.106121   3.767946
H   -0.993599   -2.116791   1.966933
H   -0.135549   -1.162406   3.182250
H    1.613750   -2.326859   0.999019
H    0.803013   -3.508255   1.991407
H    2.939037   -3.183488   2.960832
H    1.753440   -2.479906   4.063903
H    2.997045   -0.635783   2.153333
H    2.511778   -1.422518   5.570424
H    3.616672    1.623039   4.593929
H    4.020092    1.170139   3.029361
O    0.805106    1.339085   2.589985
H    1.711201    1.589205   2.951076
