 26
Energy: -16507.84729915.7 eV PBE+vdW (tier 2 basis)
N   -0.282032    0.204695   0.227752
C    0.203657    0.018416   1.614671
C    1.701648   -0.335207   1.559808
O    2.423534   -0.345257   2.540822
H   -0.399056    1.193708   0.011614
H    1.325696   -0.469596  -0.235884
H    0.137492    0.962643   2.179510
C   -0.621299   -1.090086   2.309763
C   -0.126482   -1.637354   3.657730
C   -0.259254   -0.697830   4.864970
N    0.485685    0.553677   4.715886
C   -0.136523    1.777663   4.593165
N    0.286255    2.627369   3.709902
N   -1.233116    1.951967   5.446680
H   -0.683739   -1.938170   1.606495
H   -1.647349   -0.702609   2.427143
H    0.917418   -1.967641   3.565517
H   -0.712538   -2.541113   3.887574
H    0.084109   -1.240606   5.761416
H   -1.317072   -0.447249   5.027538
H    1.315706    0.477905   4.120375
H   -0.143313    3.546873   3.842862
H   -1.609797    2.893032   5.449081
H   -1.118901    1.575322   6.383966
O    2.139818   -0.636623   0.329502
H   -1.182313   -0.250080   0.081564
