 26
Energy: -16507.72836115.7 eV PBE+vdW (tier 2 basis)
N    0.177884    0.577599   0.029688
C   -0.308396   -0.008403   1.282270
C    0.763842   -0.473873   2.274036
O    0.589637   -0.483968   3.484787
H    0.654035    1.458326   0.229473
H    0.894293   -0.031756  -0.370557
H   -0.922486    0.744329   1.794743
C   -1.223256   -1.230144   0.983679
C   -0.497008   -2.496102   0.470428
C   -0.483018   -3.712866   1.424227
N   -0.234863   -3.476436   2.842180
C    0.979484   -3.445543   3.462546
N    2.092038   -3.333835   2.784110
N    0.936975   -3.577955   4.843109
H   -1.947263   -0.881745   0.235079
H   -1.794640   -1.454595   1.897007
H    0.538583   -2.254338   0.204133
H   -0.974416   -2.844831  -0.456502
H    0.273832   -4.428609   1.077466
H   -1.459137   -4.218567   1.374403
H   -1.026788   -3.185936   3.400547
H    2.895289   -3.512678   3.389728
H    1.579659   -2.966241   5.335670
H    0.017874   -3.602144   5.273022
O    1.844522   -0.977489   1.655855
H    2.127935   -1.850346   2.149401
