 26
Energy: -16507.74412415.7 eV PBE+vdW (tier 2 basis)
N   -1.068556   -0.252205   0.022010
C   -0.861638   -0.349019   1.468424
C    0.284025    0.486100   2.056867
O    0.351590    0.780901   3.238817
H   -0.178020   -0.378543  -0.462192
H   -1.372505    0.692166  -0.217920
H   -1.781277   -0.009273   1.963883
C   -0.640443   -1.830287   1.885554
C    0.760563   -2.404784   1.585091
C    1.754248   -2.270899   2.766622
N    3.151389   -2.165789   2.364659
C    3.748606   -0.957682   2.069182
N    3.482800    0.200609   2.600895
N    4.765052   -1.045136   1.131363
H   -1.406022   -2.403113   1.346221
H   -0.856293   -1.930416   2.959564
H    1.195388   -1.901908   0.708436
H    0.671672   -3.465799   1.310481
H    1.649633   -3.129422   3.445224
H    1.512400   -1.386381   3.366754
H    3.561170   -2.981447   1.921324
H    2.887530    0.108547   3.428898
H    5.187531   -0.144682   0.930668
H    4.590878   -1.614771   0.309678
O    1.251403    0.749252   1.157003
H    2.122526    0.888752   1.657487
