 26
Energy: -16507.70550815.7 eV PBE+vdW (tier 2 basis)
N   -0.057221    0.957524   1.151884
C    0.890112    0.114392   1.864734
C    2.316263    0.173844   1.321715
O    2.653272    0.556526   0.222558
H    0.146687    1.943207   1.317751
H    0.040711    0.811164   0.144863
H    0.934737    0.466872   2.904260
C    0.401682   -1.363169   1.857943
C   -0.495245   -1.718593   3.050757
C    0.273784   -2.187771   4.298680
N    1.284424   -1.271890   4.817302
C    0.912531   -0.151116   5.534197
N   -0.313643    0.030319   5.891386
N    1.988921    0.726541   5.752872
H    1.261406   -2.051303   1.822186
H   -0.143538   -1.506242   0.913988
H   -1.173063   -2.538468   2.767051
H   -1.133768   -0.861366   3.306016
H    0.787673   -3.136366   4.079141
H   -0.438982   -2.373895   5.111574
H    2.123004   -1.165863   4.254015
H   -0.406173    0.851549   6.493342
H    1.800219    1.428363   6.460669
H    2.886781    0.273846   5.906995
O    3.223291   -0.295039   2.240708
H    4.095123   -0.255363   1.801409
