 26
Energy: -16507.65924615.7 eV PBE+vdW (tier 2 basis)
N    0.385731   -0.532707  -0.097331
C   -0.253518   -0.227663   1.178281
C    0.659393    0.142545   2.357505
O    0.277220    0.679183   3.376159
H    0.871221    0.288449  -0.457236
H    1.098596   -1.253034   0.019193
H   -0.885531    0.660946   1.031136
C   -1.191600   -1.371520   1.623501
C   -0.491683   -2.706700   1.885291
C   -1.473390   -3.776278   2.390100
N   -0.879357   -5.068329   2.682664
C   -0.148869   -5.298644   3.843889
N    0.001401   -4.529767   4.866378
N    0.480555   -6.549864   3.829556
H   -1.945835   -1.492106   0.831703
H   -1.717987   -1.043093   2.532090
H    0.314133   -2.583207   2.625485
H   -0.017548   -3.076796   0.962257
H   -2.266978   -3.934304   1.644097
H   -1.980745   -3.422617   3.300968
H   -0.554166   -5.590917   1.874982
H   -0.390519   -3.598886   4.708927
H   -0.106966   -7.313570   3.504310
H    0.890491   -6.749331   4.737771
O    1.961015   -0.214649   2.159764
H    2.430186    0.035003   2.980046
