 26
Energy: -16507.61980315.7 eV PBE+vdW (tier 2 basis)
N    0.123959    0.795018   0.067734
C    0.254686    0.087728   1.342665
C    1.729878   -0.236506   1.517057
O    2.457865   -0.648422   0.638222
H   -0.855985    0.825744  -0.214827
H    0.634192    0.281004  -0.653688
H   -0.035544    0.769011   2.157049
C   -0.612793   -1.196847   1.456348
C   -0.589462   -1.928151   2.809186
C    0.453803   -3.053701   2.882910
N    0.508154   -3.734378   4.168956
C   -0.438213   -4.690766   4.495342
N   -1.316874   -5.075500   3.633900
N   -0.315853   -5.120212   5.827925
H   -0.324858   -1.882431   0.642718
H   -1.641852   -0.875192   1.235592
H   -1.571719   -2.381349   2.997523
H   -0.411900   -1.205323   3.622744
H    1.463253   -2.678425   2.664881
H    0.214541   -3.815901   2.130334
H    0.827002   -3.171337   4.951111
H   -1.856907   -5.869094   3.985832
H    0.642386   -5.241239   6.147501
H   -0.885596   -5.930914   6.045255
O    2.159466   -0.037793   2.794916
H    3.102539   -0.296229   2.800508
