 26
Energy: -16507.77471015.7 eV PBE+vdW (tier 2 basis)
N    0.106457   -0.384974  -0.193820
C   -0.117930    0.221011   1.106681
C    1.122431    0.899670   1.700439
O    2.271777    0.698546   1.374772
H    0.846532   -1.102468  -0.156893
H    0.400781    0.315167  -0.873537
H   -0.880452    1.010715   0.999064
C   -0.661249   -0.807399   2.128113
C   -2.008427   -1.438656   1.713850
C   -1.927365   -2.919427   1.314720
N   -0.999597   -3.144713   0.201725
C    0.233426   -3.747545   0.379615
N    1.277894   -3.233708  -0.189317
N    0.213697   -4.869716   1.211565
H   -0.766622   -0.299027   3.094898
H    0.102707   -1.587790   2.268957
H   -2.435923   -0.870495   0.873150
H   -2.732335   -1.354401   2.538079
H   -2.935082   -3.272828   1.041379
H   -1.597411   -3.520368   2.173308
H   -0.886715   -2.308911  -0.380933
H    2.093036   -3.846571  -0.114601
H    1.080114   -5.395378   1.225349
H   -0.606080   -5.464046   1.126236
O    0.781963    1.793134   2.679795
H    1.625356    2.157165   3.012473
