 26
Energy: -16507.68639915.7 eV PBE+vdW (tier 2 basis)
N    0.450228    0.504559  -0.230148
C    0.601562    0.246702   1.208115
C    2.063447    0.084598   1.627818
O    2.629115    0.753781   2.475808
H    0.813025   -0.284065  -0.769205
H    0.996284    1.321970  -0.506341
H    0.240451    1.136718   1.743498
C   -0.253515   -0.973112   1.606293
C   -0.710981   -1.040178   3.071132
C    0.383330   -1.059591   4.143582
N    1.359663   -2.117755   3.884506
C    2.575246   -2.230912   4.566209
N    3.189301   -3.335293   4.837059
N    3.138652   -1.023049   4.951595
H    0.286100   -1.891612   1.332464
H   -1.147937   -0.927932   0.968038
H   -1.339580   -1.939372   3.182224
H   -1.374440   -0.188596   3.289237
H   -0.091184   -1.172877   5.136119
H    0.906592   -0.097136   4.163180
H    0.938278   -3.029681   3.730486
H    2.605247   -4.148336   4.622044
H    4.080398   -1.160340   5.304175
H    3.063425   -0.254517   4.286428
O    2.701749   -0.879506   0.917163
H    3.608807   -0.934270   1.274665
