 26
Energy: -16507.56755515.7 eV PBE+vdW (tier 2 basis)
N   -0.036105    0.565818  -0.093687
C    0.099583    0.057917   1.266940
C    1.328278   -0.809579   1.580170
O    1.723911   -1.059203   2.699495
H   -0.000640   -0.195630  -0.771399
H    0.740622    1.185167  -0.322908
H    0.200037    0.924417   1.937652
C   -1.171526   -0.698840   1.712100
C   -1.474169   -1.967902   0.912333
C   -2.737184   -2.668256   1.408127
N   -3.006472   -3.857430   0.602208
C   -4.079488   -4.704061   0.859315
N   -3.912858   -5.974840   0.716514
N   -5.241078   -4.050703   1.278532
H   -2.007990    0.009119   1.617353
H   -1.066122   -0.945735   2.778505
H   -0.625325   -2.669126   0.983422
H   -1.604530   -1.733747  -0.155400
H   -3.584306   -1.970269   1.326624
H   -2.633670   -2.913618   2.482432
H   -2.182202   -4.425962   0.418718
H   -4.797249   -6.482322   0.803606
H   -6.070974   -4.632281   1.255110
H   -5.402727   -3.129964   0.880246
O    1.937262   -1.299890   0.461379
H    2.680390   -1.845842   0.785326
