 26
Energy: -16507.61025715.7 eV PBE+vdW (tier 2 basis)
N    0.136238    1.155717   0.178653
C   -0.218033    0.772870   1.544888
C    1.075392    0.481786   2.286176
O    2.036002   -0.096264   1.824055
H   -0.709173    1.293616  -0.374536
H    0.682775    0.413544  -0.262665
H   -0.700507    1.638243   2.021958
C   -1.142593   -0.481533   1.626521
C   -1.493857   -1.054026   3.010575
C   -2.579551   -0.310207   3.801189
N   -2.258656    1.080582   4.118809
C   -2.833131    2.165978   3.482364
N   -2.096592    3.191519   3.206085
N   -4.189277    2.002745   3.171068
H   -0.648409   -1.270723   1.038208
H   -2.070479   -0.224812   1.089906
H   -0.586966   -1.143173   3.629210
H   -1.854206   -2.086115   2.874969
H   -2.775943   -0.865594   4.733196
H   -3.513993   -0.314689   3.224156
H   -1.279277    1.265606   4.325656
H   -2.657992    3.984076   2.884564
H   -4.633103    2.851627   2.838823
H   -4.745370    1.531764   3.880215
O    1.033663    0.906656   3.584491
H    1.889908    0.646469   3.978290
