 26
Energy: -16507.64153915.7 eV PBE+vdW (tier 2 basis)
N   -0.467719    1.248930   0.662258
C    0.079093    0.367905   1.706920
C    1.550919    0.685760   1.967715
O    1.984458    1.255320   2.949388
H   -0.339949    2.229055   0.917994
H    0.028837    1.103821  -0.218853
H   -0.439652    0.611777   2.645056
C   -0.200951   -1.097398   1.342872
C    0.006206   -2.125382   2.462999
C    1.470330   -2.389435   2.859917
N    1.652706   -3.518730   3.755540
C    1.612269   -4.832666   3.304398
N    1.569666   -5.264687   2.090827
N    1.620759   -5.754088   4.358818
H    0.399836   -1.375832   0.461891
H   -1.252443   -1.124726   1.022975
H   -0.437492   -3.078243   2.138993
H   -0.557879   -1.816822   3.358759
H    1.905922   -1.511369   3.356220
H    2.080344   -2.566041   1.960785
H    1.303576   -3.386937   4.699826
H    1.436619   -4.505130   1.419804
H    1.732777   -6.699029   4.002280
H    2.289212   -5.546087   5.096341
O    2.353727    0.315450   0.924487
H    3.253031    0.615310   1.159051
