 26
Energy: -16507.89701515.7 eV PBE+vdW (tier 2 basis)
N   -0.789506   -0.320498  -0.242005
C   -0.176981    0.052358   1.049184
C    1.217899    0.667572   0.774865
O    1.440924    0.916090  -0.522984
H   -0.711611   -1.324408  -0.408632
H   -1.779023   -0.084037  -0.272863
H   -0.755231    0.898785   1.453470
C   -0.159109   -1.042492   2.131547
C    0.463058   -2.392096   1.746132
C    1.979146   -2.378236   1.454765
N    2.806131   -1.827650   2.506347
C    3.077368   -2.515416   3.677354
N    2.830382   -3.751055   3.962024
N    3.690231   -1.710051   4.641508
H   -1.198605   -1.214372   2.447982
H    0.364470   -0.637105   3.008970
H   -0.051154   -2.833904   0.873983
H    0.267942   -3.086577   2.576101
H    2.193301   -1.807219   0.539154
H    2.310756   -3.406596   1.243829
H    2.796513   -0.810514   2.564573
H    2.288938   -4.208696   3.226165
H    4.062368   -2.273409   5.400113
H    4.369581   -1.046076   4.280769
O    2.018121    0.936597   1.649620
H    0.607149    0.570091  -0.962427
