 26
Energy: -16507.56807115.7 eV PBE+vdW (tier 2 basis)
N    0.074273    0.551940   0.201877
C    0.017120    0.025188   1.560401
C    1.337483   -0.429885   2.202323
O    1.477502   -0.672019   3.383141
H    0.636087    1.402042   0.171031
H    0.528952   -0.110247  -0.426647
H   -0.339567    0.834271   2.215976
C   -1.010294   -1.122042   1.677061
C   -0.676043   -2.362448   0.845259
C   -1.683337   -3.488219   1.068136
N   -1.337290   -4.650431   0.252058
C   -2.062063   -5.836962   0.298612
N   -2.274916   -6.475191  -0.801604
N   -2.503231   -6.193492   1.575506
H   -1.982622   -0.712999   1.367096
H   -1.090074   -1.397231   2.738927
H    0.329435   -2.738762   1.092079
H   -0.664511   -2.103667  -0.226592
H   -2.707475   -3.125753   0.854248
H   -1.669269   -3.771370   2.130618
H   -1.150314   -4.425486  -0.723141
H   -2.694610   -7.392522  -0.628849
H   -2.837967   -7.148029   1.642015
H   -1.885051   -5.947121   2.343593
O    2.356440   -0.554684   1.303762
H    3.125568   -0.864073   1.821370
