 26
Energy: -16507.66305115.7 eV PBE+vdW (tier 2 basis)
N   -0.381148    0.608297   0.334460
C   -0.077327    0.210445   1.708148
C    1.406479    0.143044   2.075628
O    1.880629    0.470463   3.143817
H   -0.031042    1.547032   0.144199
H    0.082926   -0.017735  -0.325226
H   -0.503400    0.966388   2.384039
C   -0.724603   -1.149010   2.041099
C   -2.252031   -1.105913   2.022059
C   -2.897857   -2.447891   2.380089
N   -2.552180   -2.915944   3.721491
C   -3.285011   -2.496576   4.817806
N   -4.221696   -1.621524   4.687429
N   -2.899442   -3.159151   5.996794
H   -0.380133   -1.469071   3.035542
H   -0.352610   -1.899387   1.321470
H   -2.605358   -0.800034   1.027274
H   -2.613863   -0.346874   2.731333
H   -2.567954   -3.223846   1.673499
H   -3.991057   -2.354597   2.297630
H   -2.198062   -3.862259   3.787450
H   -4.608449   -1.353846   5.595115
H   -3.292995   -2.747926   6.836633
H   -1.896542   -3.302104   6.090882
O    2.172483   -0.365963   1.062867
H    3.084055   -0.395295   1.412100
