 26
Energy: -16507.82033615.7 eV PBE+vdW (tier 2 basis)
N    0.367383    1.883282   1.187635
C    0.350484    0.651402   2.005005
C    0.874983   -0.517602   1.149835
O    1.204057   -1.589609   1.614999
H    1.201409    2.438166   1.376276
H    0.641175    0.721977  -0.199970
H    1.011450    0.735169   2.880244
C   -1.088083    0.376848   2.490480
C   -1.307500   -0.896419   3.315481
C   -0.499714   -0.987456   4.619420
N   -0.747053    0.105028   5.562567
C   -0.022491    1.288453   5.623760
N   -0.470964    2.455300   5.948782
N    1.331940    1.161270   5.299614
H   -1.750993    0.345436   1.610396
H   -1.392923    1.254715   3.083280
H   -1.069766   -1.785579   2.714617
H   -2.381678   -0.960956   3.555476
H    0.570996   -1.022494   4.388992
H   -0.738568   -1.938482   5.118373
H   -1.725942    0.242014   5.795576
H   -1.491637    2.452245   6.030167
H    1.788108    0.329491   5.664926
H    1.828622    2.012547   5.546671
O    0.911996   -0.242297  -0.166628
H   -0.437292    2.474553   1.394025
