 26
Energy: -16507.87197615.7 eV PBE+vdW (tier 2 basis)
N   -0.024492   -0.191726  -0.050218
C   -0.535302   -0.431858   1.316914
C    0.630237   -0.972246   2.179524
O    1.820024   -0.900038   1.571605
H    1.584758   -0.526774   0.668469
H   -0.302283   -0.946445  -0.678452
H   -0.755223    0.556649   1.752287
C   -1.804202   -1.315723   1.417747
C   -2.985887   -0.677774   2.158407
C   -2.733020   -0.374571   3.647041
N   -2.262528   -1.500796   4.431222
C   -3.111952   -2.529189   4.770262
N   -4.379775   -2.455667   4.523841
N   -2.437949   -3.615686   5.349802
H   -1.549417   -2.270684   1.898424
H   -2.125700   -1.561727   0.394652
H   -3.849114   -1.354172   2.094211
H   -3.277948    0.261877   1.658844
H   -3.668657   -0.012884   4.092811
H   -1.983960    0.424097   3.760693
H   -1.278638   -1.728149   4.288668
H   -4.876500   -3.255958   4.921641
H   -3.047804   -4.260304   5.840455
H   -1.621891   -3.369739   5.904584
O    0.492818   -1.395480   3.311777
H   -0.386451    0.675470  -0.441625
