 26
Energy: -16507.70895915.7 eV PBE+vdW (tier 2 basis)
N   -0.067421   -0.150304  -0.215940
C   -0.110931    0.040370   1.235516
C    1.276704    0.317484   1.821120
O    2.259099   -0.372976   1.637603
H    0.634334   -0.858135  -0.444698
H    0.226479    0.709970  -0.680180
H   -0.751600    0.907932   1.446936
C   -0.712608   -1.206858   1.902140
C   -0.871573   -1.103332   3.419481
C   -1.506813   -2.368340   4.017708
N   -1.721354   -2.329123   5.453067
C   -2.788380   -1.641562   6.021446
N   -3.791403   -1.085341   5.434531
N   -2.694077   -1.584758   7.417441
H   -0.076503   -2.071409   1.648931
H   -1.687450   -1.379514   1.422307
H   -1.485728   -0.227226   3.679170
H    0.108699   -0.945225   3.897872
H   -0.872522   -3.240427   3.797510
H   -2.475982   -2.571217   3.536428
H   -0.878310   -2.333002   6.019231
H   -3.682937   -1.076012   4.418169
H   -3.546994   -1.200683   7.814463
H   -2.432992   -2.462798   7.859018
O    1.303520    1.450362   2.577666
H    2.221372    1.538858   2.904213
