 26
Energy: -16507.62287415.7 eV PBE+vdW (tier 2 basis)
N   -0.219642   -0.227403  -0.171002
C    0.141628   -0.057782   1.238357
C    1.645545   -0.184576   1.429985
O    2.300935    0.445722   2.233004
H   -1.224196   -0.099608  -0.291454
H    0.004342   -1.173125  -0.484130
H   -0.094853    0.979016   1.521092
C   -0.545672   -1.005519   2.256591
C   -2.056841   -0.795558   2.346991
C   -2.733267   -1.713207   3.373793
N   -2.268311   -1.494172   4.738044
C   -1.473787   -2.423820   5.384404
N   -1.043627   -3.470866   4.768510
N   -1.258637   -2.087408   6.731569
H   -0.099647   -0.837758   3.248348
H   -0.325184   -2.050346   1.987539
H   -2.531660   -0.986318   1.369966
H   -2.268993    0.257312   2.600151
H   -2.535640   -2.765869   3.128836
H   -3.822304   -1.560318   3.343191
H   -2.869562   -0.946886   5.341393
H   -0.404945   -4.010399   5.355928
H   -0.539692   -2.647969   7.176502
H   -1.110331   -1.095213   6.901597
O    2.188371   -1.150915   0.636365
H    3.137539   -1.179910   0.864298
