 26
Energy: -16507.82975515.7 eV PBE+vdW (tier 2 basis)
N   -0.276218   -0.392018   0.156526
C   -0.146806   -0.127445   1.591849
C    1.294039    0.268479   1.879154
O    2.142863    0.482910   1.034967
H   -1.260586   -0.456285  -0.099599
H    0.140996    0.367625  -0.382422
H   -0.730765    0.762760   1.907846
C   -0.665810   -1.299984   2.461909
C    0.186721   -2.569772   2.616730
C    0.438818   -3.416852   1.359438
N    1.374930   -2.834210   0.420417
C    2.731462   -2.993124   0.580966
N    3.203896   -3.911115   1.362958
N    3.477936   -2.128179  -0.238289
H   -1.657108   -1.569780   2.059319
H   -0.853168   -0.891500   3.464953
H   -0.332564   -3.205623   3.351979
H    1.159553   -2.327471   3.070703
H   -0.509766   -3.604396   0.831061
H    0.851129   -4.386698   1.663138
H    1.033952   -1.999380  -0.057109
H    4.225965   -3.907149   1.349002
H    3.102562   -1.181593  -0.287377
H    4.461862   -2.111604   0.008836
O    1.522360    0.424647   3.206111
H    2.456499    0.697255   3.291541
