 26
Energy: -16507.58685315.7 eV PBE+vdW (tier 2 basis)
N    0.856300   -1.184295   0.368621
C   -0.234935   -0.373192   0.909699
C    0.325537    0.741400   1.778431
O   -0.074588    1.889868   1.777278
H    0.479196   -1.902551  -0.250518
H    1.352370   -1.664684   1.120655
H   -0.718269    0.145416   0.069747
C   -1.332125   -1.165702   1.678326
C   -2.456347   -0.315172   2.297937
C   -2.222298    0.007338   3.784195
N   -3.157264    0.980662   4.322253
C   -2.826746    2.238879   4.810287
N   -3.552295    2.960666   5.599626
N   -1.584764    2.719057   4.404562
H   -0.840336   -1.775092   2.454871
H   -1.750557   -1.877406   0.951516
H   -3.417390   -0.841280   2.200945
H   -2.571938    0.629170   1.745233
H   -1.209307    0.395583   3.947827
H   -2.281284   -0.926979   4.368730
H   -4.040687    0.625986   4.666039
H   -4.369274    2.442090   5.933966
H   -1.473774    3.686059   4.693103
H   -1.312698    2.565081   3.434884
O    1.296592    0.304845   2.621281
H    1.562998    1.076368   3.158999
