 26
Energy: -16507.67863815.7 eV PBE+vdW (tier 2 basis)
N   -0.143888   -1.985517   0.289408
C   -0.154962   -0.690192   0.974843
C    1.221775   -0.139166   1.354860
O    1.533195    1.032133   1.328774
H    0.311339   -1.908100  -0.620415
H    0.395487   -2.664461   0.830814
H   -0.579432    0.054210   0.286160
C   -1.034894   -0.721378   2.244784
C   -2.552674   -0.858076   1.987795
C   -3.146120   -2.251261   2.208086
N   -2.697050   -3.192281   1.189638
C   -2.690017   -4.563645   1.370384
N   -1.951634   -5.418617   0.738924
N   -3.567369   -5.031911   2.351520
H   -0.846848    0.214033   2.789942
H   -0.683177   -1.535003   2.899715
H   -2.793075   -0.519128   0.967108
H   -3.082485   -0.172862   2.664031
H   -4.246717   -2.156317   2.188207
H   -2.879744   -2.606754   3.219891
H   -1.912152   -2.850035   0.623114
H   -1.284977   -4.938373   0.128319
H   -4.469527   -4.567205   2.395293
H   -3.651113   -6.042938   2.302142
O    2.074397   -1.122509   1.766012
H    2.904271   -0.673343   2.018331
