 26
Energy: -16507.58169315.7 eV PBE+vdW (tier 2 basis)
N    0.403848   -0.751239   0.163889
C    0.162806   -0.051428   1.427218
C    1.433429    0.570542   1.997863
O    1.553102    0.968957   3.137167
H    0.947551   -0.175666  -0.477405
H   -0.484580   -0.963293  -0.289114
H   -0.503996    0.831635   1.309043
C   -0.518549   -0.964086   2.466982
C    0.313001   -2.121420   3.035982
C    0.653550   -3.239301   2.049849
N    1.322444   -4.329282   2.740506
C    1.869532   -5.394969   2.035958
N    1.986181   -5.531638   0.760352
N    2.323137   -6.414306   2.884227
H   -1.440232   -1.355150   2.005612
H   -0.838975   -0.325465   3.300814
H   -0.263103   -2.553314   3.872181
H    1.241175   -1.734172   3.482090
H    1.317401   -2.854832   1.265664
H   -0.269796   -3.579988   1.538884
H    0.910091   -4.591955   3.631954
H    1.499146   -4.785502   0.258795
H    2.852227   -6.085373   3.687963
H    2.835966   -7.113281   2.354060
O    2.422692    0.695199   1.070069
H    3.162354    1.139483   1.528441
