 26
Energy: -16507.79363615.7 eV PBE+vdW (tier 2 basis)
N   -0.419971    0.325302  -0.306501
C   -0.441300    0.288813   1.152491
C    0.857476    0.802779   1.769339
O    1.927898    0.864730   1.199895
H    0.525928    0.143097  -0.646835
H   -0.694049    1.259362  -0.619606
H   -1.245267    0.956399   1.493379
C   -0.703291   -1.137967   1.707590
C   -1.894004   -1.888134   1.090194
C   -3.255019   -1.185267   1.151315
N   -3.336746   -0.109453   0.153512
C   -3.732551    1.174126   0.467808
N   -3.090295    2.177672  -0.044657
N   -4.792042    1.243495   1.375689
H   -0.836438   -1.057905   2.796764
H    0.201208   -1.747250   1.547795
H   -1.983577   -2.853812   1.610568
H   -1.672525   -2.128845   0.039419
H   -3.431482   -0.770917   2.156892
H   -4.045746   -1.933082   0.970604
H   -2.518556   -0.083667  -0.461297
H   -3.569252    3.062463   0.140930
H   -5.187804    2.169201   1.491810
H   -5.500237    0.520610   1.284142
O    0.697640    1.164340   3.073620
H    1.581452    1.439075   3.387538
