 26
Energy: -16507.93154615.7 eV PBE+vdW (tier 2 basis)
N   -0.659209    0.607645   0.583625
C   -0.272887   -0.210508   1.735462
C    1.036129   -0.994459   1.591644
O    1.839667   -1.107959   2.508590
H   -0.623741    0.032320  -0.260902
H    0.023302    1.353769   0.444074
H   -0.144236    0.453496   2.602120
C   -1.409343   -1.215540   2.038882
C   -1.149519   -2.186070   3.214373
C   -1.151623   -3.676738   2.829147
N   -0.125895   -4.097815   1.876959
C    1.223605   -4.168453   2.122065
N    2.043075   -3.950257   1.128457
N    1.614035   -4.525084   3.395783
H   -1.600281   -1.779951   1.111203
H   -2.314026   -0.619800   2.218162
H   -1.922393   -2.051015   3.985506
H   -0.190927   -1.944309   3.697187
H   -2.117290   -3.944490   2.376140
H   -1.082300   -4.296758   3.736710
H   -0.308395   -3.879439   0.902546
H    3.012404   -4.141154   1.384076
H    2.496275   -4.125739   3.693644
H    0.906818   -4.516908   4.121372
O    1.142518   -1.612985   0.408315
H    1.693886   -2.491519   0.555922
