 26
Energy: -16507.71892715.7 eV PBE+vdW (tier 2 basis)
N   -1.118442    0.499712   0.379835
C   -0.408077    0.380190   1.647387
C    1.040690    0.867451   1.683976
O    1.642523    1.187917   2.696869
H   -1.184136    1.475152   0.088669
H   -0.622657    0.002884  -0.361418
H   -0.934362    1.012876   2.375144
C   -0.448900   -1.098466   2.152792
C   -1.331377   -1.333351   3.385417
C   -0.693395   -0.950283   4.732824
N   -0.318439    0.448333   4.882549
C   -1.283746    1.406314   5.108761
N   -2.491667    1.076015   5.426447
N   -0.807565    2.712018   4.899198
H    0.570578   -1.464627   2.354670
H   -0.832051   -1.693303   1.312034
H   -1.579213   -2.405281   3.439646
H   -2.286039   -0.799683   3.269542
H    0.216816   -1.548447   4.894291
H   -1.398273   -1.188758   5.539083
H    0.481684    0.753457   4.327634
H   -3.060011    1.903365   5.620774
H   -1.363687    3.426982   5.355617
H    0.187143    2.842567   5.067054
O    1.638392    0.887524   0.464506
H    2.559152    1.174914   0.622456
