 26
Energy: -16507.78530815.7 eV PBE+vdW (tier 2 basis)
N    0.346888    0.994498   0.569821
C    0.725899    0.118325   1.679693
C    1.994741   -0.643469   1.243446
O    2.119808   -1.041190   0.100634
H   -0.657415    1.174007   0.580690
H    0.563645    0.506117  -0.303444
H    0.973216    0.745537   2.546378
C   -0.397778   -0.884223   2.066926
C   -0.162904   -1.800141   3.278596
C   -0.521946   -1.214862   4.659393
N   -0.019884    0.125281   4.942717
C    1.304402    0.470662   4.918893
N    2.312905   -0.342755   4.779561
N    1.542502    1.829916   5.026557
H   -0.581797   -1.506683   1.178319
H   -1.315257   -0.292666   2.228536
H    0.870616   -2.172978   3.268986
H   -0.788962   -2.698484   3.169135
H   -0.205598   -1.926343   5.443372
H   -1.614999   -1.139775   4.737878
H   -0.668652    0.794982   5.336747
H    2.027022   -1.311403   4.939121
H    2.526431    2.060931   4.934797
H    0.924618    2.450333   4.512682
O    2.943141   -0.870808   2.160810
H    2.723472   -0.515410   3.082083
