 26
Energy: -16507.61680615.7 eV PBE+vdW (tier 2 basis)
N   -0.907119    0.347643  -0.044147
C   -0.459898    0.537921   1.330757
C    1.036670    0.834145   1.385424
O    1.810243    0.708657   0.458558
H   -0.091746    0.308548  -0.657738
H   -1.507579    1.118144  -0.348232
H   -0.953580    1.414893   1.782641
C   -0.760738   -0.706225   2.213698
C   -2.201879   -0.852131   2.727769
C   -3.338256   -0.895503   1.697250
N   -3.756663    0.451069   1.293450
C   -4.022754    0.814941  -0.010345
N   -3.633957    1.979889  -0.426251
N   -4.663061   -0.167900  -0.756337
H   -0.102060   -0.697195   3.094536
H   -0.489559   -1.587222   1.612789
H   -2.418586   -0.050921   3.456302
H   -2.244550   -1.785880   3.308966
H   -4.192254   -1.432851   2.144423
H   -3.018924   -1.454470   0.805904
H   -3.313734    1.215968   1.791526
H   -4.026702    2.201473  -1.344509
H   -4.977610    0.121297  -1.674221
H   -5.327222   -0.757113  -0.264373
O    1.436032    1.249287   2.620700
H    2.401259    1.387228   2.558494
