 26
Energy: -16507.63281315.7 eV PBE+vdW (tier 2 basis)
N   -0.370172    1.325466   0.797631
C    0.080674    0.329286   1.756791
C    1.400392   -0.362191   1.395460
O    1.757859   -0.688386   0.279894
H    0.344081    2.040237   0.659197
H   -0.545030    0.890548  -0.114496
H    0.247849    0.838758   2.717023
C   -0.998607   -0.752438   2.021676
C   -1.182141   -1.901163   1.012705
C   -1.846397   -1.587938  -0.332632
N   -0.977197   -0.852005  -1.235361
C   -1.335832   -0.456136  -2.514342
N   -0.405506   -0.088200  -3.329457
N   -2.714180   -0.401708  -2.746621
H   -1.946770   -0.206413   2.143297
H   -0.768512   -1.209712   2.995032
H   -1.820709   -2.651725   1.502149
H   -0.223178   -2.411769   0.828555
H   -2.758061   -0.995601  -0.144416
H   -2.167631   -2.552060  -0.776275
H    0.026046   -1.010867  -1.145152
H   -0.794562    0.230274  -4.219847
H   -2.960389   -0.324415  -3.726273
H   -3.296473   -1.069952  -2.252068
O    2.159056   -0.611202   2.500916
H    2.955946   -1.080009   2.182490
