 26
Energy: -16507.65227215.7 eV PBE+vdW (tier 2 basis)
N   -0.579557    0.622803   0.656829
C    0.040424    0.192288   1.905487
C    1.565519    0.051815   1.904502
O    2.284684    0.275228   2.855287
H   -0.250044    1.549639   0.388995
H   -0.329087   -0.010105  -0.104065
H   -0.164383    0.957052   2.668424
C   -0.558522   -1.153205   2.377019
C   -2.076958   -1.128048   2.578243
C   -2.534959   -0.181481   3.686463
N   -3.966408   -0.300353   3.898085
C   -4.634102    0.539226   4.782706
N   -4.165828    1.550316   5.428870
N   -5.976062    0.174443   4.946673
H   -0.055409   -1.446370   3.310919
H   -0.307402   -1.923961   1.631084
H   -2.400688   -2.153298   2.823479
H   -2.573730   -0.847772   1.639381
H   -2.324516    0.859563   3.397691
H   -1.960969   -0.382998   4.613427
H   -4.326865   -1.250264   3.873706
H   -3.150214    1.620416   5.334389
H   -6.469713    0.872605   5.495653
H   -6.462051   -0.041483   4.080011
O    2.047895   -0.390999   0.705503
H    3.013515   -0.478513   0.824168
