 26
Energy: -16507.79594215.7 eV PBE+vdW (tier 2 basis)
N   -0.410022    0.234665   0.277565
C   -0.376807   -0.167793   1.698067
C    0.559058   -1.391278   1.801430
O    1.108500   -1.741945   2.828053
H    0.349792    0.875413   0.049237
H    0.214968   -1.470055  -0.012621
H    0.037860    0.611742   2.357571
C   -1.812992   -0.515345   2.158897
C   -2.103516   -0.471019   3.665811
C   -1.558817   -1.627938   4.512145
N   -1.987767   -2.915844   3.977521
C   -1.366007   -4.121691   4.308068
N   -2.120706   -5.160206   4.461458
N    0.012060   -4.052551   4.447652
H   -2.098915   -1.498956   1.757772
H   -2.474788    0.224240   1.679367
H   -3.199829   -0.441415   3.778421
H   -1.735515    0.475252   4.093366
H   -1.895802   -1.484248   5.556425
H   -0.465763   -1.597393   4.527882
H   -2.994512   -3.066590   4.007335
H   -1.561556   -6.010433   4.570217
H    0.470603   -4.954415   4.489962
H    0.510515   -3.371491   3.873035
O    0.700237   -2.050126   0.644073
H   -1.287607    0.696192   0.042552
