 26
Energy: -16507.69386415.7 eV PBE+vdW (tier 2 basis)
N    0.070163    0.488327  -0.772529
C   -0.495666    0.503853   0.578439
C    0.413219    1.124736   1.640648
O    0.107635    2.037278   2.381196
H    0.337302    1.428773  -1.065141
H    0.917454   -0.081382  -0.794239
H   -1.379983    1.156940   0.557207
C   -0.911531   -0.922493   0.981195
C   -1.531653   -1.071331   2.374337
C   -2.823237   -0.269983   2.614515
N   -3.904542   -0.527226   1.671767
C   -4.630451   -1.701661   1.723342
N   -4.424823   -2.567669   2.656916
N   -5.539539   -1.809971   0.655578
H   -0.024120   -1.571091   0.914165
H   -1.608062   -1.279451   0.207690
H   -0.806971   -0.773169   3.149478
H   -1.752306   -2.133009   2.547676
H   -2.622328    0.810531   2.596342
H   -3.202996   -0.514565   3.614381
H   -3.806983   -0.123546   0.746901
H   -5.122303   -3.314759   2.626476
H   -6.190432   -2.581277   0.758255
H   -6.021978   -0.945572   0.420659
O    1.645799    0.536548   1.674684
H    2.142232    0.997271   2.378174
