 26
Energy: -16507.81384315.7 eV PBE+vdW (tier 2 basis)
N    1.673251   -0.481913   0.695334
C    0.613539   -0.788749   1.678131
C   -0.610029    0.114942   1.375289
O   -1.532408    0.282675   2.147796
H    2.213860   -1.310950   0.456211
H    0.330481    0.389073  -0.190758
H    0.262542   -1.810562   1.459535
C    1.000266   -0.714345   3.158215
C    1.401921    0.696158   3.634568
C    0.913707    1.009132   5.051221
N   -0.528480    0.937981   5.109240
C   -1.237594    1.013069   6.289801
N   -0.769495    1.137295   7.487852
N   -2.619724    0.966644   6.095750
H    1.808995   -1.433434   3.353489
H    0.130863   -1.050844   3.739226
H    0.984339    1.461800   2.958432
H    2.492847    0.828970   3.607543
H    1.290608    2.005268   5.350997
H    1.340631    0.281148   5.763615
H   -1.039241    1.052875   4.237252
H    0.240744    1.292107   7.481576
H   -2.940744    0.329950   5.371964
H   -3.109826    0.846866   6.976402
O   -0.561700    0.679005   0.160070
H    2.326649    0.211839   1.061250
