 26
Energy: -16507.75174815.7 eV PBE+vdW (tier 2 basis)
N   -0.006536   -0.780889  -0.730183
C   -0.605431   -0.238970   0.501744
C    0.441736    0.540640   1.294720
O    0.601578    1.747797   1.248924
H    0.736659   -1.443926  -0.502278
H    0.412201   -0.034523  -1.286598
H   -1.346473    0.509226   0.196015
C   -1.285692   -1.381540   1.269657
C   -1.911660   -1.058732   2.633162
C   -3.009311    0.013480   2.641242
N   -2.486194    1.356973   2.435259
C   -1.945473    2.086954   3.475960
N   -1.942476    1.613415   4.676744
N   -1.464104    3.330656   3.033111
H   -0.542640   -2.182624   1.411548
H   -2.048440   -1.791082   0.588931
H   -1.140253   -0.761567   3.358017
H   -2.346952   -1.989969   3.027514
H   -3.540416   -0.026110   3.604014
H   -3.741464   -0.182175   1.843809
H   -2.864881    1.905545   1.674412
H   -1.416819    2.223098   5.307124
H   -0.987455    3.848861   3.764422
H   -0.873858    3.245563   2.204220
O    1.275726   -0.270477   2.003485
H    1.938804    0.317114   2.414739
