 26
Energy: -16507.75190615.7 eV PBE+vdW (tier 2 basis)
N   -0.463907    0.361174  -0.252242
C    0.142536    0.251881   1.072948
C    1.641879   -0.031760   1.008125
O    2.219015   -0.390438  -0.007469
H    0.171464   -0.063164  -0.933156
H   -0.550891    1.339399  -0.521625
H    0.007986    1.192003   1.628123
C   -0.538909   -0.856359   1.929684
C   -0.519788   -2.276552   1.347074
C    0.817753   -3.038507   1.378221
N    1.354058   -3.206623   2.723552
C    2.641731   -3.030913   3.180598
N    3.087115   -3.298124   4.360660
N    3.544513   -2.407616   2.284901
H   -1.588444   -0.550143   2.038307
H   -0.090308   -0.851558   2.933029
H   -0.867492   -2.249379   0.302595
H   -1.268938   -2.875996   1.890191
H    1.556854   -2.517047   0.762922
H    0.663368   -4.023988   0.903748
H    0.749590   -3.680012   3.385145
H    2.350024   -3.654529   4.974675
H    4.486112   -2.522277   2.654958
H    3.490703   -2.717376   1.316358
O    2.224824    0.044679   2.215368
H    2.999683   -0.589370   2.212348
