 26
Energy: -16507.63303615.7 eV PBE+vdW (tier 2 basis)
N    0.933039   -0.885157  -0.392745
C    0.384454    0.047702   0.590417
C    1.405506    0.822566   1.424641
O    1.325444    1.999464   1.707841
H    1.512821   -1.586330   0.070906
H    1.534503   -0.398708  -1.057391
H   -0.165936    0.826985   0.043220
C   -0.584299   -0.680193   1.546913
C   -1.811198   -1.280620   0.850825
C   -2.776199   -0.248763   0.245554
N   -3.306589    0.743316   1.184160
C   -4.052545    0.379282   2.300497
N   -3.828114    0.972944   3.423162
N   -4.976809   -0.642247   2.059538
H   -0.901450    0.017367   2.336970
H   -0.026889   -1.481861   2.056489
H   -2.362913   -1.888619   1.582973
H   -1.484815   -1.959146   0.049082
H   -3.610507   -0.781188  -0.233323
H   -2.289013    0.313922  -0.563255
H   -2.642964    1.465228   1.454453
H   -4.533505    0.730600   4.124393
H   -5.413486   -0.631183   1.141823
H   -5.650326   -0.771890   2.805869
O    2.437430    0.033207   1.848626
H    3.007108    0.610900   2.392299
