 26
Energy: -16507.66962115.7 eV PBE+vdW (tier 2 basis)
N   -0.139331    0.417770  -0.282793
C    0.231736   -0.130388   1.015770
C    1.476636   -1.021122   1.072272
O    2.040418   -1.347047   2.102107
H   -0.319328   -0.326134  -0.956697
H    0.620586    0.975735  -0.670780
H    0.489686    0.716464   1.671328
C   -0.970321   -0.832671   1.694394
C   -1.559070   -2.048959   0.965824
C   -0.819117   -3.374939   1.184725
N   -0.850628   -3.783318   2.587155
C    0.128390   -4.589372   3.165353
N   -0.252363   -5.536601   3.956157
N    1.434319   -4.267781   2.797538
H   -1.744088   -0.059334   1.788603
H   -0.679823   -1.131030   2.711503
H   -1.640097   -1.864344  -0.117201
H   -2.598325   -2.176984   1.307922
H    0.228373   -3.305737   0.871463
H   -1.273472   -4.147577   0.536534
H   -1.760886   -4.114479   2.899798
H    0.544786   -5.957072   4.441674
H    2.136618   -4.764006   3.334136
H    1.646721   -3.272833   2.707645
O    1.911412   -1.429736  -0.149902
H    2.690099   -1.996488   0.018361
