 26
Energy: -16507.64069815.7 eV PBE+vdW (tier 2 basis)
N   -0.638667   -0.308048  -0.094316
C   -0.601041    0.349221   1.216102
C    0.328947    1.564157   1.266865
O   -0.007376    2.699147   1.537128
H   -0.927104    0.350369  -0.818776
H    0.293329   -0.640103  -0.348403
H   -1.604110    0.751247   1.418412
C   -0.238940   -0.675151   2.301099
C   -0.230344   -0.101527   3.719534
C    0.010795   -1.162210   4.804852
N    1.267928   -1.904288   4.697477
C    2.510848   -1.281259   4.731547
N    3.434800   -1.693770   3.931666
N    2.600348   -0.231770   5.650156
H    0.748496   -1.101541   2.063798
H   -0.972402   -1.492508   2.217970
H   -1.193247    0.391312   3.932139
H    0.541069    0.678361   3.812340
H   -0.793787   -1.912035   4.784822
H   -0.049209   -0.686569   5.794863
H    1.277699   -2.616079   3.971878
H    4.338277   -1.263592   4.146728
H    3.547351    0.084476   5.824453
H    2.066446   -0.347445   6.507049
O    1.614655    1.235638   0.947081
H    2.126908    2.065051   0.999576
