 26
Energy: -16507.88503515.7 eV PBE+vdW (tier 2 basis)
N    0.999515   -0.635082   0.513040
C    0.418489   -0.255372   1.806086
C    1.393550   -0.409708   2.977400
O    2.137571   -1.373841   3.083090
H    1.487562   -1.527195   0.636933
H    1.728169    0.035810   0.262671
H    0.090195    0.792535   1.748435
C   -0.808229   -1.163168   2.076208
C   -1.845029   -0.733871   3.127217
C   -1.436272   -0.670706   4.610064
N   -0.756679   -1.871756   5.079751
C    0.365038   -1.886483   5.860393
N    1.046078   -0.803882   6.113881
N    0.677279   -3.140811   6.382069
H   -0.432822   -2.172550   2.310486
H   -1.327292   -1.243963   1.110340
H   -2.696955   -1.428027   3.031393
H   -2.247988    0.258469   2.868589
H   -2.343694   -0.497138   5.213558
H   -0.767061    0.171443   4.795269
H   -1.283176   -2.735878   5.036785
H    1.861787   -1.008874   6.690923
H    1.655886   -3.244236   6.628816
H    0.350979   -3.937067   5.841600
O    1.270584    0.559827   3.893600
H    1.392141    0.126476   4.831001
