 26
Energy: -16507.71775015.7 eV PBE+vdW (tier 2 basis)
N   -0.634034    1.274128   1.018704
C   -0.041905    0.353190   1.993519
C    1.360523   -0.158144   1.629699
O    1.798366   -1.268238   1.855469
H   -0.293273    2.221106   1.174124
H   -0.374836    1.028129   0.048731
H    0.129430    0.936309   2.915927
C   -0.963192   -0.809507   2.419952
C   -1.345125   -1.892052   1.389654
C   -2.586490   -1.612364   0.529540
N   -2.421456   -0.561613  -0.481821
C   -1.520990   -0.740940  -1.522359
N   -0.658259    0.190592  -1.783643
N   -1.629347   -1.964335  -2.176486
H   -1.878263   -0.351219   2.826361
H   -0.462953   -1.308542   3.261385
H   -1.546884   -2.820518   1.946687
H   -0.491247   -2.125492   0.736339
H   -3.429545   -1.309569   1.168541
H   -2.894914   -2.543392   0.034561
H   -2.245329    0.346427  -0.040290
H   -0.153624    0.012532  -2.655462
H   -1.095093   -2.042863  -3.033510
H   -2.566542   -2.348182  -2.249402
O    2.115898    0.811654   1.037911
H    2.984681    0.397980   0.871237
