 26
Energy: -16507.75473015.7 eV PBE+vdW (tier 2 basis)
N   -0.803501   -0.168949   0.097556
C   -0.439124   -0.313213   1.505700
C    0.947872    0.254300   1.820798
O    1.939908    0.086678   1.143253
H   -0.055901   -0.552748  -0.485399
H   -0.880978    0.818251  -0.150090
H   -1.176167    0.240711   2.103448
C   -0.478090   -1.809408   1.883624
C   -0.122070   -2.155204   3.333631
C   -1.126997   -1.629148   4.372356
N   -0.793208   -1.947749   5.749868
C    0.158084   -1.217331   6.458641
N    0.734515   -0.116092   6.123956
N    0.480009   -1.821350   7.680677
H    0.213860   -2.337212   1.208929
H   -1.489208   -2.166176   1.635836
H    0.885257   -1.789565   3.585185
H   -0.072075   -3.251655   3.423371
H   -2.126124   -2.041014   4.161470
H   -1.228206   -0.536674   4.303299
H   -0.808837   -2.937353   5.979156
H    0.513783    0.155916   5.163717
H   -0.320146   -2.166618   8.204751
H    1.058883   -1.201304   8.240089
O    0.954142    0.981265   2.975169
H    1.878253    1.264786   3.126661
