 26
Energy: -16507.66484315.7 eV PBE+vdW (tier 2 basis)
N   -0.422396    0.513686   0.005088
C   -0.402177    0.205588   1.445715
C    1.008811    0.534234   1.930030
O    1.329834    1.497848   2.594543
H   -1.386392    0.561613  -0.324809
H    0.036773   -0.232881  -0.519851
H   -1.043058    0.943734   1.941016
C   -0.863057   -1.228098   1.791388
C   -0.781698   -1.692813   3.252623
C   -1.637770   -0.914562   4.261426
N   -1.102594    0.406278   4.553049
C   -0.083920    0.579627   5.469745
N    0.359845   -0.422475   6.151759
N    0.326198    1.922180   5.530585
H   -0.272047   -1.921038   1.171575
H   -1.904889   -1.313096   1.436733
H    0.259262   -1.682022   3.608415
H   -1.095164   -2.747943   3.286118
H   -1.704506   -1.493579   5.194598
H   -2.659023   -0.782357   3.873722
H   -1.696033    1.211788   4.405516
H    1.179618   -0.153717   6.700455
H    1.120748    2.058254   6.147981
H    0.521918    2.301317   4.602709
O    1.916409   -0.379002   1.487159
H    2.788009   -0.069043   1.800818
