 26
Energy: -16507.75776315.7 eV PBE+vdW (tier 2 basis)
N    0.848388    0.114570  -0.741204
C    1.052131   -0.264631   0.671951
C   -0.185473    0.180149   1.469388
O   -0.493216   -0.292088   2.548250
H    1.733619    0.337849  -1.195123
H    0.416382   -0.641444  -1.272104
H    1.141349   -1.351841   0.805796
C    2.345772    0.411367   1.179040
C    2.613893    0.508752   2.687728
C    2.545008   -0.800532   3.505363
N    2.977221   -1.983716   2.780190
C    2.246795   -3.159588   2.624669
N    2.724136   -4.284012   2.195107
N    0.908922   -3.085906   2.968483
H    2.360343    1.437158   0.774963
H    3.176009   -0.131378   0.701631
H    1.922496    1.228309   3.151333
H    3.617287    0.950896   2.788916
H    1.517349   -0.963310   3.838261
H    3.141835   -0.671942   4.424025
H    3.975538   -2.116903   2.673641
H    3.739762   -4.236594   2.077847
H    0.400512   -3.916631   2.689682
H    0.399666   -2.208826   2.863435
O   -0.891656    1.148682   0.869899
H   -0.448069    1.230611  -0.024171
