 26
Energy: -16507.60325815.7 eV PBE+vdW (tier 2 basis)
N    1.015235    1.295997   1.215911
C    0.350623    0.764965   2.420128
C    1.481849    0.427868   3.393097
O    1.848661    1.158013   4.289722
H    1.458628    2.192071   1.421563
H    0.316982    1.466242   0.491356
H   -0.254848    1.521654   2.953193
C   -0.560010   -0.406293   2.028418
C   -1.522260   -0.901680   3.115179
C   -0.891238   -1.648937   4.302536
N   -0.115848   -2.828484   3.946812
C   -0.750371   -4.003671   3.592762
N   -2.032909   -4.118932   3.676531
N    0.153016   -4.974894   3.127533
H    0.051710   -1.229899   1.632505
H   -1.166757   -0.053645   1.178300
H   -2.253865   -1.578213   2.652496
H   -2.095320   -0.049704   3.516964
H   -1.696052   -1.981771   4.969652
H   -0.237200   -0.986969   4.888979
H    0.761456   -2.642720   3.470507
H   -2.329369   -5.079942   3.492081
H    1.036980   -5.007489   3.629791
H   -0.257364   -5.898063   3.036217
O    2.100254   -0.761250   3.129406
H    2.843457   -0.808321   3.762262
