 26
Energy: -16507.63427815.7 eV PBE+vdW (tier 2 basis)
N    0.166767    0.179918  -0.213419
C    0.168822    0.054142   1.242448
C    1.502616   -0.529570   1.687512
O    2.441421   -0.766288   0.956375
H    1.126758    0.216554  -0.558926
H   -0.315794    1.025959  -0.506989
H    0.117727    1.036487   1.754559
C   -1.035195   -0.769300   1.761984
C   -1.009782   -2.278791   1.489977
C   -1.103910   -2.689401   0.019867
N   -1.217514   -4.135477  -0.084339
C   -1.192003   -4.764973  -1.324088
N   -0.955183   -4.244709  -2.477899
N   -1.476890   -6.134317  -1.228032
H   -1.938100   -0.325320   1.314378
H   -1.114472   -0.610678   2.846682
H   -1.862284   -2.721833   2.033134
H   -0.108275   -2.731193   1.932461
H   -0.205584   -2.366732  -0.520571
H   -1.956789   -2.169290  -0.458467
H   -1.857018   -4.564630   0.579678
H   -0.897320   -3.225212  -2.424141
H   -1.321231   -6.590302  -2.122826
H   -0.989786   -6.609582  -0.472337
O    1.544217   -0.740591   3.031199
H    2.434484   -1.096404   3.218011
