 26
Energy: -16507.58351315.7 eV PBE+vdW (tier 2 basis)
N   -0.475568    0.625473   1.480168
C    0.850032    0.006995   1.477116
C    1.714501    0.573982   0.360700
O    2.912761    0.743929   0.429708
H   -0.968718    0.421290   0.609815
H   -1.039206    0.248604   2.242085
H    1.362033    0.307244   2.402407
C    0.892538   -1.544653   1.360681
C    0.194484   -2.284384   2.505119
C    0.873379   -2.103499   3.870489
N    0.272239   -2.926848   4.907919
C    0.625930   -4.263821   5.074595
N    1.431541   -4.971722   4.362202
N   -0.001691   -4.837434   6.184848
H    1.946645   -1.861528   1.305164
H    0.426067   -1.830668   0.405267
H    0.168057   -3.356732   2.263730
H   -0.859696   -1.974624   2.586770
H    0.792419   -1.059963   4.204074
H    1.956692   -2.309605   3.778694
H    0.040656   -2.449511   5.771902
H    1.931288   -4.404282   3.673710
H    0.174062   -5.837337   6.221404
H   -0.989816   -4.617052   6.275478
O    0.999453    0.812576  -0.775001
H    1.643917    1.135570  -1.434041
