 26
Energy: -16507.74089515.7 eV PBE+vdW (tier 2 basis)
N   -0.394632    0.045463   0.196511
C   -0.104197    0.038914   1.642245
C    1.404094    0.290108   1.847099
O    2.138265    0.046771   0.745651
H   -0.656558    0.972896  -0.135402
H    1.449814   -0.147956   0.048118
H   -0.626192    0.847503   2.178831
C   -0.516834   -1.327131   2.229993
C   -0.188663   -1.590789   3.703075
C   -0.784947   -0.585286   4.703728
N   -2.212923   -0.298651   4.550432
C   -3.219441   -1.258469   4.569600
N   -4.347858   -1.204370   3.943296
N   -2.935266   -2.373805   5.354109
H   -0.044180   -2.112450   1.618706
H   -1.604211   -1.428178   2.078789
H    0.899751   -1.604216   3.857635
H   -0.558768   -2.597313   3.943346
H   -0.260986    0.375934   4.623589
H   -0.584598   -0.943122   5.725487
H   -2.431307    0.480577   3.940892
H   -4.381218   -0.402609   3.307289
H   -3.763423   -2.946463   5.484371
H   -2.438887   -2.190525   6.220845
O    1.884014    0.644318   2.902491
H   -1.155658   -0.592659  -0.034099
