 26
Energy: -16507.69619815.7 eV PBE+vdW (tier 2 basis)
N    0.309994    0.126210   0.343668
C    0.752684   -0.300868   1.662808
C    2.096746   -1.041262   1.654658
O    2.646348   -1.498979   0.675337
H    0.359143   -0.654957  -0.312675
H    0.945953    0.832550  -0.026822
H    0.894130    0.598491   2.281640
C   -0.322152   -1.164363   2.363560
C   -0.586155   -2.519202   1.702142
C   -1.634591   -3.360792   2.451812
N   -2.987442   -2.832489   2.455641
C   -3.831674   -2.947295   1.357286
N   -3.643961   -3.602415   0.263917
N   -5.022565   -2.231486   1.531278
H   -1.240852   -0.559791   2.365789
H   -0.020027   -1.317512   3.411036
H    0.345170   -3.107011   1.657173
H   -0.919455   -2.376235   0.663226
H   -1.325002   -3.484103   3.501265
H   -1.672574   -4.373493   2.024523
H   -3.140904   -2.003513   3.020058
H   -2.691986   -3.967841   0.195182
H   -5.456332   -2.347628   2.443648
H   -5.670767   -2.434421   0.775510
O    2.622382   -1.146905   2.909812
H    3.459765   -1.641093   2.811532
