 26
Energy: -16507.76823815.7 eV PBE+vdW (tier 2 basis)
N    0.020498   -0.464250  -0.340540
C   -0.267216   -0.066361   1.050382
C    1.051127    0.290478   1.735156
O    1.839828   -0.497975   2.226983
H    0.490924    0.289586  -0.843441
H    0.649328   -1.270287  -0.349669
H   -0.888089    0.840228   1.007756
C   -1.029826   -1.188440   1.760171
C   -1.728088   -0.808453   3.072210
C   -0.806578   -0.441913   4.253363
N    0.181978   -1.440412   4.609503
C   -0.143832   -2.594172   5.304943
N   -1.256216   -2.901704   5.882893
N    0.914815   -3.508768   5.344517
H   -0.347826   -2.036857   1.929499
H   -1.786303   -1.538157   1.044007
H   -2.359063   -1.658510   3.370213
H   -2.413537    0.037706   2.898523
H   -1.423863   -0.230402   5.139644
H   -0.267041    0.494241   4.044836
H    0.962606   -1.516463   3.961005
H   -1.987792   -2.215548   5.687205
H    0.718100   -4.255466   6.004463
H    1.831521   -3.095493   5.492646
O    1.315911    1.624717   1.657385
H    2.206254    1.750174   2.041804
