 26
Energy: -16507.61814615.7 eV PBE+vdW (tier 2 basis)
N    0.103776   -1.008420  -0.104880
C    0.085192   -0.153526   1.075695
C    1.469837    0.385896   1.454489
O    2.527698   -0.036826   1.038033
H    0.909275   -1.636049  -0.061218
H    0.249177   -0.442358  -0.940840
H   -0.547132    0.720233   0.858126
C   -0.550918   -0.875549   2.286742
C    0.218292   -2.107900   2.766338
C   -0.453523   -2.768311   3.967796
N    0.310189   -3.937877   4.397951
C   -0.088966   -4.738448   5.462276
N    0.073324   -6.014650   5.373302
N   -0.658937   -4.036615   6.528472
H   -1.565746   -1.166139   1.978889
H   -0.651988   -0.153756   3.111099
H    1.251732   -1.842553   3.040046
H    0.286128   -2.842292   1.947144
H   -1.499640   -3.029973   3.717305
H   -0.503020   -2.040387   4.791854
H    0.609673   -4.538641   3.632668
H   -0.130089   -6.482225   6.260636
H   -0.746858   -4.583126   7.377759
H   -0.278235   -3.110844   6.703725
O    1.388011    1.410419   2.350863
H    2.308820    1.671528   2.548618
