 26
Energy: -16507.73631515.7 eV PBE+vdW (tier 2 basis)
N   -0.402389    0.990090   1.230020
C    0.303091   -0.062369   1.964232
C    1.612950   -0.459499   1.279784
O    1.854833   -0.319192   0.098956
H    0.151323    1.848464   1.245285
H   -0.466579    0.722639   0.244590
H    0.553889    0.324487   2.963576
C   -0.568739   -1.337372   2.126440
C   -1.524777   -1.373023   3.329726
C   -2.739731   -0.426463   3.287692
N   -2.442194    0.996662   3.347027
C   -1.963681    1.632632   4.483712
N   -1.319300    2.756162   4.500714
N   -2.302984    1.051282   5.703809
H    0.104538   -2.201567   2.217830
H   -1.129189   -1.484680   1.188368
H   -0.942777   -1.192482   4.249037
H   -1.910240   -2.402348   3.414162
H   -3.436769   -0.684975   4.099011
H   -3.297823   -0.599999   2.354429
H   -1.953324    1.308014   2.500667
H   -1.245004    3.141512   3.555151
H   -1.819817    1.506548   6.471264
H   -2.291252    0.039604   5.763496
O    2.490112   -1.023458   2.154639
H    3.275240   -1.277690   1.630981
