 26
Energy: -16507.70183015.7 eV PBE+vdW (tier 2 basis)
N   -0.311529    0.945609   0.119115
C   -0.125332    0.440432   1.481774
C    1.228924   -0.245936   1.646478
O    1.659046   -1.125302   0.920935
H   -0.194906    0.180095  -0.548601
H    0.401312    1.640506  -0.107222
H   -0.155974    1.298047   2.168834
C   -1.278690   -0.519689   1.826257
C   -1.327710   -1.030357   3.273214
C   -0.489796   -2.283767   3.563875
N   -0.920243   -3.424217   2.758546
C   -0.065194   -4.434023   2.309191
N   -0.378093   -5.678376   2.160328
N    1.220519   -4.010989   1.996305
H   -1.247282   -1.380475   1.139056
H   -2.195958    0.036583   1.590817
H   -2.376193   -1.256797   3.523700
H   -1.022490   -0.236423   3.973804
H   -0.555404   -2.512863   4.643529
H    0.572861   -2.114591   3.362298
H   -1.830022   -3.792960   3.018408
H   -1.298861   -5.880422   2.560179
H    1.741445   -4.759994   1.551237
H    1.304495   -3.122519   1.503218
O    1.937870    0.240567   2.699496
H    2.778828   -0.259402   2.722484
