 26
Energy: -16507.53125315.7 eV PBE+vdW (tier 2 basis)
N    0.727721    0.745350   0.379589
C    0.694730   -0.236784   1.454059
C    1.546003   -1.505132   1.305931
O    1.714747   -2.320823   2.189545
H    0.045105    0.536881  -0.349087
H    1.645438    0.797219  -0.058230
H    1.124601    0.235250   2.355642
C   -0.760034   -0.619018   1.821064
C   -1.421096   -1.756979   1.022623
C   -1.434111   -1.642256  -0.505034
N   -2.060173   -0.402192  -0.948294
C   -2.073496    0.051403  -2.266036
N   -2.778355    1.027721  -2.727253
N   -1.143682   -0.564197  -3.101333
H   -1.343476    0.309091   1.738293
H   -0.783214   -0.911610   2.878686
H   -2.459119   -1.856669   1.381230
H   -0.934381   -2.711079   1.274362
H   -1.947661   -2.536737  -0.910246
H   -0.403843   -1.662553  -0.889119
H   -2.881640   -0.121257  -0.423477
H   -3.320963    1.482111  -1.987909
H   -1.262060   -0.251346  -4.060013
H   -1.048419   -1.571297  -3.021041
O    2.134076   -1.629528   0.079798
H    2.665859   -2.448033   0.130303
