 26
Energy: -16507.74004815.7 eV PBE+vdW (tier 2 basis)
N    0.120408    0.582608   0.819710
C    0.662941   -0.418743   1.741197
C    1.843733   -1.245818   1.229077
O    2.693132   -1.747926   1.932798
H   -0.278265    0.133749  -0.006268
H    0.861408    1.200052   0.486926
H    1.049496    0.110963   2.624623
C   -0.429211   -1.410673   2.206188
C   -1.718628   -0.784783   2.766391
C   -1.536441    0.227070   3.899655
N   -1.180659    1.537551   3.366330
C   -0.555412    2.460472   4.172572
N   -0.408478    2.249158   5.438028
N   -0.086402    3.574102   3.445241
H    0.027745   -2.057659   2.968555
H   -0.693113   -2.065998   1.359403
H   -2.340012   -1.612707   3.137548
H   -2.298587   -0.315246   1.956541
H   -0.768520   -0.110020   4.617393
H   -2.470440    0.311276   4.476632
H   -0.891434    1.528515   2.383636
H    0.015090    3.057483   5.899778
H    0.148620    4.364780   4.036420
H   -0.697120    3.857151   2.681985
O    1.829232   -1.397555  -0.129646
H    2.594359   -1.968145  -0.338174
