 26
Energy: -16507.72088815.7 eV PBE+vdW (tier 2 basis)
N   -0.603559   -0.806585   0.229574
C   -0.389668   -0.340596   1.612423
C    0.776630   -1.144790   2.209890
O    1.472892   -0.763713   3.123578
H   -0.027020   -0.294391  -0.437600
H    0.295333   -2.326784   0.859005
H   -0.103511    0.720933   1.677704
C   -1.695058   -0.564180   2.408701
C   -1.625396   -0.402145   3.933840
C   -1.282002   -1.695810   4.690485
N   -2.248638   -2.757028   4.423289
C   -1.918889   -4.107788   4.322550
N   -2.709466   -4.964269   4.881058
N   -0.819201   -4.404138   3.531330
H   -2.076400   -1.574776   2.185996
H   -2.429608    0.144361   1.996054
H   -2.606628   -0.050061   4.286628
H   -0.899370    0.374486   4.216089
H   -1.231683   -1.472656   5.770633
H   -0.279327   -2.044486   4.419240
H   -3.110821   -2.683588   4.958099
H   -2.474144   -5.920393   4.601375
H   -0.352333   -5.279329   3.726799
H   -0.206037   -3.669110   3.196025
O    0.914106   -2.367902   1.643886
H   -1.577200   -0.697263  -0.052651
