 26
Energy: -16507.58144815.7 eV PBE+vdW (tier 2 basis)
N    0.349145    0.113771   1.190293
C   -0.122946   -0.576830   2.383917
C    0.903559   -0.580731   3.522217
O    2.106822   -0.522073   3.377172
H    1.288766   -0.217377   0.958521
H    0.443420    1.112788   1.375530
H   -1.021983   -0.058416   2.750428
C   -0.511858   -2.043065   2.085576
C   -1.664708   -2.215371   1.083945
C   -1.235450   -2.247724  -0.382842
N   -2.401025   -2.502192  -1.231216
C   -2.317659   -2.576390  -2.615704
N   -3.286268   -2.100270  -3.322957
N   -1.141420   -3.160850  -3.093828
H   -0.790283   -2.513030   3.039202
H    0.384545   -2.578959   1.730581
H   -2.398389   -1.404892   1.230639
H   -2.194330   -3.154489   1.304828
H   -0.506997   -3.064028  -0.511693
H   -0.722904   -1.308270  -0.645864
H   -3.220079   -1.950719  -0.984081
H   -3.172512   -2.325731  -4.314631
H   -1.183884   -3.427352  -4.070876
H   -0.737199   -3.888827  -2.511620
O    0.310830   -0.683896   4.745301
H    1.037120   -0.718846   5.398707
