 26
Energy: -16507.59072615.7 eV PBE+vdW (tier 2 basis)
N    0.643768   -0.321173   0.377334
C   -0.013055   -0.213057   1.678691
C    0.850861   -0.423839   2.929401
O    0.522298   -0.065972   4.040213
H    1.241923   -1.147452   0.349335
H    1.266413    0.473665   0.234368
H   -0.402289    0.810666   1.773133
C   -1.251669   -1.145337   1.771501
C   -1.062167   -2.628250   1.413649
C   -0.118520   -3.471950   2.287160
N   -0.450024   -3.406961   3.702737
C    0.404372   -3.399539   4.785494
N    0.079280   -3.337123   6.029531
N    1.785465   -3.398818   4.471224
H   -1.999098   -0.738589   1.075771
H   -1.667444   -1.045169   2.784000
H   -0.717176   -2.717687   0.371928
H   -2.061107   -3.095172   1.426724
H    0.911553   -3.121133   2.164035
H   -0.151480   -4.513689   1.916232
H   -1.430044   -3.488819   3.945577
H   -0.927956   -3.205773   6.155049
H    2.295883   -3.527061   5.343515
H    2.058099   -4.106773   3.790557
O    1.993599   -1.119290   2.675496
H    2.258670   -1.540267   3.529999
