 26
Energy: -16507.70848915.7 eV PBE+vdW (tier 2 basis)
N   -0.185789   -1.935558   0.279495
C   -0.023284   -0.844907   1.243825
C    1.440663   -0.444129   1.421644
O    2.398319   -1.142686   1.160744
H    0.472936   -2.681946   0.518629
H    0.101585   -1.612559  -0.646946
H   -0.567871    0.029888   0.862910
C   -0.611718   -1.234992   2.628287
C   -2.037662   -0.752577   2.924635
C   -3.151116   -1.227849   1.983470
N   -3.217954   -0.459971   0.735275
C   -3.570470   -1.035521  -0.493069
N   -4.264837   -0.467917  -1.423735
N   -3.072732   -2.316550  -0.671652
H    0.040502   -0.845513   3.423060
H   -0.564316   -2.332768   2.704211
H   -2.048337    0.349267   2.967900
H   -2.291387   -1.090712   3.941852
H   -4.116622   -1.166942   2.517553
H   -3.010768   -2.282811   1.721502
H   -3.645685    0.454449   0.848096
H   -4.677003    0.410212  -1.094899
H   -3.232847   -2.639516  -1.620372
H   -2.107885   -2.438870  -0.339398
O    1.559830    0.809294   1.942299
H    2.517284    0.967054   2.058606
