 26
Energy: -16507.76621115.7 eV PBE+vdW (tier 2 basis)
N    0.066981    0.861112   0.324466
C    0.113827    0.223037   1.627919
C    1.481042   -0.396938   1.970393
O    2.454854   -0.421658   1.249460
H    0.286769    0.188243  -0.425135
H    0.784105    1.584259   0.268562
H   -0.042335    0.998530   2.398298
C   -1.019786   -0.810932   1.816395
C   -0.996831   -1.973842   0.808248
C   -1.815261   -1.687841  -0.466244
N   -1.477404   -2.535525  -1.602668
C   -0.315765   -2.287310  -2.309646
N    0.401913   -1.243799  -2.056898
N   -0.034169   -3.287865  -3.250840
H   -1.973584   -0.266546   1.741874
H   -0.956353   -1.200466   2.840079
H   -1.384809   -2.886311   1.286144
H    0.040492   -2.195917   0.515004
H   -1.668452   -0.649440  -0.783909
H   -2.888661   -1.813027  -0.261296
H   -1.713206   -3.518724  -1.511358
H    1.165978   -1.140652  -2.727309
H    0.715916   -3.048540  -3.890232
H   -0.846593   -3.650733  -3.743222
O    1.504496   -0.910240   3.240178
H    2.411106   -1.250662   3.368405
