 26
Energy: -16507.53907315.7 eV PBE+vdW (tier 2 basis)
N   -0.144576    0.822626   0.239088
C   -0.158306    0.000644   1.448709
C    1.256279   -0.291855   1.927094
O    1.586013   -0.401458   3.088670
H    0.308839    0.325272  -0.528644
H   -1.097636    1.032278  -0.056989
H   -0.604590    0.599736   2.255073
C   -0.911058   -1.358873   1.356678
C   -2.408725   -1.237997   1.058432
C   -3.223815   -0.601376   2.193714
N   -4.667847   -0.567323   1.956688
C   -5.441614   -1.724560   1.846588
N   -6.468090   -1.896050   1.085911
N   -5.024705   -2.769718   2.670224
H   -0.769730   -1.902647   2.304776
H   -0.430607   -1.963680   0.571866
H   -2.810654   -2.244155   0.870782
H   -2.571951   -0.669356   0.127247
H   -2.911630    0.437567   2.373281
H   -3.022206   -1.136819   3.132893
H   -4.958005    0.142557   1.291496
H   -6.583811   -1.116109   0.432906
H   -5.711473   -3.517988   2.671496
H   -4.738201   -2.501557   3.607322
O    2.120728   -0.491187   0.892651
H    2.981865   -0.705511   1.300742
