 26
Energy: -16507.67316415.7 eV PBE+vdW (tier 2 basis)
N    0.522009    0.610799   0.555404
C    0.233010    0.175838   1.921495
C    1.442610   -0.582428   2.436937
O    2.131312   -1.333308   1.778732
H    0.855330   -0.185018   0.007445
H   -0.336831    0.949287   0.119881
H    0.100750    1.070954   2.544844
C   -1.030395   -0.723763   2.045581
C   -1.519618   -1.058077   3.461339
C   -1.877899    0.156024   4.336497
N   -2.855728    1.060651   3.726416
C   -2.497989    2.175520   2.979113
N   -3.107816    2.408389   1.864629
N   -1.459938    2.925202   3.538595
H   -0.839892   -1.657970   1.494780
H   -1.828363   -0.196851   1.500739
H   -0.772939   -1.657637   4.005494
H   -2.409645   -1.702194   3.369556
H   -0.975261    0.733745   4.568835
H   -2.276023   -0.202991   5.297894
H   -3.635495    0.591258   3.270892
H   -2.882781    3.338748   1.501961
H   -1.279961    3.805525   3.069978
H   -1.471071    3.011127   4.550958
O    1.657916   -0.366712   3.767512
H    2.419106   -0.931458   4.007245
