 26
Energy: -16507.75957515.7 eV PBE+vdW (tier 2 basis)
N   -0.338676   -0.961547   0.045925
C   -0.149908   -0.146264   1.251619
C    1.326070    0.158608   1.506380
O    2.254617   -0.498802   1.083990
H   -0.214487   -0.384835  -0.787423
H    0.417917   -1.651517   0.011576
H   -0.665128    0.816361   1.112999
C   -0.740143   -0.850869   2.500416
C   -2.241805   -0.625465   2.734695
C   -3.177065   -0.960591   1.558554
N   -2.963207   -2.265876   0.937147
C   -3.096825   -3.460724   1.634915
N   -2.389154   -4.529636   1.476600
N   -4.114693   -3.463752   2.592278
H   -0.206768   -0.506311   3.397583
H   -0.523599   -1.926291   2.409370
H   -2.413373    0.426989   3.016234
H   -2.538199   -1.231585   3.603481
H   -3.059425   -0.220910   0.753834
H   -4.218641   -0.866900   1.898451
H   -2.129900   -2.239266   0.346191
H   -1.603240   -4.355099   0.843750
H   -4.280321   -4.406821   2.931380
H   -4.972000   -2.996276   2.311417
O    1.492201    1.253577   2.297567
H    2.454424    1.342528   2.444335
