 26
Energy: -16507.67089715.7 eV PBE+vdW (tier 2 basis)
N    0.304213   -0.741536  -0.426137
C    0.165637    0.203523   0.681610
C    1.434358    0.456830   1.497529
O    1.805845    1.537742   1.904394
H    0.678520   -1.629448  -0.088694
H    0.961682   -0.388834  -1.121253
H   -0.104472    1.183323   0.262082
C   -0.961487   -0.239565   1.638264
C   -2.343603   -0.194546   0.985305
C   -3.461015   -0.778845   1.860141
N   -3.671352   -0.120550   3.144428
C   -4.316454    1.100359   3.216908
N   -4.834509    1.640187   2.166838
N   -4.289637    1.634816   4.517686
H   -0.937206    0.415178   2.523346
H   -0.734186   -1.260948   1.991413
H   -2.314758   -0.758912   0.041903
H   -2.604474    0.843179   0.731545
H   -3.262047   -1.841479   2.069571
H   -4.410055   -0.718944   1.313081
H   -2.955126   -0.265830   3.847327
H   -5.376218    2.472773   2.409516
H   -4.885118    2.448269   4.631192
H   -4.444650    0.954662   5.258242
O    2.123517   -0.697069   1.755508
H    2.891153   -0.430270   2.297030
