 26
Energy: -16507.83173015.7 eV PBE+vdW (tier 2 basis)
N    0.032618    0.782270  -0.158990
C   -0.220496    0.302422   1.200591
C    0.815564    0.845022   2.181076
O    1.910739    1.273151   1.877345
H    1.028465    0.987945  -0.264993
H   -0.491158    1.646054  -0.315063
H   -1.204933    0.674339   1.521473
C   -0.231751   -1.250842   1.297833
C   -1.568657   -1.938024   0.970129
C   -2.002763   -1.973250  -0.504418
N   -2.284175   -0.670404  -1.110018
C   -3.305963    0.137264  -0.639521
N   -3.082997    1.401073  -0.455688
N   -4.504298   -0.532528  -0.377502
H    0.037606   -1.535974   2.325206
H    0.569557   -1.632458   0.644883
H   -2.371723   -1.478365   1.568895
H   -1.499470   -2.983969   1.311707
H   -2.881749   -2.627299  -0.597320
H   -1.212358   -2.436288  -1.113927
H   -1.419527   -0.115869  -1.175385
H   -3.949835    1.907013  -0.254849
H   -5.299554    0.077746  -0.226751
H   -4.718400   -1.304070  -1.003237
O    0.388307    0.774472   3.472653
H    1.126840    1.106124   4.019974
