 26
Energy: -16507.68291915.7 eV PBE+vdW (tier 2 basis)
N    0.972079   -0.123518   0.417570
C   -0.092125   -0.105532   1.414305
C    0.330780    0.024219   2.890942
O   -0.398948   -0.147729   3.850193
H    1.579928    0.688465   0.518296
H    1.567023   -0.943944   0.537118
H   -0.691234    0.805306   1.235114
C   -1.036882   -1.305597   1.256026
C   -0.378575   -2.669256   1.526621
C   -1.352997   -3.694299   2.129868
N   -1.834417   -3.294812   3.441062
C   -3.077261   -2.695872   3.642653
N   -4.178886   -2.937049   3.015132
N   -3.061632   -1.791565   4.703512
H   -1.445249   -1.277140   0.237418
H   -1.879719   -1.159955   1.942250
H    0.462295   -2.557113   2.234830
H    0.057452   -3.085130   0.605366
H   -0.863335   -4.678511   2.194564
H   -2.224528   -3.821257   1.472437
H   -1.114117   -2.968978   4.078997
H   -4.079558   -3.733977   2.381002
H   -2.298007   -1.116788   4.672180
H   -3.970801   -1.355882   4.824415
O    1.630969    0.395102   3.039055
H    1.773001    0.488263   4.001724
