 26
Energy: -16507.64310815.7 eV PBE+vdW (tier 2 basis)
N   -0.189532   -0.938341  -0.263901
C    0.322109   -0.302241   0.947387
C    1.839556   -0.409660   1.070689
O    2.462931   -0.115073   2.073183
H    0.324768   -0.638034  -1.090363
H   -1.168589   -0.688705  -0.399786
H    0.149395    0.795984   0.980007
C   -0.333740   -0.901052   2.203734
C   -0.171150   -2.424554   2.334656
C   -0.016077   -2.884046   3.793387
N    1.235358   -2.474290   4.409612
C    2.455910   -3.024806   4.031738
N    2.678000   -4.218728   3.594612
N    3.525812   -2.151056   4.243898
H   -1.399891   -0.627289   2.202848
H    0.114568   -0.387792   3.066416
H    0.713319   -2.765919   1.775703
H   -1.025048   -2.940617   1.874264
H   -0.836228   -2.494642   4.415227
H   -0.093752   -3.979674   3.848443
H    1.288556   -1.512075   4.725002
H    1.828984   -4.789543   3.617566
H    3.400798   -1.240282   3.802708
H    4.396795   -2.590046   3.958201
O    2.445022   -0.818908  -0.070382
H    3.403529   -0.831738   0.119685
