 26
Energy: -16507.72520315.7 eV PBE+vdW (tier 2 basis)
N   -0.362353    0.770498   0.001898
C    0.050639   -0.116466   1.084323
C    1.511898   -0.557648   0.975961
O    2.143534   -0.636075  -0.057660
H    0.083118    1.682581   0.103864
H   -0.024110    0.391961  -0.886137
H   -0.067464    0.417380   2.039427
C   -0.836645   -1.379670   1.126891
C   -2.297871   -1.065331   1.443184
C   -3.190941   -2.312050   1.452095
N   -2.827224   -3.286573   2.472182
C   -3.268652   -3.177395   3.786047
N   -3.965704   -2.235310   4.319996
N   -2.882149   -4.275110   4.564487
H   -0.437372   -2.077463   1.876719
H   -0.760648   -1.885448   0.148737
H   -2.689653   -0.353320   0.703320
H   -2.359337   -0.566403   2.423123
H   -3.119027   -2.821718   0.480530
H   -4.247708   -2.009811   1.563989
H   -2.698685   -4.239466   2.152112
H   -4.296381   -1.565223   3.622098
H   -3.107502   -4.116256   5.542380
H   -1.915706   -4.564097   4.438013
O    2.038302   -0.889559   2.188697
H    2.950568   -1.194468   2.014734
