 26
Energy: -16507.97027215.7 eV PBE+vdW (tier 2 basis)
N   -0.097034    0.288248  -0.099296
C   -0.063198    0.002227   1.332282
C    1.343327   -0.294412   1.891147
O    2.284429   -0.598583   1.184197
H    0.504521   -0.392603  -0.571958
H    0.343690    1.192152  -0.275841
H   -0.440540    0.891018   1.857196
C   -0.983198   -1.200424   1.649726
C   -2.475345   -0.865570   1.709727
C   -2.947950   -0.251992   3.036639
N   -2.615753    1.150425   3.260265
C   -1.640129    1.608005   4.097928
N   -0.697060    0.827254   4.543671
N   -1.737983    2.974164   4.353998
H   -0.681662   -1.664644   2.600376
H   -0.803381   -1.953973   0.867956
H   -3.053810   -1.792944   1.573546
H   -2.746436   -0.212132   0.865148
H   -2.524229   -0.810960   3.881745
H   -4.043880   -0.339636   3.099899
H   -3.109670    1.845236   2.713846
H   -0.168379    1.287287   5.287610
H   -1.032305    3.350018   4.976088
H   -2.668089    3.341582   4.529295
O    1.452838   -0.228406   3.229091
H    0.581221    0.073807   3.650936
