 26
Energy: -16507.63791015.7 eV PBE+vdW (tier 2 basis)
N    0.008239   -0.751320  -0.260303
C    0.098689    0.002246   0.985668
C    1.537134    0.357214   1.369260
O    2.533797   -0.216386   0.985411
H    0.628443   -1.562527  -0.220857
H    0.355039   -0.185246  -1.035598
H   -0.435680    0.953643   0.844937
C   -0.624003   -0.748426   2.131338
C    0.052769   -2.037317   2.627883
C    0.987226   -1.846924   3.831537
N    0.262345   -1.419130   5.026849
C    0.680777   -0.426409   5.908484
N    0.441780   -0.380140   7.176153
N    1.412049    0.604841   5.320276
H   -1.620399   -0.978556   1.732074
H   -0.778435   -0.070572   2.984096
H    0.621214   -2.525543   1.820874
H   -0.727002   -2.760378   2.911650
H    1.765038   -1.103709   3.624261
H    1.521949   -2.792744   4.026499
H   -0.252063   -2.157181   5.495827
H    0.029442   -1.255704   7.510272
H    1.549762    1.357570   5.988112
H    1.071521    0.934934   4.420086
O    1.593099    1.422042   2.228885
H    2.541272    1.553386   2.430701
