 26
Energy: -16507.81265815.7 eV PBE+vdW (tier 2 basis)
N   -0.214773   -0.293026  -0.004011
C   -0.234503   -0.021988   1.446163
C    1.194415    0.348524   1.893695
O    2.137919    0.002441   1.007361
H   -0.860263   -1.040797  -0.255119
H   -0.469329    0.530688  -0.547496
H   -0.873587    0.837212   1.699717
C   -0.736016   -1.276356   2.196230
C   -0.719568   -1.211247   3.726888
C   -1.635105   -0.125187   4.321650
N   -1.570124   -0.004053   5.763946
C   -0.609105    0.723655   6.466587
N   -0.464954    0.715937   7.752013
N    0.165205    1.579888   5.700312
H   -0.129873   -2.134056   1.862846
H   -1.766183   -1.465134   1.847784
H    0.306331   -1.057712   4.088515
H   -1.037394   -2.192119   4.113404
H   -2.680826   -0.331315   4.039035
H   -1.395466    0.860156   3.899695
H   -1.979994   -0.759403   6.299906
H   -1.184597    0.143966   8.202593
H    0.877827    2.024291   6.269331
H    0.514491    1.266393   4.795160
O    1.448509    0.882408   2.955682
H    1.605997   -0.343027   0.231950
