 26
Energy: -16507.59408215.7 eV PBE+vdW (tier 2 basis)
N   -0.127503   -0.727130  -0.476308
C   -0.755923   -0.071706   0.685793
C    0.165837    1.038785   1.192887
O    1.157216    0.877135   1.877372
H    0.792058   -1.088886  -0.213089
H    0.024810   -0.052553  -1.227666
H   -1.692272    0.385858   0.335426
C   -1.057325   -1.114972   1.766832
C   -2.077252   -0.699953   2.833780
C   -1.652574    0.464368   3.727980
N   -2.615515    0.635050   4.811741
C   -2.583715    1.719134   5.678651
N   -3.697378    2.168829   6.150305
N   -1.305166    2.226853   5.918593
H   -0.109846   -1.409398   2.245948
H   -1.437397   -2.000709   1.239167
H   -2.276506   -1.570519   3.477407
H   -3.035380   -0.449711   2.346736
H   -1.551580    1.393235   3.136733
H   -0.655257    0.245171   4.142147
H   -3.580454    0.428070   4.565441
H   -3.541195    2.889254   6.859650
H   -1.246754    2.840017   6.723242
H   -0.537197    1.563288   5.875650
O   -0.200313    2.260680   0.707371
H    0.474250    2.892943   1.025287
