 26
Energy: -16507.66241615.7 eV PBE+vdW (tier 2 basis)
N    0.041270    0.085805  -0.081834
C    0.020550   -0.004190   1.375216
C    1.386962   -0.360527   1.964955
O    2.160998   -1.170514   1.503928
H    0.429897   -0.775836  -0.471739
H    0.656378    0.841481  -0.385513
H   -0.272444    0.978808   1.769567
C   -1.018327   -1.065470   1.800622
C   -1.218507   -1.257046   3.307597
C   -1.806670   -0.025498   4.021334
N   -2.005240   -0.176126   5.448909
C   -0.997106   -0.183169   6.400074
N   -1.242402   -0.738066   7.540645
N    0.158922    0.517238   6.050708
H   -0.718150   -2.023476   1.348014
H   -1.964580   -0.775741   1.319521
H   -0.273047   -1.546187   3.793077
H   -1.900501   -2.106373   3.464032
H   -2.783239    0.218590   3.575758
H   -1.183462    0.864667   3.847434
H   -2.780154   -0.759910   5.746927
H   -0.465505   -0.611066   8.193099
H    0.949553    0.319558   6.651763
H    0.417089    0.563468   5.068898
O    1.667865    0.346896   3.106600
H    2.549277    0.038010   3.398252
