 26
Energy: -16507.64291715.7 eV PBE+vdW (tier 2 basis)
N    0.158511    0.077318  -0.001025
C    0.149855   -0.142479   1.445116
C    1.507794   -0.629047   1.923796
O    2.020480   -0.327314   2.985364
H   -0.740787    0.457448  -0.297439
H    0.291835   -0.804394  -0.498341
H    0.013607    0.836055   1.925185
C   -0.952605   -1.117010   1.956545
C   -0.988260   -1.377620   3.467673
C   -1.308394   -0.131856   4.315306
N   -1.254003   -0.346602   5.748424
C   -0.096057   -0.307167   6.523851
N   -0.014739   -0.674427   7.761452
N    1.009270    0.270292   5.917284
H   -0.834013   -2.070940   1.419460
H   -1.916391   -0.693994   1.627704
H   -0.032191   -1.805553   3.805179
H   -1.749047   -2.147090   3.672698
H   -2.316188    0.233924   4.059200
H   -0.622252    0.692647   4.079955
H   -1.981849   -0.931961   6.140826
H   -0.928068   -0.960267   8.124864
H    1.823881    0.201940   6.517903
H    1.213117    0.061488   4.941932
O    2.079355   -1.509330   1.065085
H    2.921812   -1.786021   1.475655
