 26
Energy: -16507.74973715.7 eV PBE+vdW (tier 2 basis)
N   -1.070310   -0.449546   0.081082
C   -0.665253   -0.146481   1.466893
C    0.519949   -1.058101   1.821141
O    1.359118   -0.799092   2.652736
H   -0.208601   -2.078873   0.449010
H   -2.058756   -0.248076  -0.067971
H   -0.317714    0.889248   1.607261
C   -1.876316   -0.409091   2.389260
C   -1.639093   -0.393134   3.905986
C   -1.186013   -1.735661   4.505189
N   -2.093741   -2.821918   4.150719
C   -1.694978   -4.150720   4.024464
N   -2.512118   -5.066260   4.429549
N   -0.429628   -4.338084   3.478998
H   -2.313134   -1.385116   2.120877
H   -2.625704    0.355554   2.131668
H   -2.584723   -0.100591   4.388488
H   -0.904248    0.377214   4.183406
H   -1.108012   -1.620485   5.601513
H   -0.179578   -1.993131   4.162673
H   -2.992722   -2.801562   4.627080
H   -2.185361   -5.999338   4.165358
H   -0.214310   -5.300398   3.248797
H   -0.108997   -3.680235   2.771474
O    0.501978   -2.229169   1.136244
H   -0.536865    0.093728  -0.597508
