 26
Energy: -16507.98001715.7 eV PBE+vdW (tier 2 basis)
N    0.392213    0.044456   0.251520
C    0.163156   -0.233180   1.680650
C    1.514720   -0.628007   2.319099
O    1.633965   -1.135816   3.413786
H   -0.224473    0.777773  -0.091157
H    2.106663    0.056494   0.714352
H   -0.064393    0.743353   2.141824
C   -1.007423   -1.172060   2.059112
C   -0.794790   -2.694477   2.063548
C   -0.273168   -3.338647   0.777154
N    1.147428   -3.092323   0.575987
C    1.684649   -2.760349  -0.643917
N    0.909117   -2.481658  -1.645476
N    3.083016   -2.762218  -0.639191
H   -1.843103   -0.917827   1.387491
H   -1.336379   -0.892843   3.070337
H   -1.767296   -3.155646   2.295517
H   -0.128796   -2.961471   2.897788
H   -0.786140   -2.956302  -0.114838
H   -0.466333   -4.424863   0.807457
H    1.782103   -3.487632   1.259864
H    1.452336   -2.177227  -2.455570
H    3.500433   -2.410572   0.221245
H    3.489171   -2.312710  -1.452899
O    2.566062   -0.298121   1.540550
H    0.278487   -0.776538  -0.356211
