 26
Energy: -16507.67184815.7 eV PBE+vdW (tier 2 basis)
N    0.776288   -0.904941  -0.027655
C   -0.128109   -0.136932   0.851293
C    0.708156    0.813909   1.708688
O    1.318209    0.510419   2.715737
H    1.462508   -1.407658   0.540145
H    1.302518   -0.273846  -0.634220
H   -0.783829    0.463068   0.204875
C   -0.968645   -1.097497   1.699231
C   -2.260046   -0.507278   2.279482
C   -2.063590    0.614407   3.309561
N   -3.304532    1.080789   3.914749
C   -4.117045    1.974229   3.239004
N   -3.744406    2.494384   2.119373
N   -5.337448    2.185063   3.904091
H   -0.335194   -1.502288   2.505409
H   -1.227136   -1.939186   1.041357
H   -2.823010   -1.325933   2.756923
H   -2.893885   -0.122218   1.466661
H   -1.609961    1.494978   2.837726
H   -1.391910    0.283790   4.115582
H   -3.803041    0.400003   4.479187
H   -4.394978    3.222172   1.815463
H   -5.878282    2.953407   3.521708
H   -5.261342    2.250401   4.916523
O    0.776796    2.060688   1.159132
H    1.377812    2.575885   1.732557
