 26
Energy: -16507.77259915.7 eV PBE+vdW (tier 2 basis)
N   -0.342018   -0.261602  -0.470536
C   -0.469144    0.088160   0.957212
C    0.943114    0.208529   1.564851
O    1.178654    0.793555   2.599469
H   -0.300744    0.566879  -1.062995
H    1.394370   -0.728313   0.030465
H   -0.952969    1.066325   1.110069
C   -1.282407   -1.012588   1.671139
C   -1.446784   -0.900978   3.188512
C   -2.118018    0.388065   3.694397
N   -3.359450    0.767506   3.030198
C   -4.516346    0.028877   3.155359
N   -4.557530   -1.018778   3.906752
N   -5.560313    0.539741   2.357564
H   -0.814631   -1.981885   1.435428
H   -2.280826   -1.028626   1.202060
H   -0.469269   -0.977390   3.685642
H   -2.050482   -1.756085   3.519047
H   -1.428604    1.237128   3.597114
H   -2.336008    0.265036   4.763653
H   -3.279011    1.312928   2.180830
H   -5.511678   -1.377825   3.985899
H   -6.454119    0.097013   2.544556
H   -5.644428    1.553818   2.377443
O    1.887830   -0.428052   0.844667
H   -1.129157   -0.828403  -0.784707
