 26
Energy: -16507.54906715.7 eV PBE+vdW (tier 2 basis)
N    0.614911   -0.570599  -0.072838
C    0.083333   -0.290787   1.256236
C    1.089003   -0.197228   2.418926
O    0.784808   -0.110489   3.591024
H    1.267010    0.159068  -0.357617
H    1.149714   -1.439523  -0.076076
H   -0.349666    0.724116   1.221134
C   -1.084830   -1.236087   1.612191
C   -0.803488   -2.738254   1.484334
C    0.279243   -3.278595   2.417097
N    0.363957   -4.732999   2.296232
C    1.414436   -5.479718   2.821284
N    1.826652   -6.630023   2.406405
N    2.061333   -4.876615   3.897656
H   -1.913393   -0.986023   0.936370
H   -1.413527   -1.000607   2.633786
H   -0.541997   -2.978311   0.439882
H   -1.741801   -3.275683   1.692694
H    0.028493   -2.998831   3.453122
H    1.257791   -2.815727   2.194909
H    0.019802   -5.103665   1.416540
H    1.354605   -6.906909   1.541535
H    1.474775   -4.355618   4.542112
H    2.679584   -5.533432   4.363518
O    2.385355   -0.171541   1.996897
H    2.924175   -0.083075   2.807301
