 26
Energy: -16507.85170615.7 eV PBE+vdW (tier 2 basis)
N    1.213258   -0.779965   0.033411
C    0.183780   -0.325112   0.969915
C    0.769411    0.826450   1.781368
O    1.661560    1.551544   1.375307
H    1.690715    0.032956  -0.359166
H    0.792707   -1.299911  -0.735764
H   -0.672952    0.165868   0.455403
C   -0.427284   -1.491693   1.774991
C    0.537012   -2.513675   2.394438
C    1.471801   -1.993374   3.485986
N    2.448602   -1.079002   2.934374
C    3.281316   -0.305781   3.721632
N    3.320358   -0.255518   5.012615
N    4.147225    0.486870   2.964486
H   -1.092176   -2.037705   1.086986
H   -1.080623   -1.068009   2.550194
H    1.139133   -2.983359   1.601576
H   -0.070617   -3.319703   2.831472
H    1.955440   -2.853505   3.987851
H    0.888758   -1.461002   4.256199
H    2.724112   -1.237301   1.968041
H    2.733973   -0.980886   5.431792
H    4.659703    1.125009   3.566306
H    3.694345    0.969204   2.189166
O    0.105369    1.056542   2.938142
H    0.543074    1.824059   3.355279
