 26
Energy: -16507.82194315.7 eV PBE+vdW (tier 2 basis)
N    0.862429   -0.729940  -0.048527
C    0.657842   -0.355885   1.359674
C    1.930744   -0.740748   2.155410
O    1.997961   -0.740428   3.365022
H    0.607929   -1.707557  -0.227740
H    0.339753   -0.133434  -0.686226
H    0.656159    0.745838   1.399708
C   -0.641504   -0.833206   2.047056
C   -1.029229   -2.293351   1.790125
C   -0.065429   -3.346712   2.367537
N   -0.175989   -4.660041   1.732318
C    0.157558   -4.858308   0.397200
N   -0.349036   -5.718616  -0.416423
N    1.162649   -3.997396  -0.078127
H   -1.464893   -0.191848   1.699685
H   -0.527272   -0.644488   3.124555
H   -1.120744   -2.465634   0.706110
H   -2.036747   -2.466538   2.197893
H   -0.237199   -3.479623   3.443943
H    0.976315   -3.014526   2.292085
H   -0.983938   -5.204783   2.016105
H   -1.152150   -6.199729  -0.002034
H    1.483970   -4.329470  -0.984443
H    1.942493   -3.859378   0.562709
O    2.973498   -1.044937   1.356885
H    2.583454   -0.937590   0.437606
