 26
Energy: -16507.68019915.7 eV PBE+vdW (tier 2 basis)
N    0.648525    0.384447  -0.250966
C    0.265663    0.162389   1.138903
C    1.253206    0.778209   2.136818
O    2.428708    0.984207   1.919330
H    0.586599    1.377167  -0.479216
H    1.632022    0.131813  -0.372409
H   -0.713567    0.635273   1.310803
C    0.133961   -1.345067   1.458847
C   -1.088061   -2.042040   0.847008
C   -1.039513   -2.244204  -0.667925
N   -2.195768   -3.006128  -1.109585
C   -2.469797   -3.168254  -2.463918
N   -1.881291   -2.618576  -3.468680
N   -3.526194   -4.061827  -2.685703
H    0.082908   -1.459699   2.551068
H    1.061918   -1.847340   1.138505
H   -2.003260   -1.487118   1.107807
H   -1.182252   -3.029319   1.331068
H   -0.086516   -2.738483  -0.943875
H   -1.040766   -1.270449  -1.172454
H   -2.409739   -3.826596  -0.548222
H   -1.047961   -2.101997  -3.178713
H   -3.790407   -4.061399  -3.666928
H   -4.328524   -3.921886  -2.076842
O    0.662532    1.056723   3.333438
H    1.369055    1.405146   3.912184
