 26
Energy: -16507.65933515.7 eV PBE+vdW (tier 2 basis)
N    0.195765   -0.630329  -0.454474
C   -0.096700   -0.095631   0.871927
C    1.079085    0.465141   1.668795
O    0.987425    1.272645   2.570502
H    1.037810   -1.205718  -0.435947
H    0.358859    0.124268  -1.118820
H   -0.794185    0.745799   0.741043
C   -0.808159   -1.173910   1.729721
C   -2.249245   -1.384260   1.254329
C   -3.197302   -0.290672   1.781242
N   -4.373608   -0.052355   0.956157
C   -4.260187    0.734325  -0.176814
N   -3.170345    1.376355  -0.434015
N   -5.423357    0.703778  -0.963650
H   -0.791046   -0.876175   2.789592
H   -0.232286   -2.108866   1.651696
H   -2.612315   -2.374595   1.568936
H   -2.251487   -1.374419   0.154952
H   -2.669446    0.669370   1.840898
H   -3.538535   -0.536155   2.797734
H   -5.013434   -0.834923   0.861842
H   -3.291176    1.998202  -1.236402
H   -5.433987    1.402540  -1.698938
H   -6.292372    0.706208  -0.434764
O    2.281884   -0.068372   1.292310
H    2.941879    0.332352   1.890555
