 26
Energy: -16507.69244315.7 eV PBE+vdW (tier 2 basis)
N    0.108043    0.180758   0.337224
C    0.061479   -0.105829   1.772808
C    1.449961   -0.291587   2.374495
O    1.679669   -0.847429   3.434671
H   -0.769233    0.606115   0.038496
H    0.856607    0.838346   0.124788
H   -0.325442    0.755004   2.364145
C   -0.875979   -1.289023   2.085489
C   -0.705003   -2.555623   1.235944
C    0.603550   -3.323991   1.419890
N    1.734859   -2.587433   0.860191
C    3.059421   -2.923197   1.105758
N    3.912371   -2.831990   0.139266
N    3.306127   -3.325672   2.420909
H   -1.907732   -0.927408   1.952801
H   -0.768678   -1.527554   3.153396
H   -0.830465   -2.305418   0.171409
H   -1.528621   -3.240617   1.488275
H    0.509230   -4.321971   0.951348
H    0.786577   -3.496187   2.488231
H    1.615881   -2.300856  -0.108719
H    4.869133   -2.966086   0.478821
H    4.292193   -3.419976   2.636831
H    2.802665   -2.791058   3.128928
O    2.404279    0.380247   1.680318
H    3.247113    0.224911   2.147128
