 26
Energy: -16507.63838415.7 eV PBE+vdW (tier 2 basis)
N   -0.080794   -0.025931  -0.167645
C   -0.019139   -0.021336   1.290159
C    1.371130   -0.101216   1.938729
O    1.604752    0.173749   3.096716
H    0.439705   -0.814886  -0.550884
H    0.359594    0.812392  -0.545322
H   -0.428027    0.938991   1.637944
C   -0.915134   -1.125208   1.894878
C   -0.502175   -2.553312   1.531775
C   -1.413959   -3.591883   2.182100
N   -1.010364   -4.937749   1.812280
C   -1.636784   -6.049959   2.367382
N   -2.516258   -6.082741   3.307338
N   -1.211240   -7.244855   1.775296
H   -1.938148   -0.931450   1.541306
H   -0.914233   -1.004111   2.988010
H    0.535521   -2.749682   1.844140
H   -0.537760   -2.683730   0.437053
H   -2.467417   -3.385986   1.907237
H   -1.346726   -3.501786   3.277597
H   -0.760135   -5.053034   0.833751
H   -2.843022   -5.145490   3.552144
H   -1.583272   -8.044927   2.279202
H   -0.205951   -7.313444   1.639643
O    2.338462   -0.538774   1.080221
H    3.161242   -0.569164   1.606799
