 26
Energy: -16507.76614315.7 eV PBE+vdW (tier 2 basis)
N   -0.084001   -1.326092  -0.503074
C   -0.350394   -0.825488   0.843890
C    0.711295   -1.215932   1.875234
O    1.205742   -2.330968   1.935066
H    0.168517   -2.315850  -0.439636
H    0.732677   -0.853969  -0.893611
H   -0.401654    0.272012   0.806909
C   -1.725370   -1.365235   1.317619
C   -2.087252   -1.074564   2.787846
C   -1.684246   -2.204389   3.765718
N   -1.448356   -1.752063   5.135341
C   -0.204508   -1.292269   5.539769
N    0.956628   -1.671765   5.096380
N   -0.242832   -0.295872   6.501048
H   -1.740096   -2.452640   1.135920
H   -2.473492   -0.933697   0.640507
H   -3.170906   -0.905486   2.870257
H   -1.603588   -0.140831   3.109889
H   -0.773908   -2.706395   3.418135
H   -2.462643   -2.980816   3.785317
H   -2.236588   -1.259628   5.545716
H    0.876565   -2.457922   4.447026
H    0.616765   -0.216668   7.032795
H   -1.085932   -0.193102   7.052538
O    0.958310   -0.228311   2.754449
H    1.321303   -0.635828   3.602120
