 26
Energy: -16507.66877415.7 eV PBE+vdW (tier 2 basis)
N    0.095388    0.037641  -0.303105
C   -0.083300   -0.119927   1.138746
C    1.183189   -0.025549   1.991999
O    1.249307    0.487635   3.089434
H    0.718084   -0.686827  -0.664122
H    0.535517    0.932773  -0.515695
H   -0.716673    0.705105   1.494801
C   -0.780218   -1.461704   1.463186
C   -2.133234   -1.660497   0.772623
C   -3.197182   -0.638504   1.192925
N   -4.521173   -0.898985   0.642568
C   -5.331046   -1.872452   1.200098
N   -4.982977   -2.488625   2.278134
N   -6.495449   -2.088320   0.441919
H   -0.904710   -1.529380   2.554665
H   -0.102468   -2.281807   1.175965
H   -2.505150   -2.662565   1.027910
H   -2.000205   -1.620510  -0.318729
H   -2.908971    0.375023   0.878693
H   -3.301087   -0.637540   2.286193
H   -4.603551   -0.805275  -0.364763
H   -5.740341   -3.081295   2.625363
H   -7.180541   -2.670228   0.912232
H   -6.919469   -1.242034   0.068886
O    2.261918   -0.615307   1.393264
H    2.995885   -0.531408   2.032091
