 26
Energy: -16507.64547315.7 eV PBE+vdW (tier 2 basis)
N   -0.835299    0.515344   0.645215
C   -0.290358   -0.050045   1.879223
C    1.208145    0.175320   2.091617
O    1.713780    0.619841   3.102483
H   -0.396254    0.083095  -0.169017
H   -0.646916    1.516468   0.588585
H   -0.768987    0.472507   2.720165
C   -0.623206   -1.552849   1.945916
C   -0.132965   -2.294961   3.194321
C   -0.680618   -1.764126   4.530917
N   -2.140922   -1.707577   4.631727
C   -2.958330   -2.832641   4.528850
N   -4.137072   -2.885353   4.007966
N   -2.401503   -3.993785   5.064363
H   -0.198512   -2.038883   1.053857
H   -1.715296   -1.639893   1.849581
H    0.967655   -2.272615   3.249036
H   -0.413767   -3.353363   3.096397
H   -0.309130   -0.748987   4.726889
H   -0.282580   -2.383393   5.347176
H   -2.560115   -0.894631   4.192978
H   -4.370596   -2.012668   3.526041
H   -3.097013   -4.731809   5.118293
H   -1.889369   -3.872946   5.933326
O    1.946531   -0.190551   1.003239
H    2.878049   -0.017884   1.240472
