21
Energy: -168590.579758 eV PBE+vdW (tier 2 basis)
N    0.171253  0.268457  -0.121141
C    -0.065782  -0.165367  1.294803
C    1.174517  0.071114  2.186374
O    1.168754  -0.218031  3.356087
H    1.054848  -0.108745  -0.489017
H    0.216321  1.290635  -0.218629
H    -0.851946  0.489063  1.700445
C    -0.513166  -1.638281  1.349789
C    -2.000989  -1.932968  1.074541
C    -2.528548  -1.680825  -0.313637
O    -3.703390  -2.161736  -0.707325
N    -1.912463  -0.941081  -1.172549
H    -0.306511  -1.987805  2.369494
H    0.124141  -2.243491  0.686753
H    -2.640437  -1.366633  1.773936
H    -2.169471  -2.995304  1.310962
H    -0.683687  -0.153071  -0.718734
H    -2.349053  -0.843338  -2.096059
O    2.189521  0.620352  1.503955
H    2.950583  0.772874  2.105919
Cd    -5.057159  -3.525545  0.091052
