21
Energy: -168590.759605 eV PBE+vdW (tier 2 basis)
N    0.057172  -0.939209  -0.140047
C    -0.441251  -0.367898  1.052381
C    0.676056  0.343550  1.903452
O    0.390985  1.147763  2.771271
H    0.108150  -0.382245  -0.989364
H    0.682243  -1.742150  -0.106217
H    -1.139086  0.437486  0.783015
C    -1.167051  -1.450416  1.918694
C    -1.714280  -1.047996  3.307167
C    -2.784418  0.026034  3.331640
O    -4.037735  -0.210662  3.481005
N    -2.414357  1.282661  3.185570
H    -0.467555  -2.282613  2.083363
H    -1.976908  -1.838767  1.286881
H    -0.899400  -0.734717  3.974692
H    -2.143408  -1.957733  3.754088
H    -1.411705  1.511033  3.096921
H    -3.103952  2.032230  3.223153
O    1.895217  -0.041843  1.574161
H    2.564993  0.423049  2.124103
Cd    -5.186037  -1.909572  4.132788
