21
Energy: -168592.407643 eV PBE+vdW (tier 2 basis)
N    0.330572  0.156254  -0.213036
C    0.003876  0.199769  1.268259
C    1.277962  -0.073674  2.055488
O    2.058153  -0.962733  1.594070
H    0.786880  1.026146  -0.527955
H    0.993879  -0.622008  -0.383577
H    -0.413804  1.186308  1.498541
C    -0.981794  -0.954513  1.614920
C    -1.237232  -1.177000  3.139029
C    -0.653148  -2.463541  3.713705
O    0.578801  -2.656804  3.978023
N    -1.497519  -3.454816  3.960414
H    -0.598997  -1.878727  1.156529
H    -1.942976  -0.726469  1.134487
H    -2.319365  -1.180814  3.310783
H    -0.840390  -0.340762  3.731236
H    -2.495677  -3.372875  3.794329
H    -1.154544  -4.323833  4.367378
O    1.340613  0.409230  3.225017
H    -0.508668  0.017890  -0.795918
Cd    2.383070  -1.484288  3.822117
