21
Energy: -168591.812778 eV PBE+vdW (tier 2 basis)
N    -0.463745  -0.899936  -0.254263
C    -0.361652  -0.309401  1.000154
C    1.248161  -0.295426  1.473967
O    1.991908  0.445827  0.799249
H    -0.556753  -1.906804  -0.354294
H    -0.203356  -0.387347  -1.091740
H    -0.569590  0.768559  0.931980
C    -1.248304  -1.008144  2.040676
C    -1.307940  -0.334329  3.440480
C    -0.912284  -1.254062  4.557777
O    0.227851  -1.878294  4.539045
N    -1.684227  -1.463895  5.593362
H    -0.955424  -2.065106  2.117850
H    -2.260471  -1.007873  1.617005
H    -2.310710  0.065425  3.629010
H    -0.628058  0.532281  3.503042
H    -2.596228  -1.023091  5.677653
H    -1.379685  -2.076612  6.351294
O    1.635946  -1.037717  2.415238
H    0.766231  -1.635273  3.727950
Cd    3.898306  -0.243970  1.812826
