21
Energy: -168591.684155 eV PBE+vdW (tier 2 basis)
N    0.631773  -0.481815  0.135085
C    -0.047201  -0.172009  1.377268
C    1.053688  -0.036474  2.435350
O    1.509910  -0.951549  3.196160
H    1.112865  0.301541  -0.303391
H    1.212312  -1.318946  0.130705
H    -0.508991  0.820547  1.274903
C    -1.140181  -1.219496  1.646148
C    -2.099332  -0.940386  2.836556
C    -2.560830  -2.194784  3.550922
O    -1.719898  -3.006581  4.101315
N    -3.840297  -2.477967  3.646584
H    -0.680124  -2.231576  1.705548
H    -1.721511  -1.287686  0.717400
H    -2.958624  -0.355419  2.487153
H    -1.622359  -0.313572  3.613370
H    -4.556983  -1.882079  3.239582
H    -4.147341  -3.308964  4.154186
O    1.650935  1.122979  2.414363
H    2.448509  1.148011  2.990136
Cd    0.294616  -2.527732  3.871690
