21
Energy: -168590.907018 eV PBE+vdW (tier 2 basis)
N    -0.146983  1.191924  0.532964
C    -0.348338  0.427059  1.695607
C    0.953275  -0.354032  2.145383
O    0.904462  -1.437808  2.691909
H    -0.127628  0.758487  -0.386959
H    0.167576  2.156974  0.584305
H    -0.524267  1.123355  2.535563
C    -1.531720  -0.572340  1.556382
C    -2.127919  -0.967600  2.932842
C    -2.375014  -2.459713  3.115276
O    -3.586676  -2.794271  3.325373
N    -1.341533  -3.277138  3.075587
H    -1.193646  -1.447860  0.987235
H    -2.310918  -0.082806  0.961841
H    -3.076236  -0.447229  3.102546
H    -1.461653  -0.692402  3.767240
H    -0.401743  -2.885111  2.948641
H    -1.430527  -4.280919  3.207849
O    2.045032  0.341088  1.882275
H    2.842032  -0.132160  2.208686
Cd    -4.713380  -4.625770  3.756719
