21
Energy: -168590.552153 eV PBE+vdW (tier 2 basis)
N    -0.164218  0.810373  0.203623
C    -0.166628  0.011940  1.371004
C    1.158720  -0.855483  1.460661
O    1.422983  -1.747465  0.675037
H    -0.459532  0.452644  -0.698996
H    0.326710  1.700874  0.196986
H    -0.084111  0.692527  2.232216
C    -1.452287  -0.845043  1.568351
C    -1.594820  -2.266032  0.976852
C    -1.669018  -2.397900  -0.531249
O    -2.726620  -2.719563  -1.176443
N    -0.568358  -2.174711  -1.228238
H    -2.292381  -0.211339  1.251831
H    -1.557621  -0.970207  2.655685
H    -2.521385  -2.692995  1.390522
H    -0.779909  -2.914776  1.330653
H    -0.562211  -2.318088  -2.237645
H    0.325134  -2.052729  -0.714940
O    1.907935  -0.457659  2.470175
H    2.741673  -0.978417  2.511256
Cd    -4.702141  -3.382557  -0.586567
