21
Energy: -168591.718577 eV PBE+vdW (tier 2 basis)
N    -1.328389  0.632327  1.180138
C    -0.487521  0.012578  2.113301
C    0.979067  -0.295152  1.445689
O    1.938916  0.340213  1.941999
H    -1.692541  0.145029  0.367724
H    -1.316990  1.645303  1.102974
H    -0.255564  0.737566  2.900699
C    -1.030620  -1.263271  2.813523
C    -1.062795  -2.647986  2.115566
C    -1.752327  -2.719059  0.787995
O    -1.204143  -2.201281  -0.276193
N    -2.917345  -3.293621  0.630690
H    -2.043723  -0.991885  3.142871
H    -0.436561  -1.405667  3.726250
H    -1.540748  -3.348636  2.812619
H    -0.040239  -3.024766  1.959462
H    -3.407088  -3.726600  1.409662
H    -3.348689  -3.353046  -0.293154
O    1.078999  -1.094490  0.475976
H    -0.281900  -1.836253  -0.073340
Cd    3.482516  -0.384141  0.489718
