21
Energy: -168591.783383 eV PBE+vdW (tier 2 basis)
N    1.019508  0.851121  2.829738
C    0.666253  -0.495137  2.832500
C    1.399467  -1.293443  1.555926
O    2.619812  -1.509012  1.711407
H    0.539229  1.532862  2.251449
H    1.931310  1.137958  3.174346
H    1.144903  -1.000247  3.682112
C    -0.841921  -0.783268  2.866892
C    -1.738692  -0.048481  1.825667
C    -2.515333  -0.990379  0.954434
O    -1.902602  -1.860897  0.209617
N    -3.822684  -0.977298  0.901293
H    -1.171345  -0.487504  3.871807
H    -0.984021  -1.870740  2.816578
H    -1.142812  0.564883  1.128873
H    -2.423643  0.643930  2.327774
H    -4.373965  -0.329879  1.458092
H    -4.322476  -1.618509  0.283404
O    0.740123  -1.610360  0.531002
H    -0.905583  -1.780708  0.302327
Cd    2.920833  -2.455872  -0.315145
