21
Energy: -168590.656511 eV PBE+vdW (tier 2 basis)
N    0.212193  -0.339861  0.108341
C    -0.170471  0.012399  1.425104
C    1.090951  0.401733  2.311641
O    1.227605  0.023310  3.456071
H    0.545978  0.378191  -0.531020
H    0.479235  -1.291238  -0.128401
H    -0.709189  0.977969  1.374053
C    -1.080812  -0.998799  2.134486
C    -0.500553  -2.420539  2.399925
C    -0.659017  -2.902035  3.830445
O    -1.255461  -3.987321  4.162437
N    -0.137553  -2.170520  4.795018
H    -1.990452  -1.087623  1.527849
H    -1.392944  -0.533657  3.077965
H    0.580590  -2.459125  2.187509
H    -0.969208  -3.158424  1.737861
H    -0.215267  -2.467041  5.766206
H    0.384101  -1.316354  4.570407
O    1.908123  1.194776  1.642734
H    2.661588  1.476675  2.207158
Cd    -2.267433  -5.640208  3.231562
