21
Energy: -168590.652687 eV PBE+vdW (tier 2 basis)
N    -0.022090  -0.263671  0.206711
C    -0.191263  -0.299627  1.617601
C    1.174278  -0.743789  2.288060
O    1.402286  -1.867655  2.695674
H    0.432009  0.549713  -0.203957
H    0.118720  -1.124508  -0.316105
H    -0.299952  0.740128  1.961758
C    -1.423022  -1.088272  2.131647
C    -1.991633  -2.286016  1.350614
C    -1.486082  -3.694192  1.594933
O    -2.165150  -4.725972  1.229991
N    -0.330074  -3.913195  2.173161
H    -2.228231  -0.339711  2.130542
H    -1.273630  -1.347292  3.188763
H    -1.950155  -2.114371  0.260697
H    -3.067916  -2.330392  1.590084
H    0.307284  -3.136184  2.449959
H    -0.019549  -4.873125  2.324802
O    2.018764  0.269366  2.304414
H    2.880802  0.000052  2.692757
Cd    -4.150348  -4.984868  0.457206
