21
Energy: -168592.004839 eV PBE+vdW (tier 2 basis)
N    0.756264  1.212564  0.256475
C    0.342813  0.991660  1.700300
C    1.694428  1.226019  2.469444
O    1.704729  1.527515  3.742296
H    0.579746  2.172881  -0.067491
H    0.322972  0.562997  -0.412397
H    -0.408107  1.753398  1.950651
C    -0.228399  -0.443422  1.814024
C    -0.636162  -1.002154  3.201769
C    -1.850215  -0.375629  3.865577
O    -1.781082  0.650317  4.634639
N    -3.040987  -0.903564  3.652768
H    0.532412  -1.138445  1.426581
H    -1.097372  -0.513784  1.141545
H    0.209784  -0.964624  3.905850
H    -0.831680  -2.073892  3.057554
H    -3.170749  -1.744690  3.097193
H    -3.864695  -0.503978  4.103206
O    2.719686  1.114377  1.815611
H    1.809497  1.070878  0.299628
Cd    0.071210  1.598610  4.991385
