21
Energy: -168591.913268 eV PBE+vdW (tier 2 basis)
N    -0.062594  -1.265745  0.374108
C    -0.142271  -0.254053  1.513835
C    1.267150  0.172690  1.974386
O    1.458698  0.688471  3.041873
H    0.907707  -1.278715  0.021366
H    -0.648720  -0.960355  -0.412373
H    -0.604672  0.650196  1.086147
C    -1.021446  -0.695700  2.701792
C    -0.388168  -1.688398  3.732788
C    -1.177993  -2.960704  3.956330
O    -1.404466  -3.797579  2.997943
N    -1.632464  -3.258619  5.152535
H    -1.986330  -1.063007  2.309118
H    -1.291492  0.216536  3.247414
H    -0.221211  -1.163132  4.679756
H    0.621871  -2.018455  3.426810
H    -1.483773  -2.648667  5.952753
H    -2.136511  -4.132387  5.309893
O    2.188723  -0.092363  1.024010
H    3.065523  0.251193  1.301128
Cd    -0.729462  -3.200149  1.122709
