21
Energy: -168590.724718 eV PBE+vdW (tier 2 basis)
N    -0.275655  -0.200445  -0.114072
C    -0.135910  -0.110980  1.292303
C    1.323023  0.392456  1.674835
O    1.989179  -0.131551  2.542648
H    -0.314902  0.645702  -0.678065
H    -0.011054  -1.050500  -0.607344
H    -0.780295  0.714748  1.649628
C    -0.483652  -1.432499  1.998457
C    -0.729877  -1.300336  3.530731
C    0.010531  -2.303872  4.392408
O    -0.564504  -3.109414  5.208781
N    1.325637  -2.346237  4.314984
H    0.302952  -2.170962  1.791438
H    -1.397918  -1.814571  1.528975
H    -1.802224  -1.390346  3.742623
H    -0.431503  -0.304817  3.895557
H    1.824443  -1.680318  3.716750
H    1.855942  -2.996471  4.891963
O    1.666283  1.436846  0.942723
H    2.560210  1.759766  1.192086
Cd    -2.547377  -3.478009  5.950320
