21
Energy: -168592.385003 eV PBE+vdW (tier 2 basis)
N    0.203912  1.414414  1.729521
C    -0.129082  0.094704  2.410656
C    1.038116  -0.275301  3.316932
O    0.838288  -1.175609  4.177116
H    -0.002267  2.214667  2.346634
H    -0.325050  1.553381  0.856563
H    -1.057294  0.239890  2.974979
C    -0.308138  -1.072715  1.401993
C    0.976105  -1.666270  0.737079
C    1.482391  -2.986074  1.316947
O    2.394998  -3.086095  2.199260
N    0.961394  -4.103343  0.829385
H    -0.998369  -0.736751  0.614579
H    -0.851634  -1.852235  1.952012
H    1.817984  -0.961823  0.757452
H    0.757063  -1.839778  -0.324269
H    0.299939  -4.105924  0.058833
H    1.281602  -5.005712  1.178326
O    2.186452  0.167078  2.982386
H    1.221383  1.442140  1.534138
Cd    2.972408  -1.816427  3.840896
