21
Energy: -168590.410329 eV PBE+vdW (tier 2 basis)
N    -0.229134  -0.171652  0.175617
C    -0.396361  -0.612522  1.610265
C    0.938242  -0.253171  2.292108
O    1.751683  0.443051  1.720453
H    0.208289  -0.894254  -0.411685
H    0.426028  0.637383  0.179466
H    -1.158685  0.061807  2.028007
C    -0.837516  -2.072130  1.766695
C    -2.048253  -2.544579  0.910013
C    -3.228494  -1.605528  0.863875
O    -4.400421  -1.856206  1.457894
N    -3.117370  -0.444441  0.321869
H    -1.056297  -2.210262  2.833289
H    0.002136  -2.744870  1.539445
H    -2.346955  -3.529901  1.288735
H    -1.731191  -2.702743  -0.131996
H    -1.168488  0.064020  -0.204951
H    -3.972896  0.115009  0.221708
O    1.025674  -0.752840  3.517705
H    1.866145  -0.462128  3.933930
Cd    -5.442186  -3.602221  1.867253
