21
Energy: -168590.690798 eV PBE+vdW (tier 2 basis)
N    -0.167556  -0.132147  0.016385
C    -0.086571  -0.086322  1.424447
C    1.428101  -0.047967  1.952368
O    1.710741  -0.414444  3.063810
H    0.065516  -0.998070  -0.467039
H    0.034096  0.710046  -0.518642
H    -0.464361  0.893342  1.768705
C    -0.826439  -1.236183  2.134736
C    -2.353285  -1.108326  2.056366
C    -3.164013  -2.152614  2.795304
O    -4.441198  -2.156015  2.775152
N    -2.565692  -3.101953  3.492871
H    -0.485549  -1.213728  3.180554
H    -0.491699  -2.191692  1.700073
H    -2.698948  -1.134416  1.010522
H    -2.676376  -0.135516  2.464756
H    -1.555250  -3.168230  3.564807
H    -3.122423  -3.794736  3.991557
O    2.236586  0.462791  1.034418
H    3.150189  0.534237  1.390684
Cd    -6.049691  -0.959397  1.939979
