21
Energy: -168591.059083 eV PBE+vdW (tier 2 basis)
N    0.258126  -0.078001  0.055886
C    -0.026746  0.054463  1.458578
C    1.193734  -0.280204  2.390855
O    1.280869  -1.244059  3.210246
H    0.776341  -0.914976  -0.209668
H    0.708098  0.740381  -0.350828
H    -0.295814  1.100159  1.670938
C    -1.119845  -0.901065  1.930845
C    -2.555067  -1.072764  1.480849
C    -3.141024  -2.251971  2.284634
O    -2.487203  -2.929837  3.164211
N    -4.394481  -2.587501  2.060463
H    -1.194165  -0.681150  3.017484
H    -0.666038  -1.893927  1.704574
H    -2.624802  -1.297514  0.406730
H    -3.167078  -0.179410  1.672607
H    -4.966532  -2.094423  1.378564
H    -4.822913  -3.358704  2.571812
O    2.211935  0.507803  2.201731
H    2.988958  0.259895  2.752733
Cd    -0.415022  -2.595413  3.712796
