21
Energy: -168591.761659 eV PBE+vdW (tier 2 basis)
N    -0.578277  0.280776  0.307262
C    0.041775  -0.088742  1.490403
C    1.708052  -0.096033  1.487857
O    2.345187  0.208291  0.465685
H    -0.666059  -0.392903  -0.449816
H    -0.548583  1.250921  0.004753
H    -0.113676  0.707704  2.237326
C    -0.413242  -1.482742  2.011726
C    -1.273550  -1.437221  3.283946
C    -0.560844  -1.240344  4.598693
O    0.692767  -0.925404  4.717711
N    -1.220378  -1.386331  5.722842
H    0.436716  -2.162302  2.151756
H    -1.029730  -1.940991  1.228623
H    -1.830789  -2.383877  3.364625
H    -2.046633  -0.654194  3.207589
H    -2.203410  -1.645316  5.736680
H    -0.752894  -1.246765  6.618827
O    2.232937  -0.392370  2.601175
H    1.210190  -0.796057  3.864604
Cd    4.353938  0.011534  1.525790
