21
Energy: -168592.000495 eV PBE+vdW (tier 2 basis)
N    0.651863  0.034382  0.101360
C    0.027770  0.365034  1.440109
C    1.259878  0.922424  2.254349
O    1.075685  1.422090  3.447258
H    0.343475  0.647798  -0.662896
H    0.531446  -0.941198  -0.195695
H    -0.673407  1.194590  1.267774
C    -0.680677  -0.849732  2.098737
C    -2.220019  -0.918243  2.006947
C    -3.062386  -0.315973  3.130924
O    -2.648525  0.476693  4.049209
N    -4.342120  -0.638336  3.150825
H    -0.350098  -0.954499  3.145719
H    -0.281147  -1.769493  1.647106
H    -2.512392  -1.976367  1.940821
H    -2.578967  -0.464233  1.068772
H    -4.955700  -0.247365  3.865293
H    -4.753178  -1.280821  2.478390
O    2.350059  0.877579  1.705813
H    1.690964  0.235719  0.312189
Cd    -0.761630  1.303853  4.341900
