21
Energy: -168592.047607 eV PBE+vdW (tier 2 basis)
N    1.079686  -0.543012  0.352243
C    0.112926  0.219928  1.235085
C    1.080656  1.127074  2.092556
O    0.627484  1.849214  3.084369
H    0.820746  -0.548382  -0.641730
H    1.234584  -1.513582  0.654162
H    -0.429684  0.901497  0.564164
C    -0.885138  -0.695724  1.988647
C    -2.355891  -0.168781  1.996754
C    -3.073313  -0.326644  3.325999
O    -2.701091  0.313524  4.376370
N    -4.121454  -1.117846  3.420481
H    -0.516820  -0.883427  3.010135
H    -0.898341  -1.688302  1.519467
H    -2.927843  -0.648776  1.193474
H    -2.392387  0.910471  1.768069
H    -4.623325  -1.197083  4.305969
H    -4.477698  -1.645788  2.628456
O    2.244817  1.170051  1.728712
H    1.986468  0.001249  0.507106
Cd    -1.016382  1.547338  4.247510
