21
Energy: -168590.622331 eV PBE+vdW (tier 2 basis)
N    1.314499  0.449203  0.930589
C    1.032504  -0.601969  1.830486
C    2.161446  -1.731752  1.738235
O    1.913960  -2.874500  1.435184
H    1.078443  0.385030  -0.055307
H    2.037742  1.126789  1.161367
H    1.176121  -0.215553  2.854481
C    -0.386498  -1.197369  1.737757
C    -0.771991  -1.916213  0.436112
C    -2.153490  -2.540286  0.405685
O    -2.506819  -3.373979  -0.495257
N    -3.057416  -2.211374  1.311477
H    -1.063453  -0.350852  1.929863
H    -0.477444  -1.900641  2.578286
H    -0.057791  -2.731864  0.239606
H    -0.744456  -1.237654  -0.433776
H    -2.870968  -1.531078  2.041886
H    -3.989543  -2.621674  1.272668
O    3.340273  -1.209414  2.037973
H    4.042273  -1.895688  2.001338
Cd    -1.522855  -4.475043  -2.080734
