21
Energy: -168592.380964 eV PBE+vdW (tier 2 basis)
N    0.166346  0.978996  0.221834
C    0.010714  0.069552  1.391779
C    1.302963  -0.758169  1.558367
O    2.069503  -0.998004  0.615863
H    -0.736015  1.384285  -0.047000
H    0.773149  1.772088  0.459897
H    -0.097251  0.679480  2.303692
C    -1.264557  -0.833325  1.301975
C    -1.824010  -1.311628  -0.067622
C    -1.086164  -2.389777  -0.842899
O    -0.058699  -2.150475  -1.562857
N    -1.553146  -3.625745  -0.811877
H    -2.078247  -0.251405  1.755140
H    -1.120376  -1.698838  1.963710
H    -1.969248  -0.469066  -0.761957
H    -2.840031  -1.670228  0.145929
H    -2.402445  -3.875195  -0.313352
H    -1.091303  -4.356737  -1.352959
O    1.594233  -1.259048  2.731723
H    1.000692  -0.975709  3.456426
Cd    1.147082  -0.415569  -1.326852
