21
Energy: -168590.677033 eV PBE+vdW (tier 2 basis)
N    -0.643267  0.520847  0.436051
C    -0.257953  -0.072714  1.769878
C    1.088685  -0.774105  1.511849
O    1.628620  -0.724293  0.425711
H    0.199025  0.423758  -0.174790
H    -0.919175  1.506478  0.502759
H    -0.055497  0.762540  2.455712
C    -1.354895  -0.944402  2.408129
C    -1.641210  -2.339133  1.816768
C    -2.422114  -2.380148  0.532895
O    -2.906729  -3.523106  0.038831
N    -2.582850  -1.351912  -0.222940
H    -2.285375  -0.360370  2.460143
H    -1.044361  -1.094852  3.450629
H    -2.212096  -2.904338  2.572277
H    -0.712400  -2.914923  1.666020
H    -1.436299  -0.047955  0.014225
H    -3.196649  -1.459756  -1.039774
O    1.543008  -1.387163  2.601670
H    2.438158  -1.747925  2.424253
Cd    -3.421066  -5.329371  0.911966
