20
Energy: -568411.793558 eV PBE+vdW (tier 2 basis)
N    -0.365540  -0.157181  -0.145030
C    -0.157112  -0.068915  1.353401
C    1.319426  0.188005  1.695005
O    1.767237  -0.105974  2.778541
H    0.248782  -0.864814  -0.572804
H    -0.160918  0.738560  -0.610993
H    -0.709238  0.827408  1.678873
C    -0.659959  -1.314981  2.097288
C    -2.132376  -1.389603  2.476331
C    -3.152091  -1.588943  1.297368
O    -4.221153  -2.167865  1.709053
O    -2.935344  -1.198825  0.140900
H    -0.110011  -1.306779  3.059211
H    -0.318823  -2.233678  1.594697
H    -2.489390  -0.470649  2.971303
H    -2.299476  -2.211776  3.180588
O    1.974320  0.779526  0.691105
H    2.901966  0.971884  0.952608
H    -1.360301  -0.438812  -0.317524
Hg    -5.508358  -2.257128  -0.038541
