20
Energy: -568411.928006 eV PBE+vdW (tier 2 basis)
N    1.867530  1.778754  1.987548
C    1.334671  0.699006  1.060936
C    -0.195769  0.907073  1.126336
O    -0.676988  1.689801  1.922570
H    2.528982  1.438811  2.695022
H    0.997445  2.166248  2.448867
H    1.683318  0.929627  0.045856
C    1.798600  -0.728414  1.408273
C    1.196397  -1.312574  2.693820
C    1.608117  -2.786677  2.934897
O    1.618770  -3.164763  4.148426
O    1.869247  -3.527098  1.951534
H    2.897903  -0.742936  1.445183
H    1.518293  -1.358589  0.553731
H    0.095486  -1.366687  2.646649
H    1.450448  -0.762300  3.608276
O    -0.834966  0.143263  0.255217
H    -1.799381  0.326085  0.289882
H    2.325788  2.541434  1.471629
Hg    2.162112  -5.284066  3.504349
