20
Energy: -568411.727488 eV PBE+vdW (tier 2 basis)
N    0.029824  0.740408  0.283556
C    -0.127375  0.369066  1.701430
C    1.269290  0.485901  2.364872
O    2.296856  0.093197  1.777895
H    0.311810  1.718634  0.154211
H    -0.825555  0.593372  -0.258488
H    -0.826002  1.060950  2.199232
C    -0.602148  -1.115848  1.887814
C    -1.479804  -1.774263  0.800100
C    -0.812580  -2.629685  -0.264885
O    0.351266  -2.543149  -0.741894
O    -1.610339  -3.560281  -0.709456
H    -1.172427  -1.145234  2.825099
H    0.270528  -1.762075  2.082246
H    -2.194820  -2.445958  1.295881
H    -2.135363  -1.063590  0.266458
O    1.402908  0.945039  3.574234
H    0.577896  1.288752  3.976109
H    -1.199966  -4.097988  -1.425564
Hg    1.706001  -0.886248  -0.188852
