20
Energy: -568411.324957 eV PBE+vdW (tier 2 basis)
N    -0.335851  0.071206  0.144775
C    -0.207654  0.007574  1.550549
C    1.258283  0.232709  2.036444
O    1.515134  0.383821  3.227583
H    -0.759359  0.873595  -0.315149
H    0.102986  -0.620734  -0.459854
H    -0.767140  0.847715  1.987911
C    -0.806220  -1.351359  2.066940
C    -0.457022  -1.898262  3.468295
C    -0.886012  -1.060015  4.660433
O    -1.766910  -1.570385  5.400955
O    -0.352590  0.086863  4.921279
H    -0.515566  -2.155021  1.370862
H    -1.893574  -1.247677  1.956109
H    0.622875  -2.075947  3.609488
H    -0.942015  -2.880592  3.552706
O    2.143074  0.251685  1.070224
H    3.048978  0.416905  1.418953
H    0.431050  0.300673  4.265030
Hg    -2.358049  -0.415030  7.263899
