20
Energy: -568411.598552 eV PBE+vdW (tier 2 basis)
N    -0.444148  -0.913662  -0.047805
C    -0.232352  -0.184298  1.273457
C    1.257965  0.234038  1.414446
O    1.736553  0.537647  2.470210
H    -0.064411  -1.872392  -0.023341
H    0.072260  -0.414566  -0.793141
H    -0.807463  0.750196  1.194796
C    -0.683785  -0.990719  2.517342
C    -2.132859  -0.993340  2.835743
C    -2.702928  -0.108347  3.799491
O    -2.140504  1.023348  3.892223
O    -3.823668  -0.319809  4.466856
H    -0.111840  -0.544858  3.343841
H    -0.347975  -2.038276  2.408503
H    -2.827671  -1.605685  2.251087
H    -1.435881  -0.969663  -0.319574
O    1.850828  0.245268  0.204987
H    2.774996  0.566981  0.284975
H    -4.157310  -1.235962  4.388784
Hg    -2.010371  2.088300  5.983964
