20
Energy: -568412.060602 eV PBE+vdW (tier 2 basis)
N    -0.025142  1.193548  0.500676
C    -0.086951  0.403347  1.754083
C    1.311215  -0.159048  2.079740
O    2.166578  -0.421261  1.228391
H    0.474037  2.082515  0.624457
H    -0.956778  1.410133  0.130493
H    -0.325513  1.086084  2.587063
C    -1.182797  -0.704718  1.745583
C    -1.506897  -1.518343  0.460083
C    -0.519837  -2.551092  -0.038342
O    0.468728  -2.331674  -0.788865
O    -0.791631  -3.771739  0.331980
H    -2.125950  -0.206405  2.010212
H    -0.974336  -1.386908  2.580649
H    -2.435516  -2.060682  0.683327
H    -1.745646  -0.862951  -0.392625
O    1.467762  -0.343200  3.365379
H    2.350021  -0.724211  3.579749
H    -0.154912  -4.425548  -0.039700
Hg    1.138566  -0.205846  -0.919333
