20
Energy: -568411.505359 eV PBE+vdW (tier 2 basis)
N    -0.194690  0.573845  -0.041803
C    -0.136069  0.129059  1.413672
C    1.319334  -0.361039  1.697217
O    2.166422  -0.195820  0.792994
H    -0.983332  1.218009  -0.204651
H    -0.310920  -0.230778  -0.677866
H    -0.257131  1.040194  2.021044
C    -1.234530  -0.894867  1.699441
C    -1.466453  -1.138998  3.189101
C    -2.474900  -2.263982  3.429124
O    -2.776704  -3.060353  2.557015
O    -2.940420  -2.269177  4.669532
H    -1.021685  -1.847094  1.185545
H    -2.166825  -0.509639  1.253189
H    -1.814777  -0.240078  3.716543
H    -0.545755  -1.482163  3.693368
O    1.522748  -0.855032  2.846941
H    0.686308  1.042609  -0.312918
H    -3.562410  -3.018937  4.797269
Hg    3.801024  -1.166344  2.433102
