20
Energy: -568411.57149 eV PBE+vdW (tier 2 basis)
N    0.104318  -0.306892  0.261655
C    0.733960  -0.420994  1.636997
C    2.264340  -0.638503  1.275647
O    3.190710  -0.654889  2.219743
H    -0.254265  0.633638  0.050731
H    -0.644793  -0.986172  0.078898
H    0.641108  0.570841  2.102961
C    0.066537  -1.527930  2.517695
C    -0.826544  -1.092336  3.715309
C    -0.280605  -0.971115  5.137851
O    0.923011  -0.855927  5.520867
O    -1.125749  -0.955625  6.124458
H    0.814216  -2.271273  2.837621
H    -0.583280  -2.130554  1.866576
H    -1.650739  -1.818883  3.786970
H    -1.322212  -0.126246  3.513363
O    2.557957  -0.742601  0.101305
H    0.936070  -0.506271  -0.382676
H    -2.064340  -1.079144  5.871721
Hg    2.436551  -0.689603  4.103771
