20
Energy: -568411.914608 eV PBE+vdW (tier 2 basis)
N    0.314808  0.458793  0.157488
C    0.156334  0.004110  1.593514
C    1.535204  -0.586503  1.959831
O    2.455003  -0.554213  1.164921
H    0.018909  1.431304  0.013341
H    1.340739  0.363616  -0.044125
H    0.021204  0.908309  2.204734
C    -1.046866  -0.915676  1.857046
C    -1.026875  -2.357664  1.340064
C    -1.410423  -2.543314  -0.161009
O    -1.996310  -3.662837  -0.383784
O    -1.146050  -1.690843  -1.027075
H    -1.973333  -0.399202  1.564615
H    -1.116853  -1.005101  2.953247
H    -1.719328  -2.974676  1.922534
H    -0.038035  -2.841055  1.417480
O    1.551830  -1.079809  3.187919
H    2.456037  -1.384907  3.421254
H    -0.207612  -0.160467  -0.493461
Hg    -2.282577  -3.543464  -2.539670
