20
Energy: -568411.783168 eV PBE+vdW (tier 2 basis)
N    0.027211  -0.559974  -0.165154
C    0.039428  -0.133714  1.289082
C    1.512130  -0.361535  1.715286
O    2.316248  -0.799535  0.916877
H    -0.248794  0.198033  -0.802817
H    1.039032  -0.824893  -0.346955
H    -0.160839  0.945704  1.321229
C    -1.007311  -0.846026  2.168813
C    -0.827211  -2.306391  2.377415
C    -1.903325  -3.236992  2.530512
O    -1.755899  -4.239876  1.779380
O    -3.025262  -3.078912  3.205852
H    -2.025810  -0.598505  1.829138
H    -0.925103  -0.358960  3.166489
H    0.157146  -2.770376  2.287096
H    -0.570326  -1.373967  -0.356781
O    1.715305  -0.021039  2.975936
H    2.664766  -0.117886  3.210018
H    -2.997886  -2.340207  3.845749
Hg    -2.506648  -6.420461  2.434854
