20
Energy: -568411.547771 eV PBE+vdW (tier 2 basis)
N    1.103449  -1.077094  0.007140
C    0.069620  -0.303763  0.802016
C    0.882115  0.862521  1.429273
O    2.093399  0.772033  1.458039
H    1.170593  -2.060849  0.307793
H    2.012540  -0.603780  0.252410
H    -0.678102  0.071412  0.090841
C    -0.644213  -1.159738  1.870181
C    0.048106  -1.403753  3.217366
C    1.231744  -2.412480  3.216529
O    1.659551  -2.659551  4.402789
O    1.685916  -2.916112  2.174530
H    -0.974118  -2.106334  1.418481
H    -1.576317  -0.629678  2.124146
H    -0.676956  -1.817820  3.932393
H    0.438145  -0.486181  3.684376
O    0.233952  1.872582  1.985309
H    -0.724321  1.894671  1.797127
H    0.944946  -1.032705  -1.007028
Hg    3.215948  -4.102381  3.920286
