20
Energy: -568410.995778 eV PBE+vdW (tier 2 basis)
N    -0.279919  0.975777  -0.087682
C    -0.342601  0.484220  1.205516
C    1.197692  0.216677  1.785924
O    1.530224  0.914378  2.724512
H    -0.128900  0.377914  -0.897622
H    -0.330009  1.975273  -0.273688
H    -0.710368  1.255617  1.891107
C    -1.089381  -0.868739  1.401314
C    -2.599882  -0.603860  1.334992
C    -3.440119  -1.871861  1.525345
O    -4.518723  -1.960100  0.977648
O    -2.901092  -2.779944  2.331591
H    -0.817176  -1.300759  2.373019
H    -0.780077  -1.580368  0.619261
H    -2.898272  -0.146567  0.383227
H    -2.930597  0.074196  2.139848
O    1.983969  -0.660348  1.226345
H    1.591377  -1.176030  0.493114
H    -3.515325  -3.539251  2.443874
Hg    3.790390  0.846937  3.785900
