20
Energy: -568411.842949 eV PBE+vdW (tier 2 basis)
N    -0.341107  -0.223835  -0.262577
C    -0.094870  0.146148  1.172404
C    1.451755  0.187066  1.435275
O    2.203093  0.291062  0.431703
H    -0.405596  -1.325926  -0.309695
H    0.393600  0.133805  -0.889404
H    -0.373657  1.204870  1.307076
C    -0.906870  -0.721198  2.138268
C    -0.520025  -2.196780  2.350700
C    -0.665738  -3.132669  1.171700
O    -0.600239  -2.776815  -0.015149
O    -0.840528  -4.385064  1.525639
H    -1.959299  -0.655900  1.813286
H    -0.873235  -0.227892  3.118142
H    -1.124589  -2.596571  3.175783
H    0.525788  -2.288294  2.692269
O    1.830449  0.180559  2.638984
H    -1.247373  0.147699  -0.578183
H    -0.897384  -4.969350  0.737438
Hg    4.025838  0.513216  1.967770
