20
Energy: -568411.656933 eV PBE+vdW (tier 2 basis)
N    0.295232  -0.531214  -0.071805
C    -0.265147  -0.165638  1.297367
C    0.838130  0.474673  2.179300
O    0.757826  0.468870  3.377295
H    0.866396  0.255797  -0.425766
H    0.917855  -1.351752  -0.024336
H    -1.008058  0.625469  1.109788
C    -0.895573  -1.354807  2.042890
C    -2.277342  -1.706753  1.686641
C    -2.720928  -3.034139  1.373239
O    -1.914550  -3.740613  0.710335
O    -3.942874  -3.486433  1.593200
H    -0.909609  -0.984311  3.099235
H    -0.229696  -2.228438  2.048347
H    -0.443798  -0.735660  -0.759715
H    -3.013171  -0.902431  1.568608
O    1.790640  1.030088  1.414209
H    2.455529  1.488085  1.973780
H    -4.482639  -2.898875  2.159423
Hg    -1.901534  -6.141923  1.092943
