20
Energy: -568411.756295 eV PBE+vdW (tier 2 basis)
N    -0.022807  1.106981  0.508747
C    -0.132697  0.312856  1.755756
C    1.243090  -0.311690  2.102619
O    2.074448  -0.603218  1.238382
H    0.502154  1.978631  0.647790
H    -0.940048  1.355680  0.123166
H    -0.379858  1.009447  2.575816
C    -1.260622  -0.765563  1.711164
C    -1.576696  -1.554410  0.408630
C    -0.610066  -2.614645  -0.076725
O    0.381735  -2.422209  -0.828516
O    -0.911217  -3.824421  0.305379
H    -2.195869  -0.245933  1.962474
H    -1.090834  -1.472381  2.535320
H    -2.526653  -2.070469  0.603762
H    -1.774541  -0.882316  -0.440866
O    1.516751  -0.587643  3.351808
H    0.856241  -0.269634  4.000883
H    -0.285489  -4.496576  -0.052542
Hg    1.137979  -0.322489  -0.906047
