20
Energy: -568412.1307 eV PBE+vdW (tier 2 basis)
N    0.268056  0.959349  0.347881
C    -0.155769  0.426941  1.663483
C    1.075316  -0.121928  2.405368
O    2.055278  -0.627489  1.835682
H    0.784652  1.843142  0.428509
H    -0.530683  1.121087  -0.274154
H    -0.546210  1.255055  2.277594
C    -1.279846  -0.643097  1.562010
C    -0.958788  -2.118787  1.176239
C    -0.893503  -2.496778  -0.288550
O    0.024870  -2.219272  -1.108053
O    -1.902574  -3.221079  -0.686460
H    -2.078893  -0.239019  0.922623
H    -1.720612  -0.694216  2.566714
H    -0.023396  -2.471525  1.641272
H    -1.756077  -2.734726  1.609716
O    0.955077  -0.035763  3.701997
H    1.730768  -0.415439  4.176217
H    -1.820077  -3.491298  -1.630545
Hg    1.590411  -0.770155  -0.468544
