20
Energy: -568411.306575 eV PBE+vdW (tier 2 basis)
N    0.047785  -0.033991  -0.075063
C    -0.193550  0.046431  1.420982
C    1.155328  0.326583  2.119052
O    1.052073  1.011007  3.191022
H    -0.770864  -0.428519  -0.565262
H    0.234643  0.893439  -0.488542
H    -0.884574  0.877435  1.598953
C    -0.760886  -1.303896  1.946618
C    -0.424379  -1.671219  3.412945
C    0.845708  -2.493285  3.541431
O    1.070426  -3.541605  3.014123
O    1.811817  -1.951447  4.437919
H    -0.417139  -2.125543  1.299448
H    -1.854115  -1.244955  1.853469
H    -1.213674  -2.349982  3.771347
H    -0.427758  -0.807328  4.085508
O    2.173484  -0.254328  1.696866
H    0.868902  -0.633371  -0.271379
H    2.460065  -2.678670  4.588919
Hg    2.972584  0.247239  4.065943
