20
Energy: -568411.409921 eV PBE+vdW (tier 2 basis)
N    -0.101524  0.218445  0.431529
C    0.243668  -0.126858  1.864111
C    1.675948  -0.749541  1.916400
O    2.319014  -0.839674  0.849742
H    0.687967  0.678949  -0.046656
H    -0.917338  0.868628  0.453893
H    0.331977  0.837340  2.386694
C    -0.800731  -1.028754  2.529550
C    -2.292293  -0.672197  2.327193
C    -2.681953  0.758519  2.641756
O    -3.335657  1.103141  3.593241
O    -2.217217  1.640440  1.699903
H    -0.553091  -1.042185  3.600707
H    -0.678080  -2.066255  2.180073
H    -2.874118  -1.331090  2.984263
H    -2.634977  -0.881830  1.300640
O    2.069485  -1.088257  3.072129
H    -0.346551  -0.612511  -0.126911
H    -2.550401  2.540798  1.908243
Hg    4.120996  -1.787407  2.311418
