20
Energy: -568411.333344 eV PBE+vdW (tier 2 basis)
N    0.395827  0.291355  0.182204
C    -0.275109  0.261700  1.405833
C    0.568973  1.040831  2.550714
O    0.262960  0.929868  3.710248
H    1.053103  -0.441170  -0.081767
H    0.410767  1.134239  -0.389539
H    -1.169803  0.911618  1.343533
C    -0.631669  -1.166584  1.877314
C    -1.636381  -1.175354  3.027904
C    -1.998152  -2.564944  3.551529
O    -1.386940  -3.574980  3.184528
O    -2.974479  -2.681792  4.429506
H    0.281231  -1.711339  2.159770
H    -1.061277  -1.683160  1.009067
H    -2.580790  -0.682852  2.741367
H    -1.244406  -0.638861  3.912411
O    1.527960  1.776337  2.024479
H    1.999318  2.285385  2.723590
H    -3.404490  -1.835946  4.670666
Hg    -1.964448  -5.713094  4.159100
