20
Energy: -568410.713301 eV PBE+vdW (tier 2 basis)
N    -1.421835  0.814175  0.897942
C    -0.516387  0.097029  1.673671
C    0.884123  0.949785  1.875764
O    1.875318  0.388112  2.245295
H    -2.015344  1.532040  1.312018
H    -1.330097  0.852422  -0.116961
H    -0.873569  0.064936  2.718028
C    -0.140509  -1.301415  1.140132
C    -1.234910  -2.353280  1.441853
C    -0.829039  -3.723342  0.919642
O    -0.412761  -4.663602  1.615796
O    -0.868217  -3.959739  -0.376864
H    0.804095  -1.586912  1.623631
H    0.068318  -1.236250  0.061466
H    -2.195609  -2.079737  0.979159
H    -1.399511  -2.435224  2.523555
O    0.678815  2.227169  1.625537
H    1.494902  2.750652  1.802141
H    -1.243639  -3.223250  -0.897229
Hg    -0.549650  -5.362051  3.904293
