20
Energy: -568411.794116 eV PBE+vdW (tier 2 basis)
N    -1.067074  0.393226  0.805374
C    0.192801  0.339262  1.667908
C    1.166490  1.470370  1.234929
O    2.327645  1.457509  1.534354
H    -0.904850  -0.008799  -0.130013
H    -1.334715  1.382308  0.660278
H    -0.138082  0.610831  2.683507
C    0.894410  -1.019934  1.655376
C    0.246386  -2.074841  2.557442
C    1.119392  -3.355757  2.675789
O    1.756730  -3.761003  1.672653
O    1.101077  -3.923241  3.811149
H    1.915036  -0.800794  2.004360
H    1.008220  -1.394574  0.626322
H    -0.710287  -2.462812  2.169664
H    0.073004  -1.708372  3.576263
O    0.505263  2.428249  0.557937
H    1.112528  3.168709  0.341575
H    -1.863114  -0.100493  1.231788
Hg    2.485139  -5.574846  3.048346
