20
Energy: -568411.666184 eV PBE+vdW (tier 2 basis)
N    -0.128529  -0.276844  -0.102176
C    -0.291363  0.068848  1.373264
C    1.014482  0.691615  1.927350
O    1.268976  0.653561  3.101170
H    0.492721  -1.087978  -0.243471
H    0.314754  0.521447  -0.589240
H    -1.051669  0.865140  1.405370
C    -0.707389  -1.117870  2.254665
C    -2.146660  -1.441458  2.310324
C    -2.683600  -2.762588  2.439591
O    -3.613003  -2.976500  1.617889
O    -2.216522  -3.751429  3.181841
H    -0.392937  -0.774297  3.275248
H    -0.075049  -2.002197  2.072218
H    -1.027427  -0.480894  -0.562629
H    -2.894550  -0.664681  2.139217
O    1.719459  1.269865  0.944189
H    2.516947  1.713636  1.307635
H    -1.595871  -3.457727  3.877658
Hg    -5.505441  -4.368055  2.192424
