20
Energy: -568411.296566 eV PBE+vdW (tier 2 basis)
N    -0.342220  -0.695734  -0.142163
C    0.016026  -0.195265  1.126654
C    1.568094  -0.011969  1.291337
O    2.176862  -0.253778  2.325045
H    -0.166129  -1.660337  -0.415022
H    -0.664638  -0.073636  -0.880481
H    -0.366630  0.837381  1.192487
C    -0.599193  -0.987176  2.329065
C    -0.045407  -2.393305  2.632394
C    0.603353  -2.497391  4.011503
O    0.168146  -3.390726  4.776587
O    1.563889  -1.705458  4.358725
H    -1.677883  -1.060364  2.146006
H    -0.491902  -0.311120  3.190993
H    0.759434  -2.709967  1.945295
H    -0.826350  -3.158091  2.568142
O    2.105918  0.483562  0.200075
H    3.065900  0.660887  0.323598
H    1.824181  -1.062910  3.599242
Hg    1.162975  -3.627445  6.817017
