20
Energy: -568411.762841 eV PBE+vdW (tier 2 basis)
N    -0.199322  -0.938648  -0.043198
C    0.200692  -0.452316  1.334248
C    1.598145  -1.104332  1.535341
O    2.082047  -1.770957  0.642485
H    0.666397  -1.484397  -0.347733
H    -0.380282  -0.180385  -0.712343
H    0.340501  0.635960  1.279263
C    -0.800232  -0.803235  2.462441
C    -2.081732  -0.047904  2.453594
C    -2.545242  0.764157  3.537107
O    -2.874587  1.915314  3.140204
O    -2.508140  0.496922  4.827975
H    -0.264525  -0.671877  3.412562
H    -1.039746  -1.886858  2.400943
H    -2.656418  0.069399  1.533176
H    -1.003826  -1.578322  -0.047485
O    2.118089  -0.815670  2.712854
H    3.015194  -1.208142  2.797232
H    -2.359118  -0.448633  5.026803
Hg    -4.625751  3.152646  4.190904
