20
Energy: -568410.472825 eV PBE+vdW (tier 2 basis)
N    -0.500788  -0.395789  0.026465
C    -0.120993  -0.048568  1.444963
C    1.385611  0.140368  1.643317
O    1.820116  0.540877  2.695774
H    -0.842138  0.422456  -0.493335
H    0.307479  -0.787174  -0.482219
H    -0.615327  0.896306  1.706514
C    -0.683714  -1.206474  2.300860
C    -2.003479  -1.548466  1.618811
C    -1.705347  -1.528718  0.098677
O    -2.750495  -1.057318  -0.622715
O    -1.176267  -2.678191  -0.459145
H    -0.821276  -0.879613  3.338600
H    0.013269  -2.057450  2.313452
H    -2.772806  -0.791981  1.825580
H    -2.422671  -2.525570  1.891766
O    2.102355  -0.216841  0.569338
H    3.062909  -0.099326  0.743627
H    -0.916162  -3.344136  0.205798
Hg    -3.185525  -2.135991  -2.376521
