20
Energy: -568410.890189 eV PBE+vdW (tier 2 basis)
N    -0.096822  -0.238889  0.135653
C    0.012062  -0.494033  1.630345
C    1.468199  -0.407473  2.129223
O    2.369281  -1.215818  1.864552
H    -1.070879  0.023344  -0.059447
H    0.475118  0.573849  -0.124610
H    -0.498898  0.371404  2.083206
C    -0.743749  -1.755088  2.166995
C    -0.092923  -3.168569  2.067684
C    0.373938  -3.300206  0.643304
O    -0.475517  -3.520908  -0.263462
O    1.571808  -2.907263  0.321559
H    -1.733564  -1.773896  1.688201
H    -0.926594  -1.565813  3.233895
H    -0.857305  -3.923142  2.285085
H    0.744595  -3.296223  2.763076
O    1.638917  0.616980  2.923065
H    2.551217  0.643965  3.296676
H    2.041596  -2.239070  1.081929
Hg    0.285327  -1.897642  -1.633158
