20
Energy: -568411.563055 eV PBE+vdW (tier 2 basis)
N    -0.311855  0.791669  -0.072822
C    -0.305300  0.001007  1.220276
C    1.067533  0.345840  1.847761
O    1.984389  0.661479  1.127252
H    -0.705341  1.736373  0.047150
H    -0.825815  0.328788  -0.835068
H    -1.153005  0.338979  1.831622
C    -0.415925  -1.506992  0.890304
C    -0.297617  -2.478277  2.069025
C    1.144790  -2.808715  2.542897
O    2.099713  -2.728416  1.729579
O    1.248604  -3.196282  3.748215
H    0.327576  -1.767004  0.122605
H    -1.415067  -1.677792  0.458056
H    -0.678960  -3.465069  1.758018
H    -0.885544  -2.187599  2.948107
O    1.215446  0.176363  3.166862
H    0.368707  0.136018  3.651317
H    0.700002  0.899437  -0.328518
Hg    3.481666  -3.561808  3.468365
