20
Energy: -568411.591451 eV PBE+vdW (tier 2 basis)
N    0.901139  -0.691873  0.704961
C    -0.241038  -0.038200  1.381303
C    0.265454  1.202770  2.155658
O    1.394763  1.249492  2.666024
H    1.236120  -0.157367  -0.105111
H    0.667524  -1.635885  0.380443
H    -0.948725  0.311420  0.610113
C    -1.028777  -1.000217  2.321967
C    -0.500871  -1.351772  3.749180
C    0.463247  -2.521176  3.889063
O    1.675381  -2.511285  3.550334
O    0.065349  -3.646474  4.416951
H    -1.252541  -1.915392  1.753408
H    -2.006425  -0.525363  2.481190
H    -1.387994  -1.569796  4.358713
H    -0.030285  -0.483641  4.239067
O    -0.533931  2.217366  2.346239
H    -1.384625  2.168349  1.863319
H    -0.864477  -3.643325  4.721780
Hg    2.482712  -0.787631  2.428398
