20
Energy: -568410.913623 eV PBE+vdW (tier 2 basis)
N    0.404467  -0.667859  0.208532
C    -0.037234  -0.190152  1.500405
C    1.055154  -0.504429  2.527775
O    1.341237  -1.679521  2.892210
H    -0.254217  -0.487421  -0.549820
H    1.341698  -0.379556  -0.075933
H    -0.159884  0.915597  1.507691
C    -1.429536  -0.748301  1.941552
C    -1.981226  -1.995319  1.239110
C    -1.310895  -3.353196  1.568643
O    -2.067646  -4.325809  1.186618
O    -0.208114  -3.498197  2.117467
H    -2.175099  0.035597  1.734795
H    -1.449508  -0.865553  3.034318
H    -1.959633  -1.923326  0.142352
H    -3.042982  -2.101902  1.499217
O    1.761908  0.422661  3.086455
H    1.539980  1.331291  2.795172
H    0.705343  -2.417933  2.505643
Hg    -1.095849  -6.193162  1.673099
