20
Energy: -568411.418948 eV PBE+vdW (tier 2 basis)
N    -0.129531  -0.080764  -0.160418
C    -0.068429  0.081568  1.356107
C    1.429117  0.382392  1.731155
O    1.690826  0.425454  2.963588
H    0.588261  0.524643  -0.597759
H    -1.054739  0.167675  -0.538687
H    -0.606644  1.015396  1.584326
C    -0.655308  -1.107641  2.109123
C    -2.176090  -1.236006  1.906391
C    -2.804179  -2.343456  2.761979
O    -3.917208  -2.211062  3.225999
O    -2.035294  -3.422332  2.896103
H    -0.426694  -0.936939  3.170906
H    -0.137971  -2.036836  1.827381
H    -2.451279  -1.505738  0.872020
H    -2.703098  -0.306515  2.156728
O    2.212502  0.599493  0.781233
H    0.083118  -1.048711  -0.446727
H    -2.508335  -4.105566  3.420475
Hg    3.921926  0.990927  2.607207
