20
Energy: -568411.944347 eV PBE+vdW (tier 2 basis)
N    -0.245517  0.707290  -0.206988
C    -0.121599  -0.073011  1.098325
C    1.015542  0.508675  1.955744
O    1.489536  -0.097783  2.883395
H    -0.166177  1.721060  -0.022993
H    -1.146023  0.527800  -0.675327
H    -1.055639  0.132523  1.646083
C    0.005493  -1.577485  0.806555
C    -0.192862  -2.495077  2.020286
C    1.076381  -2.807107  2.858522
O    2.176545  -2.987928  2.282538
O    0.868740  -2.957556  4.103746
H    0.961618  -1.796995  0.310077
H    -0.794405  -1.847486  0.098234
H    -0.497121  -3.495850  1.673672
H    -0.967782  -2.139921  2.707742
O    1.340367  1.749334  1.556261
H    2.022489  2.133175  2.148245
H    0.505961  0.465245  -0.870739
Hg    3.033455  -3.531906  4.436624
