20
Energy: -568411.432276 eV PBE+vdW (tier 2 basis)
N    0.140152  0.311879  0.167444
C    0.364389  -0.023880  1.639641
C    1.911376  -0.131637  1.851499
O    2.276648  -0.525758  2.998784
H    0.110477  -0.539769  -0.413978
H    0.931657  0.882621  -0.179938
H    0.057172  0.867994  2.208466
C    -0.391226  -1.271547  2.088906
C    -1.911078  -1.108767  2.059800
C    -2.624473  -2.382008  2.539358
O    -2.061661  -3.457875  2.625018
O    -3.902007  -2.156807  2.815938
H    -0.058828  -1.477665  3.115819
H    -0.078841  -2.145901  1.494658
H    -2.317860  -0.935900  1.048350
H    -2.260580  -0.280147  2.693717
O    2.650850  0.206219  0.903582
H    -0.738160  0.828837  0.019877
H    -4.341723  -2.991045  3.091868
Hg    4.518136  -0.316895  2.548558
