20
Energy: -568410.882006 eV PBE+vdW (tier 2 basis)
N    0.460122  -0.472159  -0.570145
C    0.123732  -0.263460  0.846407
C    1.398910  -0.349776  1.736932
O    2.338816  -1.108773  1.485134
H    0.794601  0.375240  -1.043700
H    -0.320066  -0.865577  -1.107339
H    -0.270014  0.765485  0.948670
C    -0.921385  -1.307292  1.303694
C    -1.523112  -1.066836  2.692768
C    -2.531867  -2.157008  3.051878
O    -2.614439  -3.200638  2.423068
O    -3.263932  -1.845313  4.109098
H    -0.477834  -2.315788  1.260305
H    -1.734235  -1.290630  0.561773
H    -0.772995  -1.098794  3.499796
H    -2.047174  -0.101766  2.765585
O    1.449090  0.351749  2.839461
H    0.708943  0.982490  2.952752
H    -3.880240  -2.577558  4.333165
Hg    2.253893  -2.055025  -0.678957
