20
Energy: -568411.486398 eV PBE+vdW (tier 2 basis)
N    0.099824  0.801174  0.527137
C    0.214363  0.001615  1.750791
C    1.697531  -0.299028  2.172814
O    2.636740  -0.296606  1.377192
H    -0.796737  0.468099  -0.068325
H    0.040966  1.808849  0.727864
H    -0.202343  0.607289  2.576433
C    -0.521786  -1.358225  1.610754
C    -2.058028  -1.302248  1.513231
C    -2.631389  -0.801870  0.209830
O    -2.041643  -0.011918  -0.553593
O    -3.827485  -1.262636  -0.047790
H    -0.278927  -1.967526  2.492345
H    -0.101601  -1.908808  0.753725
H    -2.495562  -0.683373  2.315199
H    -2.454985  -2.313271  1.683599
O    1.931428  -0.627244  3.414671
H    1.156536  -0.573500  4.010834
H    -4.192991  -0.880429  -0.876821
Hg    1.983482  0.574995  -0.719609
