20
Energy: -568411.865055 eV PBE+vdW (tier 2 basis)
N    -0.086973  -0.704948  0.111177
C    -0.307277  -0.028415  1.440384
C    1.128402  0.260889  1.958939
O    2.084033  -0.167741  1.345580
H    -0.319596  -0.100264  -0.687149
H    0.953540  -0.887875  0.091655
H    -0.845066  0.915029  1.283690
C    -1.080837  -0.954273  2.435004
C    -2.484967  -1.190243  2.049290
C    -2.929587  -2.384406  1.390031
O    -2.105519  -2.896529  0.575811
O    -4.141866  -2.889993  1.465981
H    -1.076801  -0.410796  3.396034
H    -0.527168  -1.894910  2.563555
H    -0.623978  -1.588065  0.028373
H    -3.199858  -0.362672  2.126115
O    1.108686  0.970645  3.069562
H    2.022305  1.153607  3.382243
H    -4.704029  -2.469813  2.149115
Hg    -2.120745  -5.367272  0.334863
