20
Energy: -568411.829198 eV PBE+vdW (tier 2 basis)
N    -0.736029  -0.396139  0.242723
C    -0.118471  -0.377840  1.618680
C    1.387291  -0.143097  1.350897
O    1.792952  -0.039680  0.210931
H    -1.435935  0.343981  0.108225
H    0.085634  -0.226696  -0.402226
H    -0.521743  0.479138  2.174298
C    -0.450857  -1.667228  2.434266
C    0.137145  -2.919386  1.917088
C    -0.597810  -3.871090  1.135502
O    -1.443984  -3.368903  0.337409
O    -0.364489  -5.163844  1.082110
H    -1.541746  -1.743833  2.536344
H    -0.022327  -1.486794  3.436683
H    1.219793  -3.072620  1.998150
H    -1.165155  -1.312721  0.021413
O    2.080285  -0.082718  2.475170
H    3.022654  0.123775  2.288101
H    0.268280  -5.480090  1.759566
Hg    -3.465103  -4.703921  -0.150383
