20
Energy: -568411.50401 eV PBE+vdW (tier 2 basis)
N    -0.913063  0.834821  0.407031
C    -0.058908  -0.022322  1.320532
C    1.331380  0.696257  1.237939
O    1.409793  1.713152  0.570203
H    -1.760737  1.202483  0.856039
H    -1.186622  0.360545  -0.463259
H    -0.450460  0.113677  2.338665
C    -0.065940  -1.518062  0.913234
C    -0.330230  -2.562050  2.002822
C    0.827141  -2.890866  2.988220
O    1.756554  -2.091870  3.231963
O    0.712001  -4.041341  3.536728
H    0.839469  -1.766154  0.340588
H    -0.896277  -1.679566  0.205984
H    -0.605299  -3.516835  1.538697
H    -1.170676  -2.285120  2.660966
O    2.349639  0.191104  1.887164
H    2.120692  -0.624361  2.402803
H    -0.246180  1.633132  0.158093
Hg    2.504724  -3.977625  4.808588
