20
Energy: -568411.967115 eV PBE+vdW (tier 2 basis)
N    -0.093334  -1.641889  -0.023542
C    -0.010546  -0.438958  0.892649
C    1.508639  -0.233005  1.125724
O    2.300077  -1.090602  0.789352
H    0.781138  -2.190473  0.125532
H    -0.102534  -1.367059  -1.014845
H    -0.409029  0.433094  0.356401
C    -0.734453  -0.642220  2.230994
C    -2.266146  -0.512205  2.242542
C    -3.029101  -1.790475  1.783775
O    -4.155094  -1.900213  2.395783
O    -2.590565  -2.569141  0.925379
H    -0.380175  0.165031  2.892558
H    -0.405394  -1.576257  2.710757
H    -2.639334  0.279852  1.571097
H    -2.616129  -0.257688  3.248959
O    1.763150  0.921242  1.713885
H    2.728941  1.030131  1.860373
H    -0.945759  -2.206428  0.177722
Hg    -5.016437  -3.698993  1.538493
