20
Energy: -568411.898641 eV PBE+vdW (tier 2 basis)
N    0.128702  0.336917  -0.532461
C    0.058866  -0.085268  0.924579
C    1.369976  0.474589  1.514615
O    2.198736  1.004128  0.805273
H    -0.593898  1.023852  -0.784402
H    0.061108  -0.451696  -1.189156
H    -0.784065  0.447210  1.386530
C    -0.148237  -1.609008  1.035394
C    -0.419960  -2.151707  2.443051
C    0.807348  -2.666427  3.242403
O    1.876648  -2.956606  2.657244
O    0.589082  -2.835707  4.486913
H    0.691838  -2.144563  0.570462
H    -1.050014  -1.850249  0.449726
H    -1.039190  -3.060756  2.371856
H    -0.966388  -1.455042  3.089995
O    1.435912  0.325173  2.836574
H    2.245587  0.774397  3.162709
H    1.078819  0.787990  -0.627233
Hg    2.601131  -3.800229  4.795927
