20
Energy: -568411.784584 eV PBE+vdW (tier 2 basis)
N    -1.287360  1.019697  1.081423
C    -0.678657  0.263948  2.253724
C    0.843450  0.443250  2.218839
O    1.364326  0.657780  1.085750
H    -0.743803  0.848941  0.218627
H    -1.270451  2.038991  1.244058
H    -1.111104  0.686795  3.167844
C    -0.951373  -1.264459  2.187914
C    -0.033577  -2.119407  1.255776
C    1.075700  -2.876737  1.962707
O    2.295043  -2.592944  2.012816
O    0.643715  -3.978832  2.529616
H    -1.999247  -1.414134  1.890077
H    -0.889304  -1.627022  3.222211
H    -0.658054  -2.890350  0.786388
H    0.413108  -1.529733  0.446072
O    1.455689  0.129018  3.274585
H    -2.270410  0.750157  0.923676
H    1.371711  -4.468883  2.974840
Hg    3.278598  -0.500078  1.965058
