20
Energy: -568410.894307 eV PBE+vdW (tier 2 basis)
N    0.274901  0.502787  0.242661
C    0.091953  0.055901  1.618589
C    1.439793  -0.016110  2.428792
O    2.551923  0.018969  1.909969
H    -0.120795  1.427074  0.047865
H    -0.063158  -0.165250  -0.455366
H    -0.492766  0.834054  2.141231
C    -0.605013  -1.335829  1.704979
C    -2.123025  -1.215290  1.496747
C    -2.848234  -2.554897  1.636367
O    -3.737726  -2.859545  0.867044
O    -2.433039  -3.290371  2.663026
H    -0.397812  -1.794630  2.680517
H    -0.148657  -2.004841  0.958759
H    -2.388507  -0.806502  0.512925
H    -2.581612  -0.557779  2.255004
O    1.362644  -0.135831  3.728703
H    0.455068  -0.114803  4.094312
H    -2.962910  -4.115892  2.729510
Hg    2.645008  0.673992  -0.364181
