20
Energy: -568411.374631 eV PBE+vdW (tier 2 basis)
N    -0.942835  1.294229  1.993434
C    -0.449112  0.074866  2.608194
C    0.621439  0.504370  3.627629
O    1.386885  -0.289044  4.255756
H    -1.956095  1.397121  1.956422
H    -0.513718  1.553166  1.103460
H    -1.262888  -0.345066  3.224276
C    0.027865  -0.991295  1.569953
C    -0.362166  -2.456751  1.824328
C    0.592877  -3.259772  2.744065
O    0.611389  -4.499345  2.403765
O    1.226268  -2.771586  3.694167
H    1.101557  -0.882812  1.359400
H    -0.477462  -0.741350  0.623763
H    -0.438181  -2.993952  0.871614
H    -1.346302  -2.563332  2.312624
O    0.732759  1.751648  3.886603
H    0.057747  2.213996  3.296401
H    1.277962  -1.284261  4.014485
Hg    1.913447  -5.498055  3.828021
