20
Energy: -568411.809069 eV PBE+vdW (tier 2 basis)
N    0.529253  0.034179  -0.071025
C    0.185925  0.306712  1.380904
C    1.137194  -0.503353  2.271594
O    1.399598  0.051875  3.393007
H    0.696917  -0.979451  -0.203800
H    1.386328  0.530735  -0.361732
H    0.297346  1.382292  1.557190
C    -1.256916  -0.191003  1.685028
C    -1.604324  -0.350897  3.199514
C    -1.601799  -1.782918  3.702431
O    -0.700467  -2.394986  4.322705
O    -2.732954  -2.400596  3.448471
H    -1.417085  -1.147197  1.164816
H    -1.955035  0.536812  1.250488
H    -2.628569  0.012984  3.346149
H    -0.949542  0.258687  3.832781
O    1.387072  -1.679725  1.940434
H    -0.228258  0.331110  -0.706070
H    -2.728246  -3.321814  3.794309
Hg    1.556283  -1.920046  4.460212
