20
Energy: -568411.695312 eV PBE+vdW (tier 2 basis)
N    -0.294372  0.967722  0.740239
C    0.003994  -0.194937  1.670979
C    1.507802  -0.528226  1.546533
O    2.044335  -0.360066  0.422055
H    0.066935  1.859088  1.114420
H    -1.307219  1.086057  0.582881
H    -0.233010  0.125271  2.692513
C    -0.831160  -1.428555  1.233326
C    -0.631773  -2.732693  2.026397
C    0.724056  -3.409253  1.837167
O    1.396051  -3.196949  0.813217
O    1.201468  -4.201023  2.768878
H    -0.660351  -1.620107  0.164011
H    -1.890487  -1.150692  1.356135
H    -1.392880  -3.454067  1.684604
H    -0.810336  -2.585280  3.101738
O    2.012284  -1.110158  2.548247
H    0.170987  0.808437  -0.171499
H    0.600823  -4.330264  3.530847
Hg    3.523855  -2.182303  1.080310
