20
Energy: -568411.890488 eV PBE+vdW (tier 2 basis)
N    0.610026  -1.261488  0.636840
C    0.050550  -0.014866  1.207266
C    0.835330  0.356074  2.478945
O    1.352069  -0.477035  3.238990
H    -0.014246  -1.679201  -0.061030
H    1.522393  -1.113244  0.189682
H    0.208748  0.810403  0.493715
C    -1.478319  -0.090817  1.484886
C    -2.034944  -0.812823  2.752092
C    -2.280327  -2.311976  2.675586
O    -1.387826  -3.199449  2.693780
O    -3.497101  -2.780098  2.607723
H    -1.968986  -0.467537  0.574952
H    -1.805753  0.953830  1.572987
H    -2.989691  -0.324458  2.988939
H    -1.400853  -0.636502  3.636150
O    0.859935  1.644305  2.689229
H    1.339750  1.879157  3.517117
H    -4.194320  -2.094235  2.639592
Hg    0.744396  -2.635456  2.510919
