28
Energy: -608821.175439 eV PBE+vdW (tier 2 basis)
N    0.648808  1.056580  1.776249
C    1.104422  -0.227196  2.396467
C    2.534554  -0.570161  1.886985
O    3.358064  0.482914  1.745402
H    0.206424  0.867545  0.868526
H    -0.072824  1.506853  2.346065
H    1.213714  -0.031285  3.475094
C    0.088453  -1.375131  2.169828
C    0.290118  -2.607989  3.009451
C    1.091655  -3.721810  2.659364
C    -0.309136  -2.931320  4.230546
N    1.003166  -4.669753  3.608418
C    0.146116  -4.234699  4.606005
C    -1.282349  -2.240232  5.111684
C    -0.262550  -4.880364  5.750814
C    -1.675321  -2.996017  6.331080
C    -1.189615  -4.236001  6.623607
H    0.108364  -1.654153  1.105792
H    -0.918371  -0.979343  2.372592
H    1.712408  -3.858855  1.780814
H    1.483352  -5.565251  3.586517
H    -2.207212  -1.989109  4.553477
H    0.106663  -5.877850  5.995772
H    -2.386940  -2.515918  7.003309
H    -1.508253  -4.753958  7.526480
O    2.884313  -1.704622  1.674255
H    -0.910825  -1.247113  5.430319
Pb    2.700803  2.472240  1.399094
