28
Energy: -608821.320174 eV PBE+vdW (tier 2 basis)
N    1.078264  -1.698745  0.584970
C    0.422009  -1.879595  1.846114
C    -1.052375  -2.309526  1.798440
O    -1.677989  -2.839435  2.753054
H    1.093924  -2.532743  0.000825
H    0.728723  -0.913581  0.037021
H    0.929807  -2.697275  2.386207
C    0.576474  -0.578209  2.709592
C    0.636481  -0.795163  4.190244
C    1.781315  -1.000954  4.935874
C    -0.450884  -0.833809  5.136431
N    1.466318  -1.200687  6.263402
C    0.118918  -1.133000  6.435695
C    -1.853799  -0.587590  5.057641
C    -0.678296  -1.304172  7.582384
C    -2.640448  -0.759123  6.217014
C    -2.057069  -1.133532  7.455489
H    -0.205387  0.150251  2.448796
H    1.526960  -0.146454  2.369192
H    2.818105  -1.009654  4.612008
H    2.148245  -1.369891  6.998686
H    -2.311196  -0.243421  4.129331
H    -0.234237  -1.542836  8.549213
H    -3.711421  -0.562992  6.167956
H    -2.696522  -1.257010  8.328067
O    -1.646486  -2.107066  0.650354
H    -2.578261  -2.416915  0.668603
Pb    -1.690665  -3.172201  5.059957
