28
Energy: -608821.007224 eV PBE+vdW (tier 2 basis)
N    0.445594  0.741555  0.366814
C    0.264639  -0.111704  1.527198
C    1.596804  -0.493927  2.136194
O    1.740669  -1.575290  2.820082
H    -0.351750  1.361524  0.225580
H    0.139459  -1.104847  -0.721182
H    -0.201361  0.423105  2.387744
C    -0.693233  -1.289272  1.217164
C    -0.481670  -1.885980  -0.202188
C    0.245572  -3.172236  -0.289303
C    -1.706139  -2.159291  -1.039613
N    -0.397988  -4.004306  -1.070481
C    -1.599556  -3.455783  -1.569469
C    -2.813032  -1.388610  -1.369246
C    -2.536747  -4.035157  -2.417436
C    -3.777864  -1.948882  -2.215891
C    -3.642757  -3.246334  -2.732441
H    -1.715807  -0.893121  1.249653
H    -0.636591  -2.052382  2.001779
H    1.182653  -3.453895  0.183322
H    -0.069884  -4.944002  -1.300669
H    -2.941146  -0.375608  -0.989086
H    -2.420670  -5.042093  -2.815875
H    -4.656050  -1.362588  -2.482551
H    -4.413699  -3.644852  -3.389607
O    2.586298  0.328158  2.054749
H    1.283896  1.318858  0.429148
Pb    3.826362  -0.886043  3.545614
