28
Energy: -608821.165496 eV PBE+vdW (tier 2 basis)
N    1.284030  0.298823  1.191963
C    0.078330  0.261537  2.073811
C    0.413198  0.841703  3.474100
O    1.331992  1.819705  3.495874
H    1.877432  -0.519418  1.375416
H    1.015155  0.243303  0.205085
H    -0.633989  0.982035  1.638087
C    -0.648660  -1.101572  2.126936
C    0.074689  -2.264639  2.749735
C    0.944088  -3.148542  2.078914
C    -0.063905  -2.782566  4.052190
N    1.350403  -4.133912  2.912707
C    0.744349  -3.952463  4.141826
C    -0.865618  -2.388344  5.226906
C    0.824610  -4.731644  5.283369
C    -0.743231  -3.267727  6.404471
C    0.069800  -4.371202  6.428860
H    -0.949567  -1.362591  1.101315
H    -1.583023  -0.922827  2.675530
H    1.251572  -3.152905  1.036342
H    1.952863  -4.910598  2.656615
H    -1.939600  -2.278854  4.970718
H    1.453024  -5.624026  5.308757
H    -1.332727  -3.006498  7.284093
H    0.135728  -4.989966  7.321970
O    -0.171482  0.477391  4.466367
H    -0.625311  -1.343993  5.523798
Pb    2.540852  2.376789  1.834245
