28
Energy: -608821.010586 eV PBE+vdW (tier 2 basis)
N    0.480921  -0.379120  -0.113518
C    -0.165940  0.410870  0.920036
C    0.890216  1.481938  1.188870
O    1.923255  1.224476  1.916408
H    -0.139325  -0.685228  -0.857781
H    1.047520  -1.149271  0.234911
H    -1.021992  0.923449  0.465070
C    -0.607971  -0.404647  2.148435
C    -1.374398  0.391412  3.257227
C    -1.696143  -0.531717  4.385007
C    -2.743534  0.926902  2.894853
N    -2.985211  -0.570264  4.582983
C    -3.694133  0.294225  3.714895
C    -3.184760  1.874729  1.979857
C    -5.061641  0.529684  3.661137
C    -4.560821  2.131704  1.899137
C    -5.483585  1.469021  2.718878
H    0.276698  -0.874679  2.602556
H    -1.257073  -1.209334  1.776345
H    -1.007128  -1.138994  4.968392
H    -3.436751  -1.154694  5.290645
H    -2.493698  2.428390  1.345450
H    -5.767484  0.021832  4.317058
H    -4.922116  2.870698  1.185387
H    -6.544267  1.696854  2.628728
O    0.815676  2.618311  0.587504
H    -0.709190  1.186893  3.642773
Pb    2.974125  3.120620  1.141845
