28
Energy: -608820.232054 eV PBE+vdW (tier 2 basis)
N    0.737416  -1.402869  0.068090
C    -0.015662  -0.549711  0.917417
C    0.739104  0.401162  1.884390
O    0.185789  0.898931  2.841764
H    0.872557  -1.075524  -0.883739
H    1.608802  -1.756543  0.457618
H    -0.635788  0.116016  0.296806
C    -0.989596  -1.404370  1.829166
C    -2.118143  -1.999872  1.046094
C    -2.115056  -3.189577  0.285328
C    -3.332746  -1.295031  0.641707
N    -3.221728  -3.242509  -0.492687
C    -4.024850  -2.133600  -0.282873
C    -3.942383  -0.087218  1.097535
C    -5.279513  -1.796318  -0.785510
C    -5.221926  0.224238  0.599087
C    -5.865993  -0.610811  -0.323217
H    -1.328496  -0.681620  2.612086
H    -0.398469  -2.180247  2.333318
H    -1.360261  -3.969473  0.251238
H    -3.449860  -4.017203  -1.112999
H    -3.379205  0.660399  1.664078
H    -5.794436  -2.425969  -1.511241
H    -5.698577  1.155358  0.903141
H    -6.844904  -0.324018  -0.704815
O    2.003933  0.598406  1.509289
H    2.424853  1.233430  2.126938
Pb    -3.690817  -1.957119  3.070320
