28
Energy: -608821.680559 eV PBE+vdW (tier 2 basis)
N    -0.334039  0.007735  0.018891
C    -0.620288  -0.068026  1.455625
C    0.507413  0.737735  2.131564
O    0.499064  1.105828  3.334351
H    -0.922500  0.676339  -0.478988
H    -0.393340  -0.889998  -0.461093
H    -1.569859  0.425756  1.712290
C    -0.655511  -1.556975  1.914502
C    -0.552773  -1.843134  3.381705
C    0.336365  -2.724702  3.962807
C    -1.354520  -1.331476  4.461330
N    0.152732  -2.772504  5.327490
C    -0.850160  -1.922036  5.684418
C    -2.462693  -0.442359  4.551583
C    -1.379415  -1.593849  6.948206
C    -2.998930  -0.140459  5.821131
C    -2.452432  -0.699648  7.001516
H    0.167829  -2.081504  1.407837
H    -1.589750  -1.981281  1.514559
H    1.097348  -3.341176  3.493098
H    0.685063  -3.361245  5.962593
H    -2.930919  -0.034358  3.655874
H    -0.983967  -2.043060  7.859748
H    -3.863545  0.519115  5.891455
H    -2.887956  -0.442375  7.965791
O    1.485891  1.030839  1.353281
H    1.125888  0.662878  0.437146
Pb    -0.402994  1.004937  5.428290
