28
Energy: -608821.403077 eV PBE+vdW (tier 2 basis)
N    -0.174656  -0.639981  0.197647
C    0.438410  -1.089113  1.433829
C    0.802973  0.017490  2.414524
O    0.815001  1.247623  2.043855
H    -1.176490  -0.474494  0.284917
H    0.257007  0.208917  -0.171020
H    -0.269403  -1.745745  1.964179
C    1.700040  -1.928160  1.109128
C    1.334740  -3.072768  0.150097
C    0.705437  -2.658664  -1.145797
C    0.374739  -4.137426  0.632936
N    -0.298655  -3.452187  -1.426324
C    -0.583351  -4.353766  -0.368421
C    0.330778  -4.904183  1.790265
C    -1.589243  -5.306135  -0.284797
C    -0.682202  -5.865286  1.907629
C    -1.622342  -6.064542  0.888764
H    2.138103  -2.341599  2.026115
H    2.463207  -1.288634  0.640376
H    1.095093  -1.955121  -1.875361
H    -0.826669  -3.418036  -2.298515
H    1.065970  -4.780740  2.585150
H    -2.310769  -5.464741  -1.085110
H    -0.734516  -6.478434  2.806008
H    -2.390075  -6.827175  1.008253
O    1.112397  -0.279738  3.628377
H    2.291521  -3.559313  -0.135881
Pb    1.421955  1.927952  4.168178
