28
Energy: -608820.12444 eV PBE+vdW (tier 2 basis)
N    0.145584  -1.144765  0.337389
C    0.017312  -0.406140  1.590133
C    1.397774  -0.104228  2.178490
O    2.047091  -0.922553  2.816447
H    0.031423  -0.538416  -0.473290
H    1.041918  -1.622144  0.247382
H    -0.498555  0.541090  1.390903
C    -0.881332  -1.166532  2.627781
C    -0.299388  -2.471286  3.058814
C    0.492951  -2.677266  4.206274
C    -0.233681  -3.713939  2.294641
N    1.030332  -3.961156  4.183576
C    0.662642  -4.607418  2.988963
C    -0.774715  -4.121001  1.045666
C    1.066215  -5.839600  2.464063
C    -0.378015  -5.343766  0.537843
C    0.537066  -6.180437  1.227261
H    -1.850748  -1.313572  2.134792
H    -1.039656  -0.515425  3.498353
H    0.769279  -1.972878  4.985219
H    1.778228  -4.271949  4.804229
H    -1.432780  -3.456303  0.490325
H    1.772945  -6.485724  2.983078
H    -0.759182  -5.670507  -0.428772
H    0.836237  -7.122730  0.768954
O    1.821493  1.117415  1.855366
H    2.734799  1.245448  2.188874
Pb    -1.575419  -4.269842  4.521071
