28
Energy: -608821.267728 eV PBE+vdW (tier 2 basis)
N    -1.182347  0.146903  1.034882
C    -0.240285  0.879403  1.855776
C    1.081515  1.243144  1.167487
O    1.345637  0.806321  -0.010981
H    -0.760982  -0.676852  0.603691
H    -1.573094  0.717232  0.285494
H    -0.685585  1.857244  2.110654
C    0.054516  0.135547  3.180566
C    -1.154639  0.071354  4.156076
C    -2.358991  -0.660774  3.649183
C    -0.861890  -0.665451  5.445766
N    -2.676798  -1.617248  4.477893
C    -1.809755  -1.689143  5.596188
C    0.106994  -0.497925  6.425211
C    -1.852139  -2.564713  6.673056
C    0.091673  -1.368245  7.523988
C    -0.867792  -2.382298  7.646460
H    0.870601  0.640133  3.713193
H    0.393037  -0.887842  2.961124
H    -2.918357  -0.460882  2.740473
H    -3.480865  -2.235495  4.348965
H    0.855929  0.290714  6.361046
H    -2.606923  -3.344686  6.763257
H    0.840238  -1.250438  8.306140
H    -0.849779  -3.036539  8.516394
O    1.928151  2.016263  1.756541
H    -1.479712  1.109574  4.368368
Pb    3.315643  2.001701  -0.069897
