28
Energy: -608821.259529 eV PBE+vdW (tier 2 basis)
N    -1.236841  2.054464  2.294314
C    -0.038506  1.241218  2.462591
C    0.960027  1.584770  1.363901
O    1.925041  2.401260  1.610943
H    -1.124844  3.023628  2.586218
H    -1.638494  2.015595  1.357496
H    0.435640  1.533856  3.407857
C    -0.394392  -0.258244  2.479107
C    -1.482892  -0.549983  3.544711
C    -2.263621  -1.785239  3.284412
C    -1.077130  -0.729799  4.989740
N    -2.328049  -2.516440  4.365327
C    -1.628059  -1.939072  5.449962
C    -0.346870  0.045974  5.881823
C    -1.488293  -2.426053  6.743380
C    -0.180652  -0.423671  7.191303
C    -0.739897  -1.636383  7.616438
H    0.500028  -0.864246  2.674513
H    -0.772637  -0.541654  1.486046
H    -2.751296  -2.087006  2.359942
H    -2.839306  -3.399337  4.428350
H    0.083038  1.004082  5.594832
H    -1.938609  -3.364263  7.064756
H    0.391773  0.172326  7.900631
H    -0.594712  -1.964775  8.644107
O    0.810444  1.137287  0.163523
H    -2.197756  0.305569  3.454150
Pb    2.658865  2.306137  -0.556374
