28
Energy: -608821.538027 eV PBE+vdW (tier 2 basis)
N    -0.929470  0.548787  0.522503
C    -0.215989  0.055813  1.743996
C    1.231998  -0.256922  1.310310
O    1.499086  -0.471941  0.147482
H    -0.575383  1.489765  0.305242
H    -0.567943  -0.024126  -0.262457
H    -0.229851  0.849355  2.502468
C    -0.857359  -1.233214  2.303303
C    -2.337144  -1.188461  2.571402
C    -2.964424  -1.024437  3.812391
C    -3.392772  -1.618778  1.665395
N    -4.292775  -1.298896  3.709728
C    -4.616657  -1.635998  2.414917
C    -3.439197  -1.909356  0.265939
C    -5.847528  -1.943953  1.827839
C    -4.690229  -2.205484  -0.309200
C    -5.866192  -2.219495  0.459367
H    -0.325030  -1.481742  3.230950
H    -0.653094  -2.061555  1.606771
H    -2.521504  -0.771350  4.771616
H    -4.952277  -1.247820  4.483403
H    -2.523896  -2.041763  -0.315231
H    -6.765045  -1.975514  2.415840
H    -4.739071  -2.460722  -1.367287
H    -6.812019  -2.466302  -0.020397
O    2.059426  -0.294916  2.351763
H    2.961761  -0.531880  2.047029
Pb    -3.357690  0.724980  0.712157
