28
Energy: -608822.104093 eV PBE+vdW (tier 2 basis)
N    -0.831114  1.457344  2.588219
C    -0.126376  0.162249  2.422409
C    0.002577  -0.074325  0.927235
O    -0.891676  0.265280  0.130646
H    -1.030246  1.626691  3.579233
H    -0.245599  2.240152  2.275961
H    0.876764  0.166554  2.870965
C    -0.967786  -0.975720  3.083421
C    -2.444847  -1.002531  2.753654
C    -3.466555  -0.640634  3.656862
C    -3.123439  -1.716080  1.662900
N    -4.670648  -1.056330  3.185815
C    -4.521433  -1.711622  1.973937
C    -2.687021  -2.413417  0.513629
C    -5.479386  -2.330910  1.166399
C    -3.637590  -3.039863  -0.277481
C    -5.013891  -2.991059  0.037665
H    -0.844075  -0.864091  4.169653
H    -0.507265  -1.940667  2.828748
H    -3.381597  -0.171887  4.633505
H    -5.554465  -0.931882  3.674513
H    -1.629855  -2.495000  0.266734
H    -6.537979  -2.320515  1.423045
H    -3.318212  -3.597667  -1.156545
H    -5.724426  -3.499582  -0.612317
O    1.097954  -0.690981  0.568424
H    1.125142  -0.845759  -0.402446
Pb    -2.899956  1.043251  1.183218
