28
Energy: -608820.228818 eV PBE+vdW (tier 2 basis)
N    -1.176552  0.108199  1.058670
C    -0.276222  -0.473119  2.109408
C    1.146991  -0.329044  1.553592
O    1.329698  0.010870  0.400733
H    -1.616511  0.987091  1.353367
H    -0.541731  0.301923  0.245833
H    -0.393653  0.081121  3.047098
C    -0.719805  -1.963023  2.274699
C    -2.172184  -1.961816  1.853335
C    -2.340319  -0.982211  0.701845
C    -3.298133  -1.621449  2.753363
N    -3.645809  -0.454495  0.818866
C    -4.224605  -0.809383  2.034049
C    -3.657812  -2.134363  4.030376
C    -5.459328  -0.463505  2.582570
C    -4.895877  -1.760225  4.581042
C    -5.772710  -0.942859  3.863245
H    -0.554815  -2.294648  3.305394
H    -0.113075  -2.604311  1.621459
H    -2.073151  -1.303931  -0.309673
H    -4.145111  -0.009257  0.056608
H    -2.937153  -2.695643  4.631666
H    -6.153880  0.186025  2.050239
H    -5.165402  -2.103612  5.578221
H    -6.727321  -0.664363  4.307552
O    2.061154  -0.651102  2.457063
H    2.958679  -0.563314  2.069613
Pb    -3.600951  -3.935703  1.851462
