28
Energy: -608820.056 eV PBE+vdW (tier 2 basis)
N    -0.310735  -0.600580  -0.076831
C    -0.588557  -0.331406  1.295673
C    0.246524  0.742140  2.021185
O    0.233865  0.868589  3.237667
H    -0.848811  -0.040383  -0.731367
H    0.674747  -0.568397  -0.327933
H    -1.624607  0.036537  1.374256
C    -0.506405  -1.690393  2.113898
C    -0.795964  -1.539729  3.564382
C    0.148748  -1.521580  4.609324
C    -2.082385  -1.233765  4.181152
N    -0.481157  -1.174634  5.810865
C    -1.844272  -0.924593  5.567004
C    -3.389966  -1.069299  3.658947
C    -2.840773  -0.434703  6.419545
C    -4.370073  -0.582980  4.502719
C    -4.096627  -0.260723  5.857694
H    0.492952  -2.119137  1.961487
H    -1.226134  -2.358206  1.625673
H    1.230947  -1.599592  4.556632
H    0.022410  -0.865358  6.642684
H    -3.605696  -1.291649  2.614709
H    -2.637548  -0.177220  7.458247
H    -5.378248  -0.426693  4.121066
H    -4.899787  0.140007  6.475419
O    0.942536  1.510423  1.186756
H    1.416249  2.198144  1.700189
Pb    -1.284363  -3.583297  5.279570
