28
Energy: -608821.138795 eV PBE+vdW (tier 2 basis)
N    -0.851491  0.341753  0.860225
C    0.212950  -0.223385  1.678324
C    1.562055  0.358851  1.320698
O    1.635240  1.519690  0.769387
H    -1.739081  0.320904  1.363279
H    -0.665525  1.316137  0.618936
H    0.136163  0.084889  2.748723
C    0.169639  -1.763018  1.720728
C    0.304168  -2.513466  0.361795
C    -0.786944  -2.225028  -0.622302
C    0.190121  -4.015055  0.521077
N    -1.414898  -3.329377  -0.923983
C    -0.883029  -4.463934  -0.263833
C    0.902556  -4.936908  1.275253
C    -1.292536  -5.788448  -0.346099
C    0.513367  -6.282170  1.212427
C    -0.562884  -6.700929  0.418351
H    -0.781170  -2.056029  2.186739
H    0.964389  -2.130957  2.381529
H    -1.060295  -1.260653  -1.039313
H    -2.196015  -3.376626  -1.581914
H    1.745153  -4.638672  1.898194
H    -2.129197  -6.104358  -0.967710
H    1.061528  -7.021922  1.794055
H    -0.835391  -7.754664  0.395587
O    2.651450  -0.252141  1.638315
H    1.266969  -2.232909  -0.106178
Pb    3.919712  1.562422  1.005710
