28
Energy: -608821.024512 eV PBE+vdW (tier 2 basis)
N    -0.622088  -1.382640  1.973541
C    0.629171  -1.384648  1.244584
C    1.671387  -0.569230  1.989304
O    2.739382  -0.160007  1.395439
H    -0.481348  -1.402835  2.983030
H    -0.264618  -1.234600  -2.156059
H    1.122075  -2.387265  1.188589
C    0.474201  -0.854769  -0.202786
C    -0.294724  -1.773947  -1.181286
C    0.321100  -3.093518  -1.504067
C    -1.737719  -2.151080  -0.925788
N    -0.596295  -4.024217  -1.502976
C    -1.877455  -3.529746  -1.162465
C    -2.861449  -1.409304  -0.585912
C    -3.081124  -4.220977  -1.080617
C    -4.086875  -2.081198  -0.489355
C    -4.196555  -3.458894  -0.732758
H    1.468595  -0.661612  -0.626027
H    -0.058855  0.104186  -0.159552
H    1.354846  -3.307594  -1.767293
H    -0.418987  -4.999369  -1.755573
H    -2.800348  -0.339961  -0.391278
H    -3.157645  -5.288473  -1.282703
H    -4.980441  -1.519140  -0.221422
H    -5.169118  -3.941738  -0.653635
O    1.513091  -0.311111  3.237872
H    -1.219846  -2.165771  1.719155
Pb    3.496644  0.842460  3.319036
