28
Energy: -608820.427907 eV PBE+vdW (tier 2 basis)
N    0.896952  -0.688467  0.258098
C    0.156890  -0.158333  1.387465
C    1.074640  0.104714  2.596309
O    1.122922  -0.589202  3.599983
H    1.468416  0.009117  -0.214942
H    1.467054  -1.504152  0.480404
H    -0.266605  0.809024  1.078425
C    -0.990072  -1.136448  1.740683
C    -1.962627  -0.635400  2.764514
C    -3.037965  0.207415  2.526015
C    -1.984400  -0.879155  4.170492
N    -3.729105  0.473726  3.691766
C    -3.124345  -0.158979  4.727985
C    -1.128519  -1.581949  5.060761
C    -3.418257  -0.170824  6.103603
C    -1.372968  -1.519562  6.453706
C    -2.515265  -0.833297  6.971993
H    -0.551411  -2.087210  2.074601
H    -1.517522  -1.341915  0.800461
H    -3.366885  0.648790  1.588956
H    -4.539155  1.085864  3.755923
H    -0.240714  -2.083950  4.677800
H    -4.276605  0.365480  6.510668
H    -0.671607  -1.987836  7.144986
H    -2.677582  -0.788412  8.048808
O    1.861632  1.166089  2.377876
H    2.495029  1.252725  3.119559
Pb    -3.393105  -2.946976  5.713322
