28
Energy: -608822.005474 eV PBE+vdW (tier 2 basis)
N    -0.469170  1.356040  2.454985
C    0.256651  0.063487  2.323372
C    0.593698  -0.125445  0.845147
O    -0.117691  0.364354  -0.042193
H    0.190457  2.138426  2.373549
H    -0.871181  1.430093  3.394222
H    1.177611  0.076827  2.928094
C    -0.637285  -1.133785  2.791882
C    -1.809329  -1.405497  1.899400
C    -1.884249  -2.380342  0.923003
C    -3.040695  -0.648745  1.799631
N    -3.056865  -2.259864  0.219254
C    -3.786241  -1.207315  0.698661
C    -3.653757  0.390751  2.568764
C    -5.034750  -0.698424  0.305212
C    -4.902981  0.876728  2.171841
C    -5.570141  0.353786  1.040865
H    -0.950688  -0.924464  3.826600
H    0.000508  -2.025901  2.852343
H    -1.175895  -3.166090  0.678009
H    -3.340374  -2.874141  -0.539323
H    -3.201027  0.747109  3.494756
H    -5.581426  -1.129851  -0.533287
H    -5.384814  1.655200  2.762167
H    -6.540771  0.760623  0.761662
O    1.601571  -0.888714  0.490091
H    2.160899  -1.177437  1.238720
Pb    -2.168728  1.500678  0.559738
