28
Energy: -608821.271069 eV PBE+vdW (tier 2 basis)
N    0.867068  -1.479476  0.389699
C    0.503339  -1.855403  1.725295
C    -0.820383  -2.604798  1.726233
O    -1.296301  -3.193282  2.730992
H    1.735173  -0.949305  0.354000
H    0.924776  -2.254834  -0.268107
H    1.204453  -2.542836  2.256069
C    0.395845  -0.547648  2.597751
C    0.608592  -0.720610  4.069709
C    1.816872  -0.616977  4.735141
C    -0.372422  -0.989831  5.095337
N    1.647681  -0.834284  6.083405
C    0.338049  -1.091649  6.353108
C    -1.795269  -1.112419  5.115187
C    -0.309946  -1.412433  7.558527
C    -2.429534  -1.440198  6.332291
C    -1.690304  -1.604975  7.530105
H    -0.555001  -0.040689  2.383957
H    1.175461  0.119272  2.207270
H    2.800474  -0.382249  4.338930
H    2.396698  -0.806232  6.770848
H    -2.388093  -0.919017  4.220338
H    0.244306  -1.492303  8.494084
H    -3.515478  -1.529083  6.357673
H    -2.217317  -1.854845  8.449500
O    -1.461221  -2.615226  0.590020
H    -2.296517  -3.128336  0.656914
Pb    -0.936001  -3.546336  4.997725
