28
Energy: -608821.426456 eV PBE+vdW (tier 2 basis)
N    0.509034  -1.295777  0.296346
C    0.234718  -0.145418  1.231106
C    1.475027  0.158429  2.031512
O    1.546113  1.262317  2.665450
H    0.841854  -0.995936  -0.628283
H    -0.401892  -1.808957  0.188613
H    -0.051040  0.723115  0.625625
C    -0.977220  -0.545604  2.158893
C    -2.094783  -1.097693  1.349097
C    -2.494939  -2.439153  1.303358
C    -2.969717  -0.375940  0.460948
N    -3.554867  -2.560624  0.460055
C    -3.878786  -1.323944  -0.079060
C    -3.095398  0.977627  0.095121
C    -4.892011  -0.970551  -0.968926
C    -4.102966  1.337271  -0.797807
C    -4.985188  0.378332  -1.322679
H    -1.264225  0.367424  2.697596
H    -0.633371  -1.276111  2.905339
H    -2.130573  -3.291550  1.869603
H    -4.064600  -3.422327  0.291278
H    -2.445278  1.744575  0.518480
H    -5.590735  -1.705954  -1.365872
H    -4.220769  2.380892  -1.084488
H    -5.767463  0.692655  -2.011624
O    2.405720  -0.721063  2.122570
H    1.222767  -1.919162  0.708914
Pb    3.604469  0.705388  3.601040
