28
Energy: -608820.268975 eV PBE+vdW (tier 2 basis)
N    0.983501  -0.776905  0.693646
C    -0.002214  -0.184191  1.557699
C    0.693435  0.355793  2.811443
O    1.854843  0.133475  3.074059
H    0.872313  -0.556654  -0.293683
H    1.934822  -0.585637  1.016800
H    -0.556096  0.638272  1.080128
C    -1.085220  -1.271708  1.959146
C    -0.347593  -2.507259  2.399285
C    0.483092  -3.236631  1.489289
C    0.271137  -2.733222  3.711626
N    1.438443  -3.907233  2.169371
C    1.340140  -3.661317  3.534211
C    -0.103467  -2.340650  5.030728
C    2.082634  -4.146262  4.608593
C    0.644680  -2.850956  6.107484
C    1.717265  -3.725035  5.893846
H    -1.697724  -1.480376  1.072845
H    -1.747784  -0.853431  2.731228
H    0.364548  -3.361824  0.419355
H    2.125260  -4.523564  1.739385
H    -0.827274  -1.537690  5.197892
H    2.925689  -4.821637  4.462604
H    0.405048  -2.532312  7.121057
H    2.289175  -4.084100  6.748317
O    -0.155237  1.066864  3.576738
H    0.352554  1.461425  4.315740
Pb    -1.918418  -3.963936  3.736792
