35
Energy: -21190.1514159 eV PBE+vdW (tier 2 basis)
C    0.175981  -1.141003  0.553930
C    -0.086345  0.089908  1.408249
O    0.691861  1.039606  1.434354
H    1.145883  -1.008941  0.067739
H    -0.593802  -1.262261  -0.221989
H    0.197425  -2.063622  1.150493
N    -1.245450  0.106775  2.140755
C    -2.227995  -0.953903  2.292930
C    -3.590103  -0.260569  2.481466
O    -3.716707  0.621288  3.330055
H    -1.393080  0.933899  2.716745
H    -2.224657  -1.563399  1.380679
C    -1.932439  -1.857880  3.509732
C    -2.888837  -3.042196  3.655105
C    -2.589754  -3.881957  4.894825
N    -3.525168  -5.001597  4.987222
C    -3.513111  -5.892275  6.058172
N    -3.285891  -5.296745  7.300024
N    -3.687273  -7.146748  5.817061
H    -1.968960  -1.224816  4.409436
H    -0.895903  -2.216052  3.415727
H    -2.820462  -3.685337  2.760138
H    -3.931659  -2.693725  3.714325
H    -2.691761  -3.246950  5.786136
H    -1.537212  -4.225353  4.874292
H    -3.599548  -5.542356  4.127511
H    -3.477329  -5.902578  8.089795
H    -3.670426  -4.364446  7.424596
H    -3.797196  -7.684812  6.680714
N    -4.632055  -0.660272  1.700149
C    -4.636423  -1.642655  0.626466
H    -5.493209  -0.156983  1.891122
H    -3.921242  -1.388933  -0.168939
H    -5.635945  -1.654741  0.179713
H    -4.422739  -2.658052  0.988370
