35
Energy: -21190.3079692 eV PBE+vdW (tier 2 basis)
C    0.356254  0.143291  -0.207427
C    0.529660  0.504887  1.256400
O    1.568617  0.986636  1.694039
H    -0.409461  0.775339  -0.679878
H    0.057889  -0.905966  -0.342078
H    1.311763  0.310305  -0.710819
N    -0.530624  0.242244  2.098043
C    -1.879911  -0.113451  1.714025
C    -2.658165  1.114335  1.174484
O    -2.303559  2.266750  1.446678
H    -0.403768  0.658011  3.016676
H    -1.808963  -0.837932  0.889152
C    -2.598007  -0.852109  2.869074
C    -2.711399  -0.149982  4.232245
C    -3.484399  1.175203  4.263525
N    -4.754441  1.061592  3.553333
C    -5.508801  2.158242  3.137207
N    -4.774917  3.283209  2.791737
N    -6.795510  2.022486  3.121781
H    -2.052955  -1.795544  3.019119
H    -3.605558  -1.124351  2.530818
H    -1.715977  0.023967  4.670292
H    -3.196083  -0.868194  4.913423
H    -2.887257  1.961366  3.790874
H    -3.625858  1.479970  5.317039
H    -5.391316  0.362055  3.929464
H    -5.316142  4.016113  2.349843
H    -3.852078  3.142779  2.370798
H    -7.249392  2.836620  2.699974
N    -3.711716  0.889455  0.342095
C    -4.428644  -0.351439  0.100511
H    -4.203504  1.746995  0.103318
H    -3.734430  -1.194799  0.010768
H    -4.969226  -0.268143  -0.849200
H    -5.154690  -0.567431  0.899761
