35
Energy: -21190.7148876 eV PBE+vdW (tier 2 basis)
C    0.614513  -2.100459  -0.414392
C    0.113552  -2.071024  1.013733
O    0.653056  -2.740657  1.906871
H    0.773668  -3.142730  -0.714114
H    1.587587  -1.592667  -0.457536
H    -0.076375  -1.613640  -1.111527
N    -0.945112  -1.237760  1.239389
C    -1.523391  -1.192117  2.581957
C    -2.586588  -2.306741  2.655143
O    -3.752742  -2.172323  2.260184
H    -1.496484  -0.939058  0.408740
H    -0.691877  -1.506126  3.226860
C    -1.940553  0.218931  3.077216
C    -3.406138  0.698216  3.060083
C    -3.939492  1.250884  1.735279
N    -3.879573  0.263325  0.661576
C    -3.264166  0.490797  -0.537963
N    -3.426674  1.778350  -1.043045
N    -2.547445  -0.450982  -1.082704
H    -1.305422  0.942290  2.541347
H    -1.618110  0.265176  4.127468
H    -3.488907  1.516494  3.792644
H    -4.068693  -0.100382  3.418545
H    -3.347721  2.127743  1.433039
H    -4.975398  1.599490  1.892763
H    -3.868100  -0.712066  0.982757
H    -3.048882  1.930065  -1.970410
H    -4.333654  2.210643  -0.896736
H    -2.293344  -0.223096  -2.046645
N    -2.090634  -3.477972  3.131509
C    -2.850801  -4.713375  3.091388
H    -1.074033  -3.530108  3.198448
H    -2.630081  -5.319483  3.978453
H    -2.621123  -5.303653  2.191005
H    -3.916281  -4.462984  3.077354
