35
Energy: -21190.3062536 eV PBE+vdW (tier 2 basis)
C    1.200454  -0.313206  0.406517
C    0.706246  -0.759894  1.769068
O    1.408442  -1.400735  2.544618
H    1.866584  -1.079801  -0.001953
H    1.785350  0.607608  0.540583
H    0.392020  -0.110871  -0.307616
N    -0.582592  -0.389008  2.068927
C    -1.117678  -0.422563  3.430100
C    -0.114848  0.253282  4.411479
O    0.475882  1.272598  4.059593
H    -1.002853  0.288230  1.444319
H    -1.946354  0.304021  3.419648
C    -1.781105  -1.770138  3.796035
C    -0.989329  -3.083882  3.674035
C    0.114193  -3.348576  4.697944
N    -0.417742  -3.289255  6.063451
C    0.454532  -3.334827  7.148944
N    -0.205708  -3.365692  8.385332
N    1.723492  -3.234731  6.966422
H    -2.651430  -1.861467  3.128101
H    -2.209195  -1.673604  4.806949
H    -0.532877  -3.149100  2.677754
H    -1.724745  -3.906758  3.720563
H    0.915875  -2.608565  4.609779
H    0.576775  -4.329102  4.495582
H    -1.279883  -3.812701  6.194696
H    0.336400  -3.767977  9.141263
H    -1.171884  -3.678570  8.390473
H    2.220818  -3.162962  7.857662
N    -0.052023  -0.258102  5.665024
C    0.864219  0.280944  6.654673
H    -0.432420  -1.185963  5.845479
H    0.495745  0.033925  7.657048
H    0.919604  1.368455  6.537395
H    1.874456  -0.138610  6.536412
