35
Energy: -21190.4788566 eV PBE+vdW (tier 2 basis)
C    0.400012  -0.010515  1.182628
C    0.069950  0.223617  2.645291
O    0.956777  0.342222  3.495203
H    1.427212  0.324574  1.013049
H    -0.281141  0.512032  0.499370
H    0.354986  -1.084261  0.947112
N    -1.254951  0.304865  2.994645
C    -2.346761  -0.340090  2.266543
C    -3.330434  0.654010  1.604621
O    -4.294288  0.245393  0.958591
H    -1.407995  0.441548  4.008882
H    -1.922588  -0.908716  1.425777
C    -3.120813  -1.314919  3.170872
C    -2.454466  -2.662901  3.499609
C    -1.039435  -2.702501  4.125101
N    -0.710720  -1.715787  5.164397
C    -1.652942  -1.165147  6.012643
N    -2.459014  -2.095397  6.658491
N    -1.737902  0.126694  6.091502
H    -4.068051  -1.529339  2.657928
H    -3.384687  -0.784906  4.097192
H    -2.402238  -3.273996  2.583176
H    -3.146346  -3.191200  4.170378
H    -0.280332  -2.554097  3.344726
H    -0.874542  -3.726836  4.499929
H    -0.061488  -0.993098  4.844755
H    -3.077785  -1.725661  7.370107
H    -2.011960  -2.969803  6.915576
H    -2.343121  0.428886  6.859398
N    -3.025708  1.964548  1.784324
C    -3.822172  3.041311  1.234491
H    -2.199887  2.163753  2.341049
H    -4.226794  3.682525  2.030109
H    -4.653997  2.590234  0.682229
H    -3.231685  3.662835  0.546635
