35
Energy: -21190.1802722 eV PBE+vdW (tier 2 basis)
C    -0.287132  -0.083664  -0.415381
C    0.075550  0.077413  1.050042
O    1.242741  0.173897  1.420713
H    0.615272  0.110656  -1.000781
H    -1.081898  0.598830  -0.742663
H    -0.622097  -1.109203  -0.621542
N    -0.945932  0.107449  1.971832
C    -2.386784  -0.051281  1.786378
C    -3.075121  1.051384  2.624344
O    -3.505499  0.825290  3.753380
H    -0.614274  0.164707  2.932791
H    -2.601298  0.110995  0.721383
C    -2.905743  -1.435771  2.199040
C    -2.335993  -2.576952  1.360014
C    -2.804020  -3.955472  1.844686
N    -2.281872  -5.079143  1.065706
C    -0.913118  -5.326542  0.974983
N    -0.230676  -5.187652  2.184840
N    -0.409758  -5.628085  -0.173217
H    -4.005036  -1.419998  2.130466
H    -2.678133  -1.585231  3.265141
H    -1.236439  -2.558192  1.392839
H    -2.625371  -2.455593  0.302657
H    -3.901288  -4.023867  1.810948
H    -2.528806  -4.084670  2.901949
H    -2.681965  -5.152711  0.132874
H    0.725567  -5.522513  2.166738
H    -0.734641  -5.483322  3.015988
H    0.564400  -5.931129  -0.088281
N    -3.152335  2.297157  2.068459
C    -2.584719  2.760310  0.813243
H    -3.538063  2.991390  2.701019
H    -2.961381  2.181552  -0.041945
H    -1.485440  2.721973  0.810172
H    -2.890614  3.800445  0.660004
