35
Energy: -21190.3305682 eV PBE+vdW (tier 2 basis)
C    -0.126473  0.503958  -0.596086
C    0.148974  -0.409695  0.582007
O    1.274613  -0.812645  0.859759
H    -0.661369  1.415221  -0.295326
H    -0.740644  -0.003528  -1.353841
H    0.832297  0.775362  -1.044674
N    -0.932756  -0.770914  1.359002
C    -2.338199  -0.449934  1.153976
C    -2.804379  0.880284  1.797779
O    -3.947349  1.289162  1.602770
H    -0.693781  -1.431611  2.093925
H    -2.515962  -0.316897  0.077401
C    -3.251509  -1.593860  1.630054
C    -3.197341  -1.877834  3.133388
C    -4.214274  -2.950307  3.549054
N    -4.212958  -3.237692  4.978015
C    -3.686811  -4.381014  5.562890
N    -2.716430  -5.026832  4.792584
N    -4.016464  -4.884833  6.703914
H    -2.999427  -2.500212  1.058052
H    -4.276772  -1.311069  1.353064
H    -3.401991  -0.956019  3.699473
H    -2.192098  -2.210123  3.445082
H    -4.024354  -3.885535  3.002361
H    -5.222851  -2.616588  3.259855
H    -4.934408  -2.789896  5.528417
H    -2.299065  -5.786138  5.323097
H    -2.015354  -4.423832  4.371002
H    -4.839354  -4.419063  7.096427
N    -1.881510  1.516256  2.564348
C    -2.149790  2.769369  3.241690
H    -0.969664  1.079145  2.646628
H    -1.466190  3.559001  2.900666
H    -2.049366  2.660988  4.330484
H    -3.178911  3.060576  3.005230
