35
Energy: -21190.0638503 eV PBE+vdW (tier 2 basis)
C    -1.398751  0.466057  0.109699
C    -1.928014  0.537759  1.533206
O    -2.566221  1.512126  1.928004
H    -0.728442  1.318754  -0.055227
H    -2.242585  0.577610  -0.582512
H    -0.860526  -0.459588  -0.129094
N    -1.649638  -0.561676  2.299338
C    -1.892852  -0.821033  3.725298
C    -3.025659  -1.825423  4.052049
O    -2.859790  -2.578122  5.012840
H    -1.124246  -1.292623  1.834612
H    -1.008892  -1.387975  4.046979
C    -1.951501  0.411590  4.660510
C    -3.316152  1.059443  4.898004
C    -3.209257  2.229080  5.873862
N    -4.509102  2.847004  6.074323
C    -4.681597  3.866736  7.003568
N    -5.963605  4.427262  6.941658
N    -3.830645  4.319667  7.858238
H    -1.237932  1.157720  4.283577
H    -1.562076  0.060896  5.627815
H    -4.022456  0.321064  5.306800
H    -3.715763  1.424544  3.942067
H    -2.462573  2.956776  5.498953
H    -2.846234  1.869257  6.849728
H    -5.054654  2.965763  5.224788
H    -6.715970  3.747040  6.870827
H    -6.106430  5.073889  7.712318
H    -2.899089  3.927770  7.703652
N    -4.167341  -1.882366  3.308731
C    -4.653457  -1.039271  2.227063
H    -4.790137  -2.611235  3.644908
H    -5.749603  -1.042834  2.252820
H    -4.332390  -1.402963  1.238666
H    -4.322244  -0.002228  2.340022
