35
Energy: -21189.9016155 eV PBE+vdW (tier 2 basis)
C    -0.755595  0.001198  1.140937
C    -1.122523  -0.364737  2.567154
O    -0.317872  -0.908018  3.320339
H    0.314670  -0.180759  1.014454
H    -0.970138  1.052519  0.909381
H    -1.308959  -0.623964  0.426792
N    -2.393922  -0.080908  3.003838
C    -3.527819  0.516369  2.297092
C    -3.904159  -0.346645  1.055458
O    -4.149936  -1.535247  1.247057
H    -2.576307  -0.466734  3.924172
H    -4.390512  0.307216  2.948632
C    -3.436823  2.049821  2.203701
C    -3.387986  2.707626  3.584376
C    -3.269500  4.233970  3.489879
N    -3.298281  4.920844  4.772691
C    -4.507181  5.134281  5.415036
N    -4.334763  5.657439  6.705723
N    -5.622046  4.834930  4.840114
H    -4.321352  2.424910  1.667284
H    -2.556437  2.358531  1.620964
H    -2.536454  2.307161  4.156012
H    -4.304284  2.465735  4.143929
H    -4.104628  4.634957  2.900557
H    -2.333947  4.512204  2.980035
H    -2.517908  4.728976  5.393082
H    -5.196527  5.974717  7.136264
H    -3.594020  6.349090  6.791817
H    -6.420534  5.162859  5.387913
N    -4.027287  0.170910  -0.207898
C    -3.657674  1.446766  -0.803471
H    -4.341007  -0.551104  -0.850104
H    -4.338398  2.261581  -0.522048
H    -3.708733  1.331025  -1.891513
H    -2.631395  1.742203  -0.553257
