35
Energy: -21190.6816422 eV PBE+vdW (tier 2 basis)
C    -1.046369  -1.333269  0.496575
C    -0.863795  -1.128884  1.984484
O    0.162142  -1.491801  2.573325
H    -0.936572  -2.400533  0.268825
H    -0.243500  -0.802554  -0.030405
H    -2.013558  -0.981724  0.117752
N    -1.891374  -0.515264  2.636462
C    -1.839803  -0.179744  4.060251
C    -2.221391  -1.425533  4.912196
O    -3.321049  -1.547236  5.465560
H    -2.740311  -0.294872  2.127777
H    -0.789110  0.068560  4.276684
C    -2.742868  1.011471  4.362287
C    -2.559109  1.572082  5.786354
C    -3.879392  2.010979  6.425515
N    -4.742503  0.862424  6.619307
C    -6.107613  0.911923  6.414068
N    -6.680830  -0.354346  6.287845
N    -6.871277  1.955251  6.384968
H    -3.788786  0.694450  4.229805
H    -2.542763  1.797905  3.620645
H    -1.861678  2.421181  5.773968
H    -2.098843  0.812879  6.438795
H    -4.386668  2.745210  5.774471
H    -3.671665  2.524456  7.380381
H    -4.300229  -0.042995  6.458059
H    -7.648672  -0.298261  5.989666
H    -6.133590  -1.043482  5.779794
H    -6.351210  2.802693  6.622396
N    -1.237652  -2.350552  4.969991
C    -1.406693  -3.635334  5.622525
H    -0.435938  -2.195409  4.350425
H    -1.679554  -4.424392  4.905314
H    -2.208306  -3.549070  6.363106
H    -0.475470  -3.923210  6.124828
