35
Energy: -21190.5531385 eV PBE+vdW (tier 2 basis)
C    -0.875286  1.756604  2.234180
C    -0.651307  0.599009  3.183252
O    0.065329  0.707736  4.187404
H    -1.522122  1.511737  1.383139
H    0.096135  2.103498  1.860983
H    -1.324669  2.585840  2.794905
N    -1.282703  -0.563101  2.864964
C    -1.270448  -1.756694  3.711577
C    0.015856  -2.616232  3.517431
O    -0.022993  -3.788421  3.142150
H    -1.803481  -0.611550  1.997031
H    -1.238391  -1.388241  4.749373
C    -2.547796  -2.578253  3.514821
C    -2.869572  -2.967724  2.068321
C    -4.070470  -3.919285  1.992881
N    -4.485772  -4.198888  0.628971
C    -5.302925  -3.334233  -0.085377
N    -5.621677  -3.829985  -1.353655
N    -5.777298  -2.194694  0.288872
H    -3.389787  -2.012844  3.944733
H    -2.434662  -3.492165  4.115390
H    -2.000528  -3.456127  1.609014
H    -3.110477  -2.079636  1.460850
H    -4.914994  -3.513342  2.581689
H    -3.803389  -4.876961  2.459876
H    -4.558117  -5.175264  0.368723
H    -4.838963  -4.230356  -1.863809
H    -6.119287  -3.131814  -1.898465
H    -5.595542  -2.018652  1.279912
N    1.151430  -1.946327  3.836725
C    2.469643  -2.536023  3.719354
H    1.045420  -0.975618  4.149480
H    2.991702  -2.527211  4.686368
H    3.084292  -1.994688  2.985633
H    2.350849  -3.573093  3.388305
