35
Energy: -21190.6154652 eV PBE+vdW (tier 2 basis)
C    -2.003266  -0.474209  0.762560
C    -1.380228  -0.355680  2.140901
O    -0.190022  -0.617604  2.343476
H    -1.348396  0.023296  0.037492
H    -3.009961  -0.042303  0.711411
H    -2.050618  -1.535682  0.483496
N    -2.240358  0.029123  3.127020
C    -1.773598  0.283127  4.483577
C    -2.580639  -0.541064  5.511455
O    -3.226950  -0.012546  6.418305
H    -3.208964  0.298793  2.874222
H    -0.733021  -0.080349  4.497895
C    -1.754351  1.778274  4.850407
C    -3.081208  2.526901  4.636315
C    -3.268867  3.075759  3.208000
N    -4.662878  3.261665  2.822655
C    -5.445986  2.186584  2.484324
N    -6.777343  2.501117  2.214856
N    -4.929766  1.001429  2.353892
H    -0.950466  2.253924  4.266309
H    -1.463554  1.850833  5.906301
H    -3.147601  3.361055  5.350589
H    -3.914922  1.856884  4.881634
H    -2.822625  2.401622  2.468605
H    -2.762477  4.044901  3.094801
H    -5.138445  4.065349  3.215225
H    -7.434208  1.745209  2.367783
H    -7.123450  3.395394  2.546451
H    -5.620769  0.339563  1.996302
N    -2.536654  -1.901037  5.389473
C    -1.820886  -2.721087  4.427086
H    -3.119891  -2.371746  6.074452
H    -2.434137  -2.956857  3.543039
H    -1.527023  -3.661918  4.909019
H    -0.909973  -2.221401  4.078133
