35
Energy: -21190.2968064 eV PBE+vdW (tier 2 basis)
C    0.217139  -0.163481  -0.171069
C    -0.491842  -0.459103  1.141631
O    -1.054161  -1.530381  1.349260
H    1.051511  -0.867019  -0.289416
H    0.599301  0.862767  -0.242777
H    -0.480997  -0.346286  -0.996732
N    -0.442111  0.552571  2.063540
C    -1.042699  0.417727  3.380232
C    -2.549350  0.763152  3.469752
O    -3.275513  0.097051  4.202894
H    0.075290  1.398949  1.824066
H    -1.026830  -0.654329  3.621538
C    -0.291350  1.196417  4.475072
C    1.146619  0.736740  4.761561
C    2.239902  1.255166  3.810882
N    2.316261  2.715616  3.737180
C    1.654173  3.498602  2.812725
N    1.559402  2.923636  1.525114
N    1.167245  4.637011  3.172303
H    -0.883798  1.069640  5.391718
H    -0.305931  2.277248  4.261444
H    1.410694  1.059027  5.781886
H    1.193630  -0.364080  4.773287
H    2.089463  0.858821  2.800516
H    3.215241  0.875735  4.151004
H    2.334106  3.189522  4.637511
H    1.277668  3.603452  0.824621
H    2.400224  2.429596  1.228741
H    0.850479  5.186626  2.369569
N    -3.049672  1.827410  2.768620
C    -2.372450  2.837258  1.971281
H    -4.047147  1.942482  2.917514
H    -3.053452  3.687944  1.852105
H    -2.101888  2.472762  0.969208
H    -1.469053  3.218400  2.466832
