35
Energy: -21190.1140874 eV PBE+vdW (tier 2 basis)
C    -1.581894  3.715060  0.772140
C    -1.633714  2.839490  2.010767
O    -0.600985  2.479069  2.580866
H    -0.959575  3.217302  0.018158
H    -1.084918  4.657623  1.033631
H    -2.563687  3.937756  0.337378
N    -2.886904  2.466766  2.402447
C    -3.280411  1.748732  3.627046
C    -3.479984  2.773149  4.781713
O    -4.586833  3.313126  4.874648
H    -3.656600  2.918659  1.922384
H    -4.320953  1.454837  3.431363
C    -2.521506  0.454941  3.954569
C    -2.651429  -0.659777  2.904489
C    -1.623848  -0.605650  1.754385
N    -0.229353  -0.532099  2.176200
C    0.353383  -1.490886  2.993419
N    0.100867  -2.812444  2.623763
N    1.132227  -1.111799  3.951799
H    -2.957015  0.097375  4.900169
H    -1.462104  0.631967  4.158278
H    -2.530301  -1.624178  3.421401
H    -3.666704  -0.671804  2.473475
H    -1.802711  0.267567  1.115261
H    -1.777183  -1.477296  1.096476
H    0.055119  0.404679  2.462906
H    0.145485  -3.493964  3.370306
H    -0.638968  -2.986004  1.953293
H    1.623804  -1.910151  4.363896
N    -2.478721  3.091856  5.645878
C    -1.097494  2.632783  5.756398
H    -2.795730  3.765652  6.337333
H    -1.013886  1.694297  6.324177
H    -0.643497  2.502118  4.768739
H    -0.528356  3.404443  6.287250
