35
Energy: -21190.3653628 eV PBE+vdW (tier 2 basis)
C    -0.014946  0.257104  3.637446
C    -0.180992  -1.229507  3.391189
O    0.553138  -2.071929  3.900023
H    0.769041  0.390507  4.386933
H    -0.944115  0.724521  3.990971
H    0.284465  0.776213  2.715572
N    -1.218241  -1.613697  2.566891
C    -2.137705  -0.765672  1.818875
C    -3.398845  -0.328922  2.603951
O    -4.182600  0.480180  2.111536
H    -1.225357  -2.612346  2.376499
H    -1.626441  0.173196  1.563023
C    -2.555637  -1.428319  0.493462
C    -3.394630  -2.700356  0.652011
C    -3.839306  -3.314442  -0.685330
N    -2.756550  -3.836423  -1.518544
C    -1.974639  -3.059572  -2.373063
N    -2.658850  -2.010962  -2.985996
N    -0.723524  -3.230302  -2.637579
H    -1.645261  -1.630715  -0.088581
H    -3.134275  -0.685326  -0.070522
H    -4.300545  -2.476377  1.238415
H    -2.848382  -3.474647  1.219770
H    -4.393764  -2.564100  -1.262912
H    -4.540303  -4.139405  -0.489662
H    -2.218220  -4.578044  -1.080762
H    -2.079999  -1.580565  -3.701079
H    -3.590987  -2.234701  -3.322771
H    -0.302458  -3.929855  -2.019679
N    -3.558116  -0.904370  3.824764
C    -4.678824  -0.607385  4.693955
H    -2.835822  -1.549878  4.126531
H    -4.340358  -0.175995  5.646248
H    -5.268146  -1.510488  4.905465
H    -5.314246  0.120643  4.177920
