35
Energy: -21190.3877365 eV PBE+vdW (tier 2 basis)
C    -0.532586  -1.227645  0.581481
C    -0.657590  -0.455323  1.882691
O    -0.063987  0.601439  2.078033
H    -1.134966  -2.144031  0.547588
H    0.522439  -1.485471  0.426001
H    -0.834784  -0.573229  -0.245342
N    -1.493650  -1.014788  2.818227
C    -1.599676  -0.476180  4.175632
C    -2.225105  -1.508477  5.123323
O    -1.800043  -1.670340  6.266434
H    -1.786038  -1.974947  2.675047
H    -0.588434  -0.279533  4.560697
C    -2.402136  0.845425  4.210934
C    -2.305126  1.569179  5.569010
C    -3.654976  1.938882  6.192627
N    -4.486286  0.796301  6.532111
C    -5.602416  0.392939  5.824840
N    -6.227596  -0.719587  6.412853
N    -6.108043  0.878319  4.740830
H    -3.449600  0.621365  3.959887
H    -2.008898  1.482312  3.410314
H    -1.711321  2.488699  5.463078
H    -1.758030  0.941885  6.289745
H    -4.234229  2.586360  5.519269
H    -3.480114  2.530479  7.105701
H    -4.061056  0.093494  7.129185
H    -7.123611  -0.889120  5.963454
H    -6.322017  -0.656879  7.423794
H    -5.513140  1.602556  4.332831
N    -3.276881  -2.215770  4.610179
C    -4.009303  -3.189722  5.405662
H    -3.734809  -1.847052  3.782270
H    -4.871612  -2.727571  5.908046
H    -3.327697  -3.588791  6.163682
H    -4.354682  -4.007179  4.760888
