35
Energy: -21190.4284664 eV PBE+vdW (tier 2 basis)
C    -0.281516  0.553258  0.087841
C    -0.011953  0.269011  1.553864
O    1.123586  0.256103  2.032584
H    0.571407  0.208974  -0.504861
H    -0.379354  1.639998  -0.051519
H    -1.202279  0.082131  -0.278620
N    -1.128032  0.071800  2.311587
C    -1.099018  -0.117076  3.746252
C    -2.512832  -0.568924  4.150153
O    -3.482533  -0.384045  3.412551
H    -2.061992  0.070585  1.905428
H    -0.373996  -0.914528  3.981409
C    -0.658951  1.141724  4.539444
C    -1.589121  2.360357  4.491004
C    -1.649925  3.073645  3.138864
N    -2.295976  4.380754  3.290024
C    -2.539486  5.218438  2.201940
N    -1.599581  5.114751  1.177247
N    -3.518329  6.048204  2.070920
H    0.341713  1.410861  4.172958
H    -0.527691  0.842798  5.590992
H    -1.226286  3.086323  5.235620
H    -2.608595  2.077194  4.803563
H    -2.174324  2.456177  2.392798
H    -0.622235  3.214156  2.771406
H    -3.080084  4.370407  3.936252
H    -1.714110  5.870756  0.508832
H    -0.635153  4.992839  1.471644
H    -4.205394  5.936101  2.821417
N    -2.604810  -1.139898  5.380053
C    -3.863148  -1.571149  5.961166
H    -1.750290  -1.286552  5.904184
H    -4.066986  -1.042659  6.902622
H    -3.860984  -2.652881  6.152730
H    -4.655852  -1.340034  5.242522
