35
Energy: -21190.4926977 eV PBE+vdW (tier 2 basis)
C    0.662851  2.097816  0.186699
C    0.468833  1.313823  1.471245
O    0.425530  1.865115  2.570628
H    -0.103442  2.880477  0.132927
H    0.611510  1.481727  -0.719464
H    1.639420  2.597163  0.224300
N    0.329337  -0.039330  1.311433
C    0.258988  -0.950638  2.447645
C    1.600013  -1.707211  2.494509
O    1.915058  -2.459786  1.566948
H    0.538389  -0.453587  0.408667
H    0.121952  -0.307688  3.324279
C    -0.939102  -1.905002  2.320571
C    -1.293682  -2.669154  3.603730
C    -0.346084  -3.824297  3.961151
N    -0.750482  -4.563372  5.149880
C    -0.454982  -4.088590  6.412394
N    -1.062461  -4.852020  7.421806
N    0.280256  -3.039450  6.579554
H    -0.748520  -2.607409  1.492934
H    -1.799927  -1.287606  2.026595
H    -2.308930  -3.081715  3.486148
H    -1.337199  -1.973218  4.455271
H    0.667275  -3.458688  4.156812
H    -0.279305  -4.533501  3.122995
H    -1.629583  -5.066047  5.081816
H    -0.734403  -4.629344  8.355319
H    -1.065342  -5.855262  7.254524
H    0.496278  -2.900039  7.569156
N    2.417523  -1.478549  3.553208
C    2.152574  -0.674456  4.745264
H    3.276951  -2.019032  3.522992
H    3.101791  -0.539078  5.275713
H    1.444800  -1.177144  5.421946
H    1.779417  0.320409  4.471802
