35
Energy: -21190.1092562 eV PBE+vdW (tier 2 basis)
C    -0.365825  1.207782  -0.060293
C    -0.263616  0.141071  1.016121
O    0.807082  -0.347240  1.363001
H    0.135089  2.116136  0.298540
H    -1.395953  1.460878  -0.341566
H    0.176994  0.866167  -0.949580
N    -1.452814  -0.252468  1.570755
C    -1.527514  -1.177653  2.693855
C    -0.922193  -2.578104  2.472500
O    -0.410130  -3.150220  3.437602
H    -2.308571  0.193914  1.262287
H    -0.929785  -0.777437  3.524181
C    -3.001593  -1.291377  3.137338
C    -3.291636  -2.204041  4.337858
C    -2.874085  -1.674303  5.711793
N    -1.425988  -1.565959  5.855271
C    -0.830520  -1.249289  7.065211
N    -1.594414  -0.391855  7.874037
N    0.313705  -1.763178  7.363496
H    -3.596186  -1.646434  2.278761
H    -3.357071  -0.271939  3.365641
H    -2.844643  -3.196237  4.177118
H    -4.379318  -2.363519  4.377212
H    -3.307940  -2.335952  6.484888
H    -3.341323  -0.684438  5.856950
H    -0.883529  -2.262350  5.336298
H    -2.133868  0.314268  7.379946
H    -1.067273  0.006407  8.643423
H    0.693035  -1.351249  8.220413
N    -1.038814  -3.224556  1.276946
C    -1.557156  -2.779945  -0.005612
H    -0.564489  -4.122569  1.295546
H    -1.718189  -3.666092  -0.630687
H    -0.864077  -2.107721  -0.533365
H    -2.523461  -2.274508  0.101612
