35
Energy: -21190.4815208 eV PBE+vdW (tier 2 basis)
C    -0.179372  -0.644416  0.207601
C    -0.104475  -0.255081  1.670615
O    0.950796  0.161064  2.167400
H    0.484317  -1.503037  0.042560
H    0.201047  0.185667  -0.399299
H    -1.187794  -0.908722  -0.132785
N    -1.260547  -0.395256  2.375118
C    -1.449540  -0.225151  3.825818
C    -1.386825  1.245905  4.314420
O    -2.329641  1.719478  4.951667
H    -2.071003  -0.715659  1.860438
H    -2.494644  -0.503541  4.011048
C    -0.547338  -1.168078  4.644748
C    -0.850539  -1.118310  6.143653
C    0.004483  -2.087024  6.972846
N    -0.200877  -3.502925  6.664392
C    0.452454  -4.174837  5.640416
N    1.798369  -3.830646  5.492842
N    -0.213296  -5.018519  4.923354
H    0.508812  -0.925739  4.464819
H    -0.707345  -2.186619  4.261587
H    -1.917457  -1.337254  6.319126
H    -0.689468  -0.100787  6.533818
H    -0.212544  -1.937309  8.040958
H    1.067880  -1.851799  6.833443
H    -1.173685  -3.800682  6.689765
H    2.310543  -4.432802  4.858756
H    2.306047  -3.652263  6.354889
H    0.406456  -5.564185  4.318698
N    -0.233618  1.902097  4.037267
C    -0.012334  3.280920  4.423060
H    0.452295  1.409018  3.452460
H    0.913757  3.379708  5.006485
H    -0.859654  3.604266  5.037141
H    0.059258  3.936479  3.542653
