35
Energy: -21190.341451 eV PBE+vdW (tier 2 basis)
C    -1.089588  -1.029483  1.892990
C    -1.410450  0.330251  2.484141
O    -0.756850  0.804352  3.411318
H    -0.607552  -1.629699  2.670448
H    -0.371557  -0.910909  1.069388
H    -1.964432  -1.561300  1.502235
N    -2.478808  1.027521  1.961682
C    -3.216905  0.800047  0.719456
C    -4.165563  -0.424483  0.769868
O    -4.506628  -1.013100  -0.253273
H    -2.573525  1.967149  2.346236
H    -3.907517  1.655109  0.666774
C    -2.391735  0.790783  -0.588775
C    -1.146963  1.690022  -0.651711
C    -1.275161  3.155271  -0.192483
N    -2.464642  3.858947  -0.667551
C    -3.605739  4.072604  0.089121
N    -3.378630  4.176788  1.473521
N    -4.818725  4.171461  -0.337879
H    -3.087588  1.056893  -1.395526
H    -2.082910  -0.237892  -0.818655
H    -0.794885  1.673018  -1.695514
H    -0.325872  1.252988  -0.062414
H    -0.376952  3.702886  -0.518025
H    -1.279627  3.197921  0.901141
H    -2.657027  3.770635  -1.660089
H    -2.590201  4.768034  1.728563
H    -4.235258  4.487341  1.925903
H    -4.889497  3.931638  -1.330772
N    -4.618935  -0.736336  2.014306
C    -5.560796  -1.808479  2.262207
H    -4.231815  -0.210627  2.790631
H    -6.472099  -1.431308  2.746779
H    -5.119871  -2.589775  2.897699
H    -5.827543  -2.246193  1.294234
