35
Energy: -21190.3846412 eV PBE+vdW (tier 2 basis)
C    -1.331533  1.824539  0.175072
C    -0.426814  1.169647  1.191558
O    0.761948  1.462613  1.294372
H    -0.717604  2.098013  -0.689314
H    -1.756374  2.756313  0.586820
H    -2.165215  1.191296  -0.149881
N    -0.950509  0.183436  2.018608
C    -2.346616  -0.173996  2.291669
C    -3.026054  -0.983324  1.155382
O    -4.248451  -1.096225  1.099297
H    -0.262523  -0.116296  2.703691
H    -2.288423  -0.894861  3.125255
C    -3.235377  0.991210  2.754606
C    -2.729997  1.651785  4.037925
C    -3.452022  2.961439  4.386941
N    -3.192271  4.047395  3.439612
C    -3.923967  4.245602  2.277348
N    -5.299537  4.078679  2.428951
N    -3.293650  4.538739  1.186856
H    -4.250205  0.596296  2.892411
H    -3.307531  1.731975  1.948267
H    -2.836063  0.956311  4.888036
H    -1.651730  1.868680  3.954413
H    -3.138384  3.297064  5.386662
H    -4.535843  2.793254  4.434431
H    -2.205098  4.199667  3.242848
H    -5.847475  4.348577  1.620652
H    -5.695204  4.408837  3.304305
H    -3.937890  4.825897  0.445496
N    -2.165032  -1.590905  0.296478
C    -2.608322  -2.413356  -0.810153
H    -1.177884  -1.392477  0.421686
H    -2.175155  -3.421405  -0.752020
H    -2.333467  -1.966050  -1.776194
H    -3.699491  -2.489246  -0.751664
