35
Energy: -21190.4127288 eV PBE+vdW (tier 2 basis)
C    -0.639997  0.440010  0.075761
C    -0.407772  0.719603  1.548138
O    0.624095  1.254137  1.955286
H    -0.541495  1.380638  -0.479737
H    -1.619487  -0.003371  -0.141552
H    0.146486  -0.236012  -0.282517
N    -1.430687  0.355301  2.381429
C    -1.327451  0.461764  3.831195
C    -0.962146  -0.923150  4.399349
O    -1.761526  -1.859136  4.325242
H    -2.175505  -0.228602  2.015432
H    -0.530909  1.192434  4.012574
C    -2.635432  0.955085  4.462356
C    -3.007367  2.378608  4.048996
C    -4.379050  2.833172  4.569047
N    -4.547115  2.806012  6.016877
C    -3.955468  3.763872  6.818470
N    -4.120650  3.483938  8.187058
N    -3.316040  4.757404  6.301769
H    -2.513797  0.899143  5.555772
H    -3.436866  0.241077  4.209070
H    -3.024064  2.454178  2.950361
H    -2.245676  3.088253  4.402388
H    -5.173402  2.201734  4.141929
H    -4.561273  3.865170  4.244043
H    -4.643141  1.890323  6.441524
H    -3.841015  4.250015  8.790560
H    -5.040953  3.130522  8.438838
H    -3.047539  5.436102  7.017860
N    0.266895  -1.066932  4.965282
C    1.338067  -0.082208  5.070443
H    0.436287  -2.000492  5.327736
H    2.274282  -0.614454  5.271830
H    1.169765  0.630090  5.892743
H    1.458954  0.471241  4.130430
