35
Energy: -21190.3633063 eV PBE+vdW (tier 2 basis)
C    -0.760879  -0.824620  1.095617
C    -0.941438  0.398894  1.966601
O    0.017469  0.941589  2.519448
H    -1.663551  -1.433445  0.980775
H    0.044241  -1.429526  1.525425
H    -0.431752  -0.502348  0.097767
N    -2.215189  0.899104  2.154883
C    -3.372675  0.751546  1.260500
C    -4.091409  -0.613416  1.382213
O    -4.791837  -1.047020  0.471459
H    -2.178403  1.784658  2.663072
H    -4.108915  1.466620  1.660635
C    -3.110571  1.124686  -0.217621
C    -2.204709  2.347542  -0.398776
C    -2.742025  3.641108  0.232063
N    -1.728579  4.685949  0.375007
C    -1.186805  5.034974  1.605326
N    -0.982630  3.950134  2.475482
N    -0.961035  6.281122  1.850588
H    -4.088555  1.286444  -0.691516
H    -2.676611  0.263934  -0.743764
H    -2.036876  2.513105  -1.473238
H    -1.207600  2.147354  0.020368
H    -3.171586  3.436611  1.224016
H    -3.565133  4.036078  -0.381634
H    -1.873468  5.521755  -0.181824
H    -0.550505  4.233539  3.349555
H    -0.485033  3.143441  2.092445
H    -0.418113  6.397967  2.710138
N    -3.927471  -1.233788  2.582290
C    -4.563861  -2.493634  2.909884
H    -3.293204  -0.795928  3.242224
H    -5.209892  -2.393682  3.793065
H    -3.819247  -3.278679  3.103658
H    -5.177125  -2.789005  2.051803
