35
Energy: -21190.4358858 eV PBE+vdW (tier 2 basis)
C    -0.364922  -0.493947  -0.021482
C    -0.135971  -0.273064  1.459063
O    0.999785  -0.233495  1.945316
H    0.155402  0.295442  -0.577995
H    -1.423172  -0.495278  -0.309971
H    0.087430  -1.450372  -0.311523
N    -1.256861  -0.111445  2.218853
C    -1.208218  0.115519  3.664929
C    -1.105956  -1.242665  4.410612
O    -2.067296  -1.760722  4.974515
H    -2.164094  -0.275739  1.796512
H    -0.276886  0.674198  3.844468
C    -2.406427  0.931357  4.139191
C    -2.456364  2.340597  3.542478
C    -3.620692  3.186193  4.062233
N    -3.465836  3.464505  5.480818
C    -4.392116  4.146309  6.255734
N    -5.722956  3.996163  5.862438
N    -3.968691  4.770035  7.303431
H    -2.367085  0.985397  5.235162
H    -3.334732  0.381620  3.914288
H    -2.534688  2.292892  2.445965
H    -1.509508  2.869218  3.747999
H    -4.554148  2.620128  3.906024
H    -3.692478  4.112450  3.457915
H    -2.524931  3.709479  5.778059
H    -6.352816  4.683206  6.258315
H    -5.906980  3.814288  4.881885
H    -4.742283  5.156008  7.849522
N    0.142170  -1.780947  4.351845
C    0.448489  -3.096599  4.878107
H    0.814714  -1.310490  3.743256
H    0.560264  -3.840695  4.074744
H    -0.378481  -3.404304  5.526582
H    1.376760  -3.070011  5.463446
