35
Energy: -21190.5170289 eV PBE+vdW (tier 2 basis)
C    0.189823  0.110250  0.253267
C    -0.080421  0.730589  1.609154
O    0.652514  1.602970  2.082188
H    -0.537089  -0.659610  -0.033266
H    1.193518  -0.332456  0.264557
H    0.190581  0.903061  -0.505052
N    -1.175282  0.258433  2.272322
C    -1.577205  0.810659  3.565910
C    -2.344857  -0.287889  4.330268
O    -3.571713  -0.273900  4.441147
H    -1.806410  -0.376042  1.795889
H    -0.642889  1.011448  4.104357
C    -2.400239  2.103945  3.423087
C    -2.219878  3.109155  4.568791
C    -0.929282  3.946918  4.489696
N    0.323716  3.214820  4.678146
C    0.641084  2.601164  5.872021
N    0.263544  3.317042  7.011760
N    1.211389  1.436711  5.864423
H    -3.457422  1.816234  3.339471
H    -2.112612  2.585287  2.476645
H    -2.271252  2.600134  5.544297
H    -3.067464  3.812197  4.554203
H    -0.989857  4.767671  5.219470
H    -0.862589  4.424672  3.501250
H    0.610899  2.653902  3.870283
H    0.655196  2.959205  7.875156
H    0.331736  4.328366  6.941379
H    1.526680  1.177049  6.803463
N    -1.588875  -1.293280  4.853840
C    -0.146274  -1.483190  4.761866
H    -2.143968  -2.025080  5.286583
H    0.156139  -2.194378  5.538949
H    0.392850  -0.541686  4.943882
H    0.156572  -1.889444  3.784184
