35
Energy: -21189.9328305 eV PBE+vdW (tier 2 basis)
C    0.095620  0.334463  0.034086
C    0.165142  0.414052  1.543281
O    1.209865  0.739717  2.111880
H    1.049341  -0.080011  -0.310887
H    0.023002  1.352414  -0.375558
H    -0.725377  -0.285601  -0.335188
N    -0.942805  0.111064  2.306612
C    -2.365934  0.107883  1.986301
C    -2.829063  -1.193240  1.294734
O    -2.115348  -1.855832  0.549227
H    -0.738035  0.222857  3.296570
H    -2.857119  0.147224  2.968473
C    -2.838666  1.348415  1.183870
C    -2.996672  2.656701  1.976879
C    -1.847004  3.089780  2.900079
N    -1.944660  2.425307  4.197952
C    -0.885605  2.406557  5.118235
N    -1.347806  2.402144  6.444506
N    0.370567  2.293340  4.891193
H    -3.806052  1.118218  0.711995
H    -2.143213  1.501774  0.349345
H    -3.919734  2.610229  2.580942
H    -3.169076  3.462686  1.247943
H    -1.874929  4.188766  3.017860
H    -0.873139  2.851504  2.454568
H    -2.855616  2.532365  4.636835
H    -0.560091  2.393609  7.087411
H    -2.011510  3.138355  6.673883
H    0.612711  2.116257  3.910765
N    -4.127390  -1.562055  1.537648
C    -5.078821  -0.975637  2.467148
H    -4.394941  -2.413118  1.053647
H    -6.008642  -1.551893  2.416981
H    -5.324221  0.066433  2.214231
H    -4.723083  -1.008517  3.508274
