35
Energy: -21190.3582922 eV PBE+vdW (tier 2 basis)
C    -0.315037  0.693733  0.275832
C    -0.844572  0.731206  1.700692
O    -0.090798  0.963296  2.644045
H    0.551329  1.360297  0.229935
H    -1.035602  0.974537  -0.500959
H    0.045405  -0.323928  0.062224
N    -2.169436  0.456891  1.917691
C    -3.265175  0.259639  0.979790
C    -4.364043  1.273836  1.361784
O    -4.737559  1.348062  2.534123
H    -2.459050  0.563727  2.889873
H    -2.898647  0.435400  -0.034943
C    -3.872308  -1.159496  1.096330
C    -2.906118  -2.323593  0.832995
C    -2.756480  -2.795051  -0.621331
N    -2.182590  -1.837147  -1.552535
C    -2.924032  -0.977932  -2.339787
N    -2.135137  -0.004291  -2.966965
N    -4.201092  -0.946449  -2.528944
H    -4.745947  -1.219991  0.428825
H    -4.267182  -1.240979  2.119333
H    -3.247108  -3.198510  1.408079
H    -1.915302  -2.074405  1.246424
H    -3.731535  -3.107575  -1.022605
H    -2.126299  -3.697546  -0.636163
H    -1.241411  -1.526991  -1.337093
H    -2.665864  0.470938  -3.691530
H    -1.238222  -0.334436  -3.313718
H    -4.690713  -1.627700  -1.946297
N    -4.897958  2.049792  0.383022
C    -4.508270  2.139622  -1.020006
H    -5.602554  2.695399  0.726846
H    -3.479304  2.511408  -1.138957
H    -5.178636  2.853913  -1.509604
H    -4.604036  1.176793  -1.541455
