35
Energy: -21190.541099 eV PBE+vdW (tier 2 basis)
C    -0.022935  -0.335523  -0.360371
C    -0.118756  -0.201525  1.144340
O    0.838493  0.177231  1.829455
H    0.251612  0.639650  -0.781537
H    -0.950793  -0.679118  -0.833629
H    0.785629  -1.035782  -0.603793
N    -1.324318  -0.516731  1.696800
C    -1.593814  -0.405650  3.131079
C    -1.116750  -1.685181  3.872828
O    -1.901922  -2.531991  4.295699
H    -2.047081  -0.913952  1.106969
H    -0.983703  0.440002  3.484745
C    -3.071902  -0.129297  3.392759
C    -3.556035  1.206416  2.820751
C    -5.006292  1.545916  3.168279
N    -5.942525  0.608511  2.568932
C    -7.309131  0.886146  2.539931
N    -8.052225  -0.197496  2.060979
N    -7.915169  1.966334  2.891182
H    -3.226554  -0.151618  4.481384
H    -3.654904  -0.979244  3.002091
H    -3.442942  1.224058  1.726063
H    -2.919486  2.015697  3.211958
H    -5.238688  2.545563  2.773738
H    -5.123722  1.599418  4.268959
H    -5.740671  -0.370551  2.752650
H    -9.025300  0.062569  1.928778
H    -7.660174  -0.653432  1.241507
H    -7.284889  2.619777  3.360682
N    0.235670  -1.753093  3.987428
C    0.914638  -2.903327  4.551089
H    0.772978  -1.037568  3.492032
H    1.405428  -3.506581  3.772461
H    0.168685  -3.524961  5.057258
H    1.673171  -2.584719  5.277957
