35
Energy: -21190.2516288 eV PBE+vdW (tier 2 basis)
C    -1.620056  -2.616025  0.253115
C    -0.585290  -2.029904  1.197391
O    0.507041  -2.555185  1.379617
H    -2.580709  -2.798069  0.755537
H    -1.230547  -3.563607  -0.127167
H    -1.805973  -1.941621  -0.595299
N    -0.936694  -0.882057  1.875136
C    -2.095030  -0.047798  1.629707
C    -1.943518  0.783250  0.333297
O    -0.850871  1.179702  -0.061976
H    -0.149796  -0.456446  2.358602
H    -2.970341  -0.707435  1.520838
C    -2.367942  0.860228  2.852490
C    -1.351761  1.986913  3.115228
C    -1.713326  3.316502  2.425840
N    -0.790039  4.403580  2.680556
C    0.412238  4.528345  1.978691
N    1.211566  5.550329  2.514999
N    0.834676  3.857464  0.969834
H    -2.420403  0.191743  3.723514
H    -3.373066  1.298367  2.741718
H    -0.336746  1.692649  2.808681
H    -1.300356  2.167561  4.199572
H    -2.713912  3.634322  2.760607
H    -1.776276  3.186561  1.337378
H    -0.733714  4.708390  3.648235
H    2.018772  5.709629  1.918274
H    0.711645  6.414584  2.709894
H    0.256630  3.045502  0.736112
N    -3.119697  1.065637  -0.297586
C    -3.197598  1.915920  -1.472063
H    -3.974987  0.676530  0.081445
H    -2.175096  2.209008  -1.732789
H    -3.788454  2.820607  -1.271185
H    -3.642865  1.379860  -2.321032
