35
Energy: -21189.9750526 eV PBE+vdW (tier 2 basis)
C    -0.976813  0.549411  -0.262301
C    -0.800447  -0.289638  0.992086
O    0.072854  -1.144727  1.082337
H    -0.691208  -0.049121  -1.132856
H    -0.293422  1.407984  -0.199344
H    -1.997691  0.929687  -0.397079
N    -1.716385  -0.010549  1.983662
C    -1.621442  -0.377448  3.391277
C    -0.742221  0.659135  4.143057
O    0.021803  1.410136  3.546957
H    -2.276917  0.817238  1.813359
H    -2.647757  -0.271463  3.777567
C    -1.194507  -1.849416  3.646655
C    0.283512  -2.084537  3.966846
C    0.619488  -3.572614  3.979534
N    2.014739  -3.769790  4.366186
C    2.600211  -5.025255  4.458441
N    1.740466  -6.034270  4.906892
N    3.836951  -5.162534  4.118492
H    -1.474675  -2.425588  2.755272
H    -1.809231  -2.241653  4.471241
H    0.546160  -1.654036  4.945901
H    0.897496  -1.582316  3.207196
H    0.401758  -4.007191  2.985803
H    -0.034759  -4.088493  4.701028
H    2.662588  -3.133885  3.905515
H    2.221201  -6.877787  5.198588
H    1.029057  -5.747340  5.573272
H    4.186706  -6.096836  4.346391
N    -0.884431  0.727496  5.503671
C    -1.679917  -0.108107  6.385167
H    -0.237148  1.382726  5.931789
H    -1.836433  0.425623  7.329403
H    -1.198730  -1.072933  6.612178
H    -2.670025  -0.307305  5.955890
