35
Energy: -21190.3096521 eV PBE+vdW (tier 2 basis)
C    -2.002768  -0.659216  0.838006
C    -1.459625  -0.391638  2.228847
O    -0.551060  0.405869  2.437241
H    -2.875828  -1.323425  0.821562
H    -1.204277  -1.107090  0.232717
H    -2.271277  0.297052  0.374050
N    -2.064739  -1.104128  3.236590
C    -1.613926  -1.042596  4.622898
C    -1.379530  -2.482656  5.125903
O    -0.279373  -3.017903  5.050401
H    -2.797852  -1.760398  2.994276
H    -0.618628  -0.580215  4.583131
C    -2.533716  -0.185128  5.511054
C    -2.595951  1.277658  5.069258
C    -3.488355  2.156115  5.963944
N    -4.857753  1.697666  6.150252
C    -5.799852  1.705148  5.131968
N    -6.971457  1.018122  5.488274
N    -5.714548  2.235429  3.961285
H    -2.171741  -0.254340  6.550856
H    -3.559219  -0.595559  5.499868
H    -2.951314  1.321308  4.030507
H    -1.584044  1.709424  5.060265
H    -3.517838  3.179466  5.560062
H    -3.045278  2.237351  6.967455
H    -4.987205  0.965951  6.840272
H    -7.687424  1.166394  4.781769
H    -7.319266  1.241877  6.417966
H    -4.778471  2.600495  3.774970
N    -2.493133  -3.125471  5.598400
C    -2.454490  -4.489176  6.093620
H    -3.343401  -2.588916  5.722309
H    -3.268671  -5.083646  5.658891
H    -2.532398  -4.527085  7.190254
H    -1.492592  -4.920738  5.797883
