35
Energy: -21190.1835819 eV PBE+vdW (tier 2 basis)
C    -0.252163  0.389847  -0.241227
C    -0.346627  0.493399  1.270970
O    0.531315  1.014401  1.950436
H    0.559951  -0.304751  -0.492526
H    0.020798  1.371308  -0.645673
H    -1.174176  0.043218  -0.724570
N    -1.492295  -0.021303  1.822055
C    -1.714080  -0.173079  3.261247
C    -1.221797  1.054730  4.073803
O    -0.457072  0.932101  5.029626
H    -2.144015  -0.493398  1.206681
H    -2.810950  -0.202078  3.391753
C    -1.113696  -1.476894  3.804846
C    -1.697527  -1.908028  5.151072
C    -0.931550  -3.065193  5.808222
N    0.525403  -2.889052  5.888554
C    1.152559  -2.158182  6.909272
N    0.536976  -0.955546  7.210876
N    2.218505  -2.518318  7.546362
H    -0.026438  -1.351977  3.893064
H    -1.286207  -2.264799  3.054183
H    -2.744299  -2.233156  5.026600
H    -1.720430  -1.056467  5.841924
H    -1.087985  -3.978095  5.214429
H    -1.364596  -3.251641  6.806533
H    1.033123  -3.745564  5.698969
H    1.084394  -0.431857  7.886731
H    0.233126  -0.383872  6.419007
H    2.465391  -3.488617  7.330801
N    -1.766893  2.270556  3.779772
C    -2.622111  2.654802  2.673016
H    -1.350315  3.016964  4.328101
H    -3.134754  3.587353  2.937052
H    -3.392949  1.896951  2.488937
H    -2.062680  2.816399  1.738400
