35
Energy: -21190.4967787 eV PBE+vdW (tier 2 basis)
C    -3.645849  -3.240977  1.534537
C    -3.226824  -2.656972  2.868542
O    -3.803559  -2.972496  3.917321
H    -3.609077  -4.335076  1.601052
H    -3.030787  -2.910775  0.688824
H    -4.689891  -2.961162  1.344532
N    -2.187140  -1.778153  2.827537
C    -1.647278  -0.983117  3.941979
C    -0.839466  -1.779351  4.999549
O    0.269197  -1.369174  5.345690
H    -1.756051  -1.623702  1.925043
H    -0.890570  -0.332207  3.486066
C    -2.700346  -0.086855  4.625227
C    -3.358242  0.912485  3.670373
C    -4.448551  1.767040  4.317256
N    -3.906278  2.666393  5.321723
C    -4.699039  3.655669  5.897615
N    -4.038560  4.319585  6.936579
N    -5.903616  3.992973  5.590605
H    -2.164415  0.434662  5.433518
H    -3.468501  -0.713335  5.099794
H    -3.821373  0.363307  2.836885
H    -2.595005  1.575544  3.231649
H    -5.235527  1.107004  4.733705
H    -4.926281  2.382398  3.540538
H    -3.251474  2.242452  5.972555
H    -3.072846  4.566397  6.736888
H    -4.580912  5.116811  7.256428
H    -6.320833  3.339663  4.924273
N    -1.457697  -2.871383  5.510079
C    -0.853451  -3.698792  6.535348
H    -2.400437  -3.081036  5.163776
H    -0.793273  -4.746175  6.208571
H    -1.430188  -3.656945  7.470665
H    0.157137  -3.322700  6.726278
