35
Energy: -21189.8934919 eV PBE+vdW (tier 2 basis)
C    -0.241575  1.249306  0.659546
C    -0.245026  0.947015  2.144819
O    0.726961  1.239952  2.842029
H    -0.410354  0.356409  0.046043
H    -1.014439  1.982869  0.398544
H    0.739870  1.666713  0.420044
N    -1.337921  0.362972  2.748835
C    -2.623336  -0.223087  2.343148
C    -2.711966  -1.715028  2.752620
O    -3.656652  -2.098368  3.442980
H    -1.162118  0.279613  3.748404
H    -3.388808  0.238225  2.985521
C    -3.083548  -0.001011  0.894912
C    -4.527767  -0.457737  0.671573
C    -4.955627  -0.278868  -0.790664
N    -6.352717  -0.591401  -1.042453
C    -7.333028  0.348185  -0.772896
N    -8.633399  -0.113207  -1.009022
N    -7.007754  1.548298  -0.428505
H    -2.421873  -0.516841  0.183560
H    -3.017935  1.072481  0.667714
H    -5.204155  0.129767  1.308620
H    -4.648746  -1.511683  0.965955
H    -4.340840  -0.911611  -1.450193
H    -4.811815  0.765764  -1.096282
H    -6.618121  -1.563611  -0.932133
H    -9.347790  0.344441  -0.455051
H    -8.768237  -1.118022  -1.064311
H    -7.830005  2.153986  -0.385520
N    -1.753334  -2.596214  2.334725
C    -0.532823  -2.378990  1.572928
H    -1.910773  -3.528357  2.705106
H    -0.131888  -3.358260  1.289192
H    0.236316  -1.842448  2.145538
H    -0.725181  -1.827127  0.644746
