35
Energy: -21190.4554125 eV PBE+vdW (tier 2 basis)
C    -0.895995  0.397090  -0.432615
C    -1.471382  -0.780268  0.331359
O    -1.729661  -1.855306  -0.211863
H    -1.590307  0.666127  -1.238368
H    0.045219  0.086626  -0.902872
H    -0.711461  1.280024  0.191307
N    -1.684252  -0.567749  1.662515
C    -2.260432  -1.580694  2.525194
C    -2.993303  -0.834754  3.648911
O    -2.543102  0.212530  4.114805
H    -1.493039  0.327731  2.104211
H    -2.962868  -2.171005  1.915551
C    -1.171662  -2.528187  3.082584
C    -1.693283  -3.724520  3.877427
C    -0.578238  -4.676849  4.332555
N    0.356193  -4.067192  5.274315
C    1.729612  -3.957659  5.091841
N    2.138229  -3.924703  3.758120
N    2.622622  -3.891796  6.021626
H    -0.482454  -1.934027  3.701696
H    -0.611906  -2.889710  2.205674
H    -2.404051  -4.302257  3.262062
H    -2.249332  -3.383020  4.765104
H    -0.003131  -5.031713  3.467083
H    -1.031148  -5.570880  4.792039
H    0.087871  -4.110439  6.250272
H    3.132580  -3.725575  3.701828
H    1.588456  -3.333253  3.141341
H    2.217750  -4.080563  6.942920
N    -4.137199  -1.425304  4.088228
C    -4.925296  -0.901256  5.188451
H    -4.446478  -2.268108  3.619172
H    -4.982260  -1.622384  6.015794
H    -5.944227  -0.652272  4.862262
H    -4.432258  0.010009  5.542245
