35
Energy: -21190.6414039 eV PBE+vdW (tier 2 basis)
C    1.594218  -2.199803  1.442101
C    0.227337  -1.562874  1.566773
O    -0.016233  -0.444809  1.092534
H    2.347271  -1.506777  1.835813
H    1.813324  -2.349949  0.377196
H    1.682542  -3.161940  1.960927
N    -0.710024  -2.288882  2.233243
C    -2.126440  -1.934973  2.324155
C    -2.429592  -0.854299  3.407503
O    -3.325332  -0.976597  4.251780
H    -0.437634  -3.186903  2.615036
H    -2.376682  -1.440330  1.370473
C    -3.001311  -3.196061  2.450202
C    -2.509277  -4.341651  3.351071
C    -2.338640  -4.025664  4.850403
N    -3.536361  -3.560038  5.513867
C    -4.617084  -4.390128  5.756807
N    -5.788629  -3.687132  6.040166
N    -4.637211  -5.681921  5.819051
H    -3.143191  -3.604697  1.439721
H    -3.990042  -2.865795  2.795334
H    -1.562422  -4.766711  2.970251
H    -3.237033  -5.160649  3.253312
H    -1.570494  -3.252532  5.002832
H    -1.959984  -4.924446  5.361598
H    -3.734517  -2.575933  5.331450
H    -5.944785  -2.838801  5.504669
H    -6.595087  -4.301873  6.070460
H    -3.700272  -6.075928  5.709392
N    -1.667453  0.252825  3.298660
C    -1.837818  1.392675  4.181023
H    -1.034125  0.309723  2.492066
H    -2.751224  1.959028  3.944714
H    -0.971964  2.054436  4.074813
H    -1.911829  1.057414  5.222604
