35
Energy: -21190.192817 eV PBE+vdW (tier 2 basis)
C    0.148319  -1.292422  1.001319
C    0.237851  -0.076636  1.899304
O    1.300213  0.327205  2.367547
H    -0.052750  -0.992192  -0.036602
H    -0.661594  -1.973380  1.294231
H    1.107294  -1.815108  1.041330
N    -0.936139  0.586185  2.178704
C    -2.283678  0.300778  1.702948
C    -2.476969  0.444818  0.170526
O    -2.929503  -0.508944  -0.464879
H    -0.806516  1.391060  2.785792
H    -2.514529  -0.762273  1.867505
C    -3.283799  1.146829  2.511639
C    -4.700182  1.170534  1.940367
C    -5.604955  2.143024  2.710610
N    -6.812671  2.524808  1.995899
C    -6.737385  3.435230  0.958231
N    -7.968206  3.708351  0.355681
N    -5.616294  4.014445  0.674931
H    -2.917560  2.184819  2.562125
H    -3.283973  0.768897  3.546469
H    -5.134932  0.158958  1.932949
H    -4.668023  1.511860  0.896939
H    -5.053291  3.072833  2.904262
H    -5.903180  1.723617  3.682728
H    -7.538242  1.820238  1.928333
H    -7.918893  3.970110  -0.621542
H    -8.742196  3.085502  0.562398
H    -5.758585  4.758887  -0.011384
N    -2.125269  1.604616  -0.456815
C    -1.822651  2.911590  0.112736
H    -2.346614  1.576396  -1.448106
H    -2.723852  3.425596  0.482539
H    -1.370532  3.529569  -0.671261
H    -1.086915  2.823862  0.919446
