35
Energy: -21190.5963758 eV PBE+vdW (tier 2 basis)
C    -0.711836  0.921926  0.183202
C    -0.816513  0.417353  1.597670
O    -0.032742  -0.420937  2.068390
H    0.050876  1.717751  0.192333
H    -1.653990  1.338714  -0.195265
H    -0.376076  0.109375  -0.468630
N    -1.791980  0.978877  2.369384
C    -1.915714  0.681116  3.793760
C    -2.828130  -0.557874  4.004870
O    -3.978996  -0.473753  4.429260
H    -2.442309  1.632816  1.949350
H    -0.905820  0.386949  4.118995
C    -2.402026  1.881826  4.599208
C    -1.532447  3.143860  4.508068
C    -0.036069  2.954576  4.850711
N    0.853609  2.727875  3.711778
C    1.079961  3.693221  2.746163
N    1.106001  5.002976  3.234901
N    1.222102  3.340690  1.509947
H    -2.468888  1.556035  5.648123
H    -3.438073  2.114356  4.309714
H    -1.959992  3.888476  5.195851
H    -1.596604  3.596247  3.506998
H    0.099447  2.106644  5.537993
H    0.320807  3.834016  5.403421
H    0.821066  1.800961  3.293478
H    1.508858  5.123311  4.160111
H    1.461007  5.680542  2.569859
H    1.540334  4.126787  0.936910
N    -2.210425  -1.719823  3.659907
C    -2.895210  -2.997003  3.655268
H    -1.290180  -1.634286  3.222203
H    -3.843103  -2.875953  4.190242
H    -2.290560  -3.761796  4.160337
H    -3.110385  -3.338850  2.631489
