35
Energy: -21190.5392797 eV PBE+vdW (tier 2 basis)
C    0.053918  -0.018431  0.167710
C    -0.493620  -0.971751  1.212782
O    0.182972  -1.907521  1.648767
H    -0.344856  -0.259706  -0.828342
H    1.139672  -0.143951  0.137343
H    -0.192283  1.029625  0.380736
N    -1.764282  -0.747417  1.684222
C    -2.833792  -0.038691  0.989758
C    -3.457063  1.113817  1.808696
O    -4.404539  1.755524  1.358099
H    -2.063821  -1.469421  2.352151
H    -2.400914  0.448680  0.104596
C    -3.932444  -1.009146  0.515153
C    -3.441961  -2.052261  -0.514358
C    -3.498595  -3.520646  -0.055977
N    -2.635923  -3.860890  1.075320
C    -2.983045  -3.700452  2.410065
N    -4.345086  -3.823669  2.690532
N    -2.171726  -3.425604  3.379859
H    -4.736541  -0.394400  0.093827
H    -4.361075  -1.511153  1.395950
H    -2.408080  -1.828874  -0.823592
H    -4.042915  -1.976143  -1.433335
H    -3.217295  -4.168748  -0.899899
H    -4.532719  -3.783285  0.200428
H    -1.645133  -3.688811  0.919487
H    -4.491188  -3.879780  3.694223
H    -4.831881  -4.559305  2.187063
H    -1.218015  -3.267877  3.034256
N    -2.873783  1.349631  3.012203
C    -3.322118  2.392217  3.912480
H    -2.087015  0.760001  3.264255
H    -2.533313  3.138384  4.083080
H    -3.627713  1.972725  4.880871
H    -4.183028  2.884692  3.447396
