35
Energy: -21190.5365493 eV PBE+vdW (tier 2 basis)
C    0.376887  -0.445282  0.090018
C    0.197203  -0.660399  1.583835
O    1.095017  -1.155065  2.268706
H    0.743646  -1.376000  -0.358165
H    1.150897  0.318945  -0.059480
H    -0.535465  -0.130030  -0.430851
N    -1.022682  -0.273608  2.071731
C    -1.424536  -0.199677  3.486767
C    -0.906570  1.134852  4.091928
O    -1.620259  2.140369  4.001945
H    -1.615260  0.242735  1.432400
H    -2.513730  -0.054164  3.471834
C    -1.096211  -1.490760  4.239638
C    -1.527220  -1.512400  5.711458
C    -0.652313  -2.455575  6.555914
N    0.729894  -1.993866  6.731493
C    1.663841  -1.979399  5.699468
N    1.851272  -3.173553  5.023677
N    2.332149  -0.889191  5.485299
H    -0.020807  -1.658067  4.152970
H    -1.565798  -2.327018  3.698362
H    -2.582144  -1.814809  5.806815
H    -1.459253  -0.503267  6.147994
H    -0.644685  -3.464250  6.115420
H    -1.082568  -2.571745  7.560475
H    0.785580  -1.103023  7.221983
H    2.067436  -3.074691  4.036959
H    1.211702  -3.932360  5.229572
H    3.086419  -1.050025  4.812543
N    0.319125  1.141429  4.655654
C    0.881340  2.361069  5.206135
H    0.911371  0.302881  4.732610
H    1.113743  3.091740  4.417346
H    1.801476  2.095600  5.737060
H    0.176435  2.837960  5.900544
