35
Energy: -21190.4489928 eV PBE+vdW (tier 2 basis)
C    1.016851  -0.704791  0.565574
C    0.576102  -0.817547  2.011618
O    1.281919  -1.339025  2.874821
H    0.234713  -0.327463  -0.104248
H    1.349408  -1.690551  0.220118
H    1.880881  -0.029546  0.514131
N    -0.645056  -0.266374  2.293395
C    -1.259842  -0.396917  3.598118
C    -2.726901  -0.789598  3.378923
O    -3.323058  -0.453658  2.353672
H    -1.282985  -0.008085  1.543990
H    -0.700261  -1.180826  4.129525
C    -1.196037  0.912690  4.419501
C    0.230260  1.398162  4.676079
C    0.259484  2.671416  5.534506
N    1.574344  3.264291  5.705725
C    2.158432  4.046881  4.713692
N    3.487437  4.367442  5.012637
N    1.635982  4.480787  3.618751
H    -1.718259  0.756102  5.377811
H    -1.767294  1.684794  3.878718
H    0.732917  1.594519  3.718475
H    0.814914  0.606004  5.169040
H    -0.145701  2.459752  6.536314
H    -0.399488  3.439601  5.100621
H    2.237238  2.701760  6.231171
H    3.849466  5.043739  4.346461
H    3.647804  4.655643  5.974369
H    0.716924  4.068721  3.444368
N    -3.348922  -1.480660  4.374570
C    -2.771717  -1.995370  5.606102
H    -4.332813  -1.654175  4.194775
H    -2.567240  -1.201938  6.341006
H    -1.839692  -2.543639  5.416632
H    -3.483369  -2.695688  6.055619
