35
Energy: -21190.1769985 eV PBE+vdW (tier 2 basis)
C    -0.516949  0.948776  1.628842
C    -1.072726  0.266642  2.865748
O    -0.556287  0.392334  3.971881
H    0.363135  1.521702  1.931227
H    -1.248048  1.633950  1.176914
H    -0.223124  0.220379  0.860807
N    -2.206002  -0.498956  2.708714
C    -2.888799  -0.863446  1.470508
C    -4.402605  -0.888117  1.763650
O    -5.058948  -1.929555  1.819114
H    -2.490827  -0.972108  3.562924
H    -2.729527  -0.033184  0.766942
C    -2.349137  -2.141739  0.779239
C    -1.850168  -3.284627  1.676633
C    -2.908045  -4.298290  2.123207
N    -3.446708  -5.028853  0.977757
C    -4.733092  -5.573580  0.922108
N    -5.691810  -4.865805  1.624926
N    -5.070677  -6.638931  0.270708
H    -1.510509  -1.815547  0.147179
H    -3.120584  -2.525140  0.095703
H    -1.340969  -2.880920  2.565218
H    -1.067281  -3.828375  1.123749
H    -3.735837  -3.793207  2.629332
H    -2.455591  -4.987988  2.859946
H    -2.768477  -5.634067  0.524560
H    -6.625357  -5.198608  1.410966
H    -5.595949  -3.851332  1.635104
H    -4.246857  -7.127431  -0.091202
N    -4.998568  0.318947  1.976664
C    -4.402933  1.645640  1.961561
H    -5.985228  0.241957  2.202836
H    -3.693214  1.791950  2.787345
H    -5.205844  2.383228  2.060094
H    -3.886099  1.847766  1.012435
