35
Energy: -21190.1027875 eV PBE+vdW (tier 2 basis)
C    -1.759888  0.403457  -1.880431
C    -0.761705  0.185015  -0.762015
O    0.445150  0.120054  -0.986014
H    -2.030384  -0.572549  -2.308395
H    -2.685429  0.904284  -1.582961
H    -1.257975  0.982664  -2.661141
N    -1.217326  -0.006292  0.526101
C    -2.541384  0.123103  1.137402
C    -3.688213  -0.473297  0.289825
O    -4.682546  0.183939  -0.012681
H    -0.441689  -0.142076  1.169579
H    -2.500269  -0.524519  2.031166
C    -2.861275  1.537952  1.657142
C    -2.808475  2.675080  0.636879
C    -3.090316  4.026306  1.291087
N    -3.024733  5.094379  0.308867
C    -3.148323  6.426333  0.689878
N    -3.202685  7.288266  -0.411407
N    -3.217651  6.910679  1.881655
H    -2.145666  1.749879  2.468480
H    -3.859438  1.500582  2.117809
H    -3.554315  2.489776  -0.150107
H    -1.818642  2.718585  0.158460
H    -2.333724  4.227153  2.066552
H    -4.073307  3.995244  1.801266
H    -3.457837  4.877144  -0.584717
H    -3.161736  8.257362  -0.109027
H    -2.522397  7.086024  -1.139411
H    -3.312701  6.172490  2.582549
N    -3.576296  -1.786816  -0.067698
C    -2.522803  -2.742451  0.233933
H    -4.363304  -2.108176  -0.622814
H    -2.933110  -3.753404  0.131420
H    -2.169436  -2.633432  1.267083
H    -1.656185  -2.646314  -0.436084
