35
Energy: -21190.1327702 eV PBE+vdW (tier 2 basis)
C    1.173802  -0.206002  0.339549
C    0.724533  0.221288  1.727861
O    1.445626  0.880075  2.471091
H    0.404723  -0.731830  -0.240095
H    2.049594  -0.859207  0.442055
H    1.494980  0.683550  -0.215694
N    -0.543395  -0.166310  2.070399
C    -1.165078  0.019100  3.385243
C    -0.784708  1.351568  4.081172
O    -0.377582  1.372978  5.237714
H    -1.044829  -0.754654  1.415472
H    -2.247969  0.106024  3.185606
C    -0.979815  -1.197944  4.306543
C    0.466474  -1.575105  4.632713
C    0.584538  -2.837527  5.494780
N    0.202762  -4.073116  4.820161
C    -1.032321  -4.662531  4.984943
N    -1.195293  -5.783263  4.143942
N    -1.908118  -4.180874  5.800459
H    -1.490975  -2.050190  3.831945
H    -1.524618  -1.001021  5.239689
H    0.947946  -0.742390  5.161820
H    1.043737  -1.723204  3.704675
H    -0.054193  -2.761113  6.383459
H    1.625240  -2.941695  5.838130
H    0.659751  -4.261504  3.934613
H    -2.021063  -6.328653  4.368782
H    -0.372347  -6.379008  4.079361
H    -2.714298  -4.803761  5.883810
N    -1.070444  2.517033  3.419588
C    -1.495767  2.721723  2.049047
H    -0.745766  3.330457  3.933128
H    -1.952471  3.715698  1.969564
H    -2.257325  1.987586  1.759189
H    -0.664249  2.663218  1.328341
