35
Energy: -21190.2843406 eV PBE+vdW (tier 2 basis)
C    -0.252486  -0.326471  -0.497118
C    -0.138174  -0.360059  1.016238
O    0.954642  -0.460165  1.573078
H    -1.237946  -0.629730  -0.872862
H    0.518060  -0.973237  -0.928711
H    -0.057156  0.702849  -0.829083
N    -1.342480  -0.297010  1.672055
C    -1.576775  0.050431  3.072357
C    -1.506102  1.591670  3.235715
O    -0.922992  2.297700  2.418915
H    -2.134273  -0.115118  1.065992
H    -2.609321  -0.277292  3.280183
C    -0.637103  -0.651995  4.070114
C    -0.657159  -2.181939  3.979419
C    0.597510  -2.826693  4.589244
N    1.809296  -2.407497  3.904532
C    2.641415  -1.451987  4.464496
N    3.414927  -0.795675  3.499474
N    2.691887  -1.294966  5.747409
H    -0.915955  -0.342822  5.086504
H    0.377386  -0.278538  3.901510
H    -0.732234  -2.488581  2.924078
H    -1.553231  -2.586800  4.478024
H    0.502530  -3.923262  4.547122
H    0.725245  -2.548230  5.643752
H    1.727867  -2.338279  2.894276
H    3.943463  -0.014355  3.871031
H    2.900186  -0.541176  2.655525
H    3.338121  -0.542281  5.993253
N    -2.132464  2.137660  4.323143
C    -2.843266  1.485000  5.408818
H    -1.981845  3.139622  4.396207
H    -3.599442  2.173606  5.804560
H    -2.179626  1.188072  6.235893
H    -3.370094  0.591588  5.053663
