35
Energy: -21190.4214232 eV PBE+vdW (tier 2 basis)
C    -0.555448  -0.650576  -0.549794
C    -0.621311  0.034700  0.802669
O    0.053404  1.019878  1.076452
H    -0.937950  0.041048  -1.311585
H    -1.125710  -1.586487  -0.602992
H    0.494110  -0.853930  -0.792629
N    -1.486082  -0.539145  1.711385
C    -1.815232  0.104270  2.982114
C    -0.954541  -0.403355  4.156765
O    -1.013928  0.138203  5.265249
H    -2.122538  -1.254356  1.374713
H    -1.545343  1.166240  2.873649
C    -3.337743  -0.028179  3.217847
C    -3.984774  0.906994  4.254804
C    -4.067060  0.397630  5.704733
N    -4.818670  -0.834910  5.884326
C    -4.344034  -2.136552  5.884838
N    -2.963752  -2.278728  5.829497
N    -5.070674  -3.208010  5.902305
H    -3.583963  -1.075867  3.451636
H    -3.797594  0.191389  2.242623
H    -5.011835  1.116956  3.915938
H    -3.462704  1.876513  4.263396
H    -4.551143  1.175932  6.314656
H    -3.057713  0.284015  6.112255
H    -5.825290  -0.768642  5.797267
H    -2.674492  -3.208147  6.111500
H    -2.377249  -1.526040  6.176605
H    -6.068055  -2.981371  5.877172
N    -0.149899  -1.456099  3.884124
C    0.711515  -2.067331  4.873680
H    -0.162938  -1.808651  2.933769
H    0.701986  -1.431863  5.765843
H    1.740801  -2.144550  4.499792
H    0.356849  -3.071980  5.148399
