35
Energy: -21190.357867 eV PBE+vdW (tier 2 basis)
C    -0.049123  0.816726  3.475778
C    -0.564231  -0.607203  3.522798
O    -0.320870  -1.374451  4.449018
H    0.498791  1.012080  4.400736
H    -0.865316  1.544635  3.371790
H    0.625163  0.965247  2.620261
N    -1.346508  -1.020132  2.461834
C    -1.655280  -0.286771  1.239385
C    -2.680482  0.854970  1.434593
O    -2.658660  1.845547  0.707829
H    -1.582030  -2.008955  2.497660
H    -0.753250  0.211151  0.852259
C    -2.149862  -1.294465  0.183828
C    -2.513029  -0.693642  -1.173415
C    -2.883934  -1.782070  -2.189421
N    -3.378546  -1.239827  -3.442805
C    -4.715028  -0.895499  -3.616267
N    -4.985476  -0.478928  -4.924174
N    -5.668382  -0.935897  -2.751283
H    -3.024733  -1.827575  0.595181
H    -1.353915  -2.047799  0.057783
H    -1.674329  -0.101893  -1.568565
H    -3.351843  0.007494  -1.069215
H    -3.626833  -2.473187  -1.747260
H    -2.001075  -2.395054  -2.420265
H    -2.912172  -1.557914  -4.284286
H    -5.932843  -0.118646  -4.995171
H    -4.302714  0.168362  -5.309600
H    -5.371588  -1.377918  -1.878296
N    -3.595677  0.643052  2.417978
C    -4.648780  1.589138  2.731171
H    -3.452767  -0.165658  3.013933
H    -4.602496  2.394201  1.990088
H    -4.516018  2.019517  3.734042
H    -5.635740  1.110142  2.678663
