35
Energy: -21190.5784002 eV PBE+vdW (tier 2 basis)
C    0.664482  -0.867313  0.537673
C    0.263207  -0.048077  1.745512
O    1.036708  0.725917  2.314919
H    1.675243  -1.258356  0.697891
H    0.701306  -0.206437  -0.339473
H    -0.028008  -1.693881  0.332397
N    -1.042798  -0.205716  2.136142
C    -1.540185  0.463915  3.325401
C    -1.448537  -0.484269  4.534810
O    -2.050937  -1.568835  4.565893
H    -1.562586  -0.985206  1.739613
H    -0.833472  1.289592  3.467333
C    -2.936218  1.113899  3.171967
C    -4.230437  0.286259  3.271365
C    -4.536284  -0.695036  2.135187
N    -3.703255  -1.890824  2.212179
C    -3.132991  -2.518354  1.127572
N    -3.739928  -2.255391  -0.101382
N    -2.070333  -3.265454  1.146536
H    -2.917999  1.652418  2.211209
H    -2.994894  1.890087  3.951435
H    -5.060955  1.008155  3.301722
H    -4.267876  -0.250869  4.231363
H    -4.378967  -0.201339  1.162828
H    -5.607020  -0.962919  2.190885
H    -3.187027  -1.998648  3.093677
H    -3.376155  -2.873586  -0.820203
H    -4.754582  -2.217069  -0.093722
H    -1.673134  -3.306311  2.090035
N    -0.675519  -0.090941  5.576455
C    0.195055  1.077352  5.665646
H    -0.655502  -0.761679  6.339320
H    0.807347  1.182772  4.760234
H    0.865531  0.936935  6.520051
H    -0.374275  2.003699  5.832961
