35
Energy: -21190.225943 eV PBE+vdW (tier 2 basis)
C    -1.018794  -0.378370  -0.119861
C    -0.869306  0.441543  1.150988
O    -0.493136  1.608808  1.133843
H    -0.018205  -0.578135  -0.525810
H    -1.557865  0.219221  -0.863754
H    -1.536979  -1.335081  0.021101
N    -1.206223  -0.220927  2.309395
C    -1.003269  0.277545  3.676024
C    -1.584535  1.693415  3.924899
O    -1.084140  2.440836  4.759771
H    -1.438835  -1.203304  2.222010
H    -1.633253  -0.376516  4.301928
C    0.430831  0.125097  4.208325
C    1.520393  0.957866  3.528516
C    2.901724  0.709498  4.137129
N    3.367044  -0.640699  3.844924
C    4.363988  -1.326579  4.520621
N    4.802007  -0.720474  5.697375
N    4.846019  -2.482739  4.200213
H    0.694062  -0.942731  4.160061
H    0.398125  0.391349  5.274836
H    1.280121  2.024692  3.619637
H    1.561400  0.750481  2.448230
H    2.843050  0.821023  5.229742
H    3.604667  1.478588  3.762707
H    3.235350  -0.947609  2.887807
H    5.592932  -1.227479  6.082696
H    4.955756  0.282316  5.661155
H    4.350060  -2.881166  3.398058
N    -2.742713  1.969752  3.264145
C    -3.359660  3.281271  3.328111
H    -2.984889  1.363862  2.489151
H    -4.448492  3.188122  3.235308
H    -2.985527  3.947597  2.535429
H    -3.116197  3.728102  4.297406
