35
Energy: -21190.350957 eV PBE+vdW (tier 2 basis)
C    -0.116758  -0.456379  0.126318
C    -0.336140  -0.996611  1.530706
O    0.555592  -1.636939  2.101751
H    0.913479  -0.686153  -0.157258
H    -0.270251  0.628311  0.063076
H    -0.795567  -0.927955  -0.598076
N    -1.532741  -0.754270  2.146153
C    -2.766732  -0.283237  1.523542
C    -3.426730  0.791390  2.431870
O    -4.487458  0.580741  3.013990
H    -1.651134  -1.273765  3.034535
H    -2.501010  0.190018  0.567385
C    -3.778300  -1.423156  1.284083
C    -3.207699  -2.676586  0.598344
C    -3.560943  -3.989967  1.326738
N    -3.185829  -4.039086  2.742050
C    -1.904515  -3.732215  3.184797
N    -0.858761  -4.323774  2.502988
N    -1.778133  -2.945629  4.210238
H    -4.623139  -1.014322  0.713847
H    -4.194967  -1.674965  2.268533
H    -2.112121  -2.617272  0.537117
H    -3.564257  -2.750936  -0.439928
H    -3.108080  -4.839239  0.790144
H    -4.645215  -4.165489  1.291491
H    -3.860135  -3.612341  3.371524
H    -0.029884  -3.736446  2.422462
H    -1.079022  -4.858671  1.670836
H    -0.804871  -2.934381  4.529458
N    -2.778183  1.986551  2.568050
C    -1.515280  2.417682  1.997036
H    -3.241776  2.609829  3.221227
H    -1.507241  2.307388  0.903306
H    -0.656896  1.870903  2.412675
H    -1.385234  3.482993  2.215288
