35
Energy: -21190.0778062 eV PBE+vdW (tier 2 basis)
C    -1.111505  1.118892  -0.081138
C    -1.220289  0.320725  1.205942
O    -1.259975  -0.905237  1.223237
H    -0.139121  0.907344  -0.544290
H    -1.206222  2.203477  0.057350
H    -1.885997  0.775217  -0.776962
N    -1.272594  1.064261  2.356624
C    -1.297208  0.453854  3.675486
C    -2.590371  -0.285313  4.092863
O    -2.489974  -1.211249  4.894709
H    -1.230297  2.073623  2.286318
H    -0.552967  -0.356151  3.683868
C    -0.931711  1.480237  4.759205
C    0.506024  1.997294  4.669703
C    0.873018  2.905768  5.853775
N    2.232854  3.425541  5.840471
C    3.361777  2.612112  5.898397
N    3.280320  1.547341  6.790990
N    4.398173  2.957109  5.212035
H    -1.085312  0.984092  5.728679
H    -1.646501  2.322068  4.729118
H    0.674143  2.553488  3.733992
H    1.198251  1.141213  4.638796
H    0.689454  2.374580  6.802839
H    0.198765  3.774685  5.884592
H    2.401067  4.170131  5.169027
H    2.365811  1.258597  7.118485
H    3.907723  0.775284  6.606207
H    5.209657  2.377732  5.441795
N    -3.815021  0.113025  3.636535
C    -4.206439  1.202744  2.758312
H    -4.555179  -0.486623  3.987817
H    -5.287681  1.349204  2.864360
H    -3.991853  0.995648  1.699922
H    -3.722862  2.147467  3.037387
