35
Energy: -21190.3868866 eV PBE+vdW (tier 2 basis)
C    -0.691053  -0.723587  0.862516
C    -0.568451  -0.354891  2.330412
O    0.219551  0.499967  2.730276
H    0.263146  -1.150290  0.527952
H    -0.862003  0.190758  0.281913
H    -1.494004  -1.440143  0.649412
N    -1.400793  -1.033068  3.178091
C    -1.328007  -0.886872  4.632716
C    -2.106157  -2.035518  5.304415
O    -1.539425  -2.816102  6.066112
H    -1.979272  -1.777831  2.807657
H    -0.287885  -1.047786  4.944686
C    -1.760248  0.516469  5.147957
C    -2.859692  1.209086  4.331779
C    -3.810538  2.085684  5.163223
N    -4.537729  1.392864  6.221956
C    -5.431953  0.370685  5.959877
N    -5.773408  -0.366026  7.094346
N    -5.935542  0.024740  4.818075
H    -0.869568  1.155493  5.167834
H    -2.079951  0.380474  6.192867
H    -3.451902  0.469514  3.774371
H    -2.399828  1.840181  3.557670
H    -4.540264  2.573828  4.498660
H    -3.251817  2.898134  5.648281
H    -4.043293  1.307857  7.103179
H    -6.579878  -0.957492  6.918292
H    -5.869526  0.169881  7.951734
H    -5.573745  0.605457  4.059371
N    -3.430190  -2.148511  4.991899
C    -4.262032  -3.152806  5.637135
H    -3.928232  -1.366356  4.572239
H    -5.270645  -3.077045  5.218449
H    -4.310193  -2.997935  6.724530
H    -3.859471  -4.155813  5.451118
