35
Energy: -21190.1686956 eV PBE+vdW (tier 2 basis)
C    0.041878  0.022280  0.024177
C    0.138238  -0.399970  1.475313
O    1.212139  -0.680939  2.003421
H    1.029437  0.372246  -0.288422
H    -0.709435  0.796708  -0.167361
H    -0.228298  -0.847185  -0.592249
N    -1.026242  -0.507074  2.204759
C    -2.411679  -0.206823  1.842071
C    -2.866566  -0.865635  0.516265
O    -3.312327  -0.204087  -0.422808
H    -0.853666  -0.828318  3.152357
H    -3.002713  -0.714467  2.616789
C    -2.741233  1.299312  1.865093
C    -3.000973  1.889693  3.257364
C    -4.396526  1.633769  3.860474
N    -4.687415  0.264267  4.267645
C    -5.188708  -0.760093  3.480763
N    -5.819741  -0.377176  2.308188
N    -5.161164  -2.021631  3.783422
H    -3.598741  1.481551  1.201201
H    -1.905669  1.838425  1.398078
H    -2.881353  2.982944  3.198045
H    -2.228749  1.549684  3.968389
H    -5.181012  1.963056  3.163379
H    -4.513886  2.269037  4.751401
H    -4.178397  -0.066131  5.079221
H    -5.445749  0.407116  1.786711
H    -6.042095  -1.177048  1.725631
H    -4.780350  -2.170541  4.721950
N    -2.771568  -2.222747  0.447376
C    -2.496401  -3.167713  1.524548
H    -3.110033  -2.594528  -0.434368
H    -1.446342  -3.130261  1.842909
H    -2.702820  -4.175603  1.149859
H    -3.156044  -2.992561  2.388342
