35
Energy: -21190.2493545 eV PBE+vdW (tier 2 basis)
C    -1.519895  -0.649919  0.133979
C    -0.659935  -0.915905  1.360587
O    0.108104  -1.872945  1.412219
H    -1.233222  0.292405  -0.355526
H    -2.589643  -0.590406  0.373310
H    -1.355725  -1.470801  -0.568764
N    -0.772771  -0.048223  2.417886
C    -1.531543  1.183813  2.505594
C    -0.586384  2.284410  3.025108
O    0.323576  2.010299  3.804695
H    -0.080134  -0.176028  3.155537
H    -1.903330  1.439082  1.504830
C    -2.724876  1.074029  3.485549
C    -3.777784  0.048477  3.066027
C    -4.862551  -0.174728  4.122512
N    -4.305389  -0.766160  5.325762
C    -5.038915  -0.834237  6.506931
N    -4.368374  -1.552056  7.500883
N    -6.201614  -0.337388  6.754004
H    -3.195961  2.064466  3.594325
H    -2.324113  0.815234  4.476559
H    -3.288826  -0.913771  2.843201
H    -4.269399  0.367946  2.133587
H    -5.672770  -0.793682  3.692079
H    -5.313126  0.791421  4.399346
H    -3.698158  -1.566310  5.167587
H    -4.858817  -1.486689  8.387960
H    -3.378458  -1.338976  7.589500
H    -6.645871  0.026382  5.908401
N    -0.837191  3.565143  2.629556
C    -1.829926  4.028083  1.673338
H    -0.206704  4.247900  3.038108
H    -1.746562  5.116513  1.590889
H    -2.856590  3.798816  1.993864
H    -1.670987  3.605562  0.670107
