35
Energy: -21190.492889 eV PBE+vdW (tier 2 basis)
C    -0.208293  0.895269  -0.042273
C    -0.301294  0.346666  1.364795
O    0.672209  0.429394  2.136989
H    0.325791  0.158108  -0.659416
H    0.376880  1.820439  -0.031165
H    -1.184288  1.086169  -0.504722
N    -1.490085  -0.220048  1.684946
C    -1.923980  -1.137597  2.763703
C    -1.612153  -0.824998  4.245251
O    -2.344967  -1.347775  5.089161
H    -2.163520  -0.190689  0.927296
H    -3.017507  -1.036758  2.744138
C    -1.643223  -2.632517  2.441214
C    -0.314439  -3.262669  2.881285
C    0.984315  -2.711770  2.291260
N    0.922272  -2.621821  0.832598
C    1.998106  -2.174653  0.067924
N    2.780170  -1.201518  0.679436
N    2.170393  -2.700355  -1.101302
H    -1.788522  -2.764824  1.358660
H    -2.444285  -3.199362  2.934911
H    -0.384991  -4.337366  2.644564
H    -0.231863  -3.210078  3.977331
H    1.820312  -3.353777  2.625436
H    1.174249  -1.711824  2.696913
H    0.523588  -3.439287  0.374794
H    3.439679  -0.750429  0.056621
H    2.293212  -0.546937  1.294376
H    2.916608  -2.224399  -1.614941
N    -0.565849  -0.028801  4.539679
C    -0.210602  0.263594  5.915664
H    0.051580  0.256749  3.766509
H    0.438270  1.145974  5.935404
H    0.317152  -0.577157  6.392126
H    -1.115963  0.462708  6.501161
