35
Energy: -21190.2637605 eV PBE+vdW (tier 2 basis)
C    -0.913378  1.921771  1.291266
C    -0.695607  1.249134  2.630541
O    0.201802  1.603576  3.403936
H    -0.602854  1.251162  0.477817
H    -0.291467  2.819973  1.259754
H    -1.964278  2.200520  1.133339
N    -1.512397  0.208665  2.959112
C    -2.505693  -0.441225  2.130845
C    -3.920002  0.076516  2.472778
O    -4.236517  0.354882  3.625115
H    -1.417357  -0.113476  3.918188
H    -2.256126  -0.226620  1.084916
C    -2.480821  -1.971155  2.348163
C    -1.370912  -2.767439  1.645025
C    0.086928  -2.341128  1.867313
N    0.476027  -1.291897  0.917348
C    1.768959  -0.748344  0.939535
N    2.229591  -0.398084  2.202855
N    2.391510  -0.647513  -0.187601
H    -3.449071  -2.383249  2.023943
H    -2.445279  -2.145786  3.435685
H    -1.565425  -2.785314  0.558982
H    -1.471849  -3.812738  1.973521
H    0.739017  -3.227452  1.758046
H    0.232580  -1.972769  2.890504
H    0.296168  -1.571697  -0.046619
H    3.116263  0.094124  2.181395
H    1.558658  0.081009  2.808832
H    3.256513  -0.109019  -0.085563
N    -4.807137  0.166736  1.435855
C    -4.573303  -0.125630  0.030360
H    -5.736114  0.462583  1.718657
H    -4.304142  -1.178665  -0.141379
H    -3.787784  0.512118  -0.401283
H    -5.497960  0.072567  -0.521495
