35
Energy: -21190.5452788 eV PBE+vdW (tier 2 basis)
C    -0.181002  -1.297375  0.042698
C    -0.096803  -1.080212  1.542500
O    0.816685  -1.547787  2.223045
H    -0.184900  -2.375988  -0.156749
H    0.720358  -0.881802  -0.425094
H    -1.065243  -0.841465  -0.419100
N    -1.093455  -0.316664  2.078699
C    -1.225805  -0.116142  3.506137
C    -2.717284  0.149684  3.775048
O    -3.522993  0.316931  2.855378
H    -1.929530  -0.083535  1.544972
H    -0.936025  -1.053739  4.010881
C    -0.281747  0.991450  4.043643
C    -0.444692  2.391786  3.444224
C    -1.694736  3.161773  3.902842
N    -1.680035  4.573235  3.540348
C    -0.939215  5.475030  4.283050
N    -0.893109  6.745278  3.684031
N    -0.361716  5.114235  5.378905
H    0.737553  0.630934  3.849394
H    -0.375505  1.046741  5.141054
H    -0.431646  2.323825  2.344349
H    0.432600  2.984838  3.737631
H    -1.769874  3.121423  4.997650
H    -2.610358  2.726583  3.481242
H    -1.722051  4.773000  2.546192
H    -0.511130  7.464427  4.288940
H    -1.765475  7.044339  3.254514
H    0.043674  5.917883  5.863725
N    -3.067107  0.192851  5.086384
C    -4.396848  0.564290  5.532768
H    -2.331832  0.105300  5.777924
H    -4.716558  -0.082765  6.358729
H    -5.083382  0.439648  4.689513
H    -4.434394  1.613444  5.863674
