35
Energy: -21189.8230806 eV PBE+vdW (tier 2 basis)
C    -0.097574  -1.193879  0.224198
C    -0.013376  -0.306444  1.452110
O    1.064441  0.049559  1.919300
H    0.920353  -1.360577  -0.136936
H    -0.688949  -0.734305  -0.578678
H    -0.550874  -2.163774  0.470594
N    -1.188590  0.097882  2.043707
C    -2.573384  -0.241119  1.719297
C    -2.798736  -1.779036  1.847833
O    -2.491892  -2.302228  2.915848
H    -1.025599  0.570445  2.926852
H    -3.144504  0.106324  2.592572
C    -3.113303  0.540443  0.504532
C    -2.934257  2.060243  0.619201
C    -3.710566  2.706569  1.765935
N    -3.564584  4.150707  1.724563
C    -4.258248  4.961527  2.620703
N    -3.870305  6.301138  2.527797
N    -5.159628  4.615492  3.472692
H    -4.183494  0.309497  0.388401
H    -2.621510  0.214903  -0.420425
H    -3.262652  2.523033  -0.323181
H    -1.861732  2.287634  0.726167
H    -3.380774  2.296746  2.741062
H    -4.781369  2.465423  1.666989
H    -2.623058  4.475632  1.519798
H    -4.472800  6.891715  3.093647
H    -3.768687  6.650970  1.578895
H    -5.246418  3.599299  3.542013
N    -3.369927  -2.542175  0.862590
C    -3.669880  -2.299175  -0.541646
H    -3.470608  -3.501203  1.182925
H    -4.511337  -1.608344  -0.682926
H    -3.951847  -3.258358  -0.988614
H    -2.802199  -1.920347  -1.097183
