35
Energy: -21190.3959675 eV PBE+vdW (tier 2 basis)
C    0.065840  -0.494163  0.143362
C    0.098720  -0.555046  1.659901
O    1.059145  -1.008479  2.275625
H    0.553122  -1.387426  -0.260868
H    0.646845  0.381778  -0.177293
H    -0.946867  -0.410945  -0.271367
N    -1.020151  -0.059824  2.282224
C    -1.066564  0.257487  3.711982
C    0.205587  1.056697  4.118635
O    0.561785  2.002705  3.414448
H    -1.666619  0.449668  1.692735
H    -1.858842  1.017119  3.803962
C    -1.501191  -0.918486  4.602002
C    -0.622355  -2.174280  4.582287
C    -0.852337  -3.060091  5.823316
N    0.356331  -3.686774  6.343698
C    1.296922  -2.915667  6.988558
N    2.394099  -3.628800  7.469810
N    1.092535  -1.649032  7.182997
H    -2.535444  -1.180489  4.327040
H    -1.556859  -0.536521  5.634581
H    0.433813  -1.885632  4.547602
H    -0.797791  -2.747511  3.661130
H    -1.577602  -3.860698  5.622825
H    -1.258018  -2.450492  6.642103
H    0.705101  -4.490182  5.833169
H    3.269716  -3.119869  7.485288
H    2.493780  -4.593957  7.174081
H    1.799158  -1.268554  7.816754
N    0.795401  0.743831  5.297284
C    1.964032  1.479912  5.740395
H    0.605907  -0.134251  5.792247
H    2.102179  1.312616  6.814688
H    1.820150  2.550017  5.552582
H    2.875293  1.165522  5.206974
