35
Energy: -21190.3134633 eV PBE+vdW (tier 2 basis)
C    0.626473  -0.735342  1.225548
C    0.068937  -1.438676  2.452192
O    0.788987  -2.072825  3.218515
H    1.690746  -0.975554  1.163719
H    0.513916  0.355619  1.306931
H    0.139718  -1.060476  0.296115
N    -1.286556  -1.366741  2.673125
C    -2.279552  -0.566337  1.979163
C    -2.895743  0.426427  2.984346
O    -3.248676  0.053610  4.100529
H    -1.581702  -1.741638  3.573775
H    -1.770538  -0.021853  1.172403
C    -3.416120  -1.410613  1.362318
C    -2.967514  -2.428333  0.302291
C    -2.571337  -3.808359  0.859396
N    -2.190437  -4.764800  -0.167106
C    -0.932899  -4.723166  -0.766519
N    -0.886980  -5.465866  -1.954240
N    0.124940  -4.105561  -0.371807
H    -4.138252  -0.709636  0.916184
H    -3.953752  -1.916077  2.180526
H    -2.131943  -2.023757  -0.290016
H    -3.793843  -2.580077  -0.409924
H    -3.416903  -4.233670  1.421169
H    -1.745622  -3.722786  1.577151
H    -2.937656  -5.004161  -0.813297
H    0.075021  -5.570782  -2.265213
H    -1.362716  -6.363524  -1.906164
H    -0.045262  -3.548133  0.467172
N    -3.040631  1.703095  2.529473
C    -3.645897  2.757754  3.323055
H    -2.694804  1.924752  1.603817
H    -2.935876  3.576571  3.502327
H    -3.933157  2.319893  4.284677
H    -4.541303  3.161898  2.831073
