35
Energy: -21190.3684615 eV PBE+vdW (tier 2 basis)
C    -0.455909  -1.634484  1.511619
C    0.173934  -1.026606  2.756144
O    1.126743  -1.554233  3.325642
H    0.059335  -2.575476  1.302689
H    -0.349461  -0.970899  0.641358
H    -1.528327  -1.833826  1.646624
N    -0.358861  0.151643  3.209589
C    -1.542176  0.842954  2.715832
C    -1.267520  2.348271  2.897890
O    -1.056267  2.799386  4.025258
H    0.056157  0.522273  4.062484
H    -1.656173  0.600705  1.653761
C    -2.820459  0.448081  3.485062
C    -4.121367  0.910833  2.818468
C    -4.522075  0.028531  1.626826
N    -5.750942  0.433511  0.961703
C    -5.740824  1.407045  -0.016869
N    -7.032219  1.769339  -0.421865
N    -4.630337  1.906944  -0.449226
H    -2.736291  0.866719  4.497626
H    -2.824038  -0.648158  3.595644
H    -4.037454  1.956094  2.483836
H    -4.932633  0.889507  3.562888
H    -4.646714  -1.012149  1.964976
H    -3.739374  0.031279  0.857647
H    -6.591249  0.407927  1.530127
H    -7.056078  2.358397  -1.246909
H    -7.696194  1.001856  -0.485438
H    -4.793320  2.518384  -1.252163
N    -1.253526  3.133378  1.789672
C    -1.411796  2.735694  0.394228
H    -1.031585  4.103905  1.989784
H    -1.306603  3.634908  -0.222670
H    -2.406453  2.310967  0.190894
H    -0.628740  2.029045  0.080608
