35
Energy: -21189.9218429 eV PBE+vdW (tier 2 basis)
C    0.538746  -0.367994  1.073961
C    0.354493  -0.628656  2.556402
O    1.292821  -1.066007  3.237261
H    0.372289  0.688224  0.822101
H    -0.152757  -0.973011  0.472999
H    1.566768  -0.630957  0.812198
N    -0.858693  -0.383385  3.125796
C    -2.059201  0.235405  2.570725
C    -2.621855  -0.622436  1.394435
O    -2.935284  -1.782906  1.643178
H    -0.937312  -0.701678  4.102628
H    -2.828256  0.039681  3.334522
C    -1.972713  1.767666  2.421242
C    -2.076817  2.607714  3.709434
C    -0.909253  2.600241  4.718375
N    -1.025144  1.592204  5.769024
C    -0.232077  0.460977  5.868290
N    1.128381  0.628869  5.687550
N    -0.818397  -0.669175  6.129392
H    -2.811554  2.089917  1.787737
H    -1.055568  2.052264  1.884342
H    -3.006388  2.345794  4.243324
H    -2.215426  3.651307  3.386692
H    -0.852495  3.598703  5.181555
H    0.041078  2.445094  4.187821
H    -1.978011  1.369149  6.044740
H    1.546288  -0.087750  5.088629
H    1.450263  1.567179  5.475839
H    -0.124069  -1.388534  6.349220
N    -2.828568  -0.129689  0.129023
C    -2.422008  1.089715  -0.552700
H    -3.264693  -0.841448  -0.450456
H    -3.109363  1.930081  -0.373452
H    -2.415422  0.886970  -1.629819
H    -1.409469  1.400810  -0.275645
