35
Energy: -21190.02999 eV PBE+vdW (tier 2 basis)
C    -1.125288  -1.094356  1.250917
C    -0.889257  0.145065  2.088154
O    0.058220  0.222042  2.868210
H    -0.151669  -1.551915  1.052267
H    -1.649227  -0.922596  0.306612
H    -1.719193  -1.807803  1.840309
N    -1.794559  1.185964  2.029244
C    -2.885116  1.490816  1.101494
C    -3.802425  0.288169  0.782939
O    -4.056366  -0.044331  -0.373024
H    -1.514442  1.943732  2.647013
H    -3.537084  2.188566  1.656769
C    -2.432634  2.243094  -0.166276
C    -1.367087  1.559133  -1.021129
C    -0.872445  2.462549  -2.160653
N    0.182213  1.886537  -2.985456
C    1.421552  1.511090  -2.475536
N    1.981529  2.400875  -1.559644
N    1.984794  0.450624  -2.947412
H    -2.052990  3.224213  0.166581
H    -3.328860  2.441409  -0.772582
H    -0.501860  1.283634  -0.399181
H    -1.767564  0.630558  -1.449582
H    -0.535138  3.432876  -1.756342
H    -1.705172  2.711494  -2.834369
H    -0.132015  1.174466  -3.639712
H    2.651057  1.991422  -0.919980
H    1.366737  3.073761  -1.115830
H    2.946137  0.357314  -2.609212
N    -4.368568  -0.360404  1.843604
C    -4.254174  -0.086938  3.266930
H    -4.954902  -1.137800  1.556200
H    -5.117976  -0.531028  3.774631
H    -4.271684  0.991504  3.468670
H    -3.336682  -0.502421  3.708210
