35
Energy: -21190.4188953 eV PBE+vdW (tier 2 basis)
C    -0.355861  -0.329633  0.102613
C    -0.325226  0.008467  1.578126
O    0.639729  0.582524  2.096649
H    -0.234199  0.597295  -0.471609
H    -1.279035  -0.828072  -0.217657
H    0.500597  -0.973717  -0.132466
N    -1.427989  -0.352245  2.293607
C    -1.578178  -0.083879  3.724902
C    -0.885174  -1.186967  4.578311
O    -1.513757  -1.971042  5.287559
H    -2.120779  -0.939023  1.844819
H    -1.023364  0.849460  3.904393
C    -3.040994  0.125467  4.129476
C    -4.050045  -0.957136  3.694943
C    -4.821062  -0.654594  2.394030
N    -5.712457  0.491994  2.442382
C    -6.952015  0.440855  3.072128
N    -7.554653  1.702592  3.147352
N    -7.563877  -0.580577  3.562559
H    -3.361320  1.110753  3.755422
H    -3.049240  0.202194  5.223744
H    -4.785088  -1.091631  4.500063
H    -3.547372  -1.931808  3.604985
H    -5.421478  -1.532274  2.111999
H    -4.133693  -0.479360  1.551392
H    -5.262460  1.400891  2.478438
H    -8.507288  1.619693  3.491275
H    -7.508086  2.246025  2.289077
H    -6.973316  -1.414546  3.574126
N    0.468182  -1.170803  4.456094
C    1.325480  -2.141950  5.106011
H    0.866969  -0.492181  3.802562
H    1.805777  -2.808660  4.374529
H    0.706707  -2.743957  5.779765
H    2.109188  -1.640517  5.689823
