35
Energy: -21190.3107369 eV PBE+vdW (tier 2 basis)
C    0.018795  -0.140847  0.336445
C    -0.121837  -0.210488  1.845482
O    0.847047  -0.461106  2.569516
H    1.076953  -0.001671  0.099142
H    -0.570448  0.669459  -0.112945
H    -0.314486  -1.084098  -0.119131
N    -1.358697  0.022319  2.375932
C    -2.640058  0.029342  1.676992
C    -3.698474  0.645792  2.626858
O    -4.675575  0.006402  3.018732
H    -1.420081  -0.054901  3.399153
H    -2.564178  0.717022  0.817028
C    -3.105485  -1.344419  1.126357
C    -2.567610  -2.615757  1.802439
C    -2.926443  -2.849728  3.296143
N    -1.799050  -2.747552  4.206989
C    -1.470489  -1.640925  4.955701
N    -0.136443  -1.649771  5.373493
N    -2.239224  -0.646786  5.284163
H    -2.823754  -1.394745  0.064363
H    -4.203482  -1.348135  1.160160
H    -1.472383  -2.661153  1.705410
H    -2.951084  -3.462757  1.214336
H    -3.364186  -3.851376  3.411452
H    -3.702262  -2.141999  3.613445
H    -1.074667  -3.453028  4.133846
H    0.040992  -0.828284  5.946758
H    0.517697  -1.670228  4.587337
H    -3.217719  -0.829739  5.043274
N    -3.516151  1.944608  2.993239
C    -2.405193  2.835606  2.701836
H    -4.191576  2.251793  3.686936
H    -2.757044  3.870736  2.784550
H    -2.044263  2.688461  1.677493
H    -1.559212  2.691394  3.389641
