35
Energy: -21190.4201158 eV PBE+vdW (tier 2 basis)
C    -0.447200  -0.648738  -0.183860
C    -0.654320  -0.975856  1.281861
O    -0.767412  -2.134635  1.682906
H    -0.307299  0.420781  -0.382605
H    -1.316258  -1.006971  -0.750052
H    0.429356  -1.198949  -0.546774
N    -0.685559  0.103803  2.124436
C    -0.990864  -0.036218  3.541344
C    -2.471019  0.345062  3.759046
O    -2.840813  1.507279  3.580577
H    -0.761289  1.034331  1.726618
H    -0.807274  -1.091519  3.773320
C    -0.091195  0.853185  4.404939
C    -0.301036  0.619754  5.902229
C    0.547131  1.567872  6.763210
N    0.390566  1.404936  8.197147
C    -0.715636  1.899538  8.881173
N    -0.736534  1.477971  10.217457
N    -1.662546  2.654371  8.443921
H    -0.302689  1.906271  4.160059
H    0.954932  0.652589  4.127152
H    -0.046808  -0.422300  6.158252
H    -1.362362  0.754742  6.161017
H    0.310906  2.613536  6.513005
H    1.613692  1.432924  6.526636
H    0.768317  0.544599  8.582250
H    -1.474931  1.956803  10.725710
H    0.158327  1.550445  10.695339
H    -1.619546  2.784205  7.430832
N    -3.331042  -0.640334  4.128709
C    -3.046250  -2.052678  4.353602
H    -4.282805  -0.314209  4.269210
H    -2.564854  -2.229599  5.327804
H    -2.412389  -2.459582  3.555565
H    -3.995285  -2.599618  4.342464
