35
Energy: -21190.5236959 eV PBE+vdW (tier 2 basis)
C    0.248436  0.355719  0.454115
C    -0.062218  0.109666  1.919439
O    0.821502  -0.117753  2.747676
H    0.912310  1.225733  0.375733
H    -0.642076  0.528016  -0.162774
H    0.795538  -0.509825  0.060491
N    -1.383689  0.156505  2.251715
C    -1.852590  -0.059117  3.610609
C    -3.244083  -0.695258  3.486644
O    -4.062166  -0.217144  2.692387
H    -2.103304  0.350130  1.561172
H    -1.123779  -0.721135  4.093339
C    -1.935936  1.280555  4.381445
C    -2.206576  1.181646  5.886272
C    -1.010377  0.648251  6.690354
N    -1.152665  0.775661  8.134377
C    -1.893144  -0.124254  8.871048
N    -2.017442  0.262578  10.214288
N    -2.412048  -1.173305  8.323528
H    -2.718329  1.885362  3.900173
H    -0.979308  1.799110  4.214335
H    -3.093735  0.565691  6.094793
H    -2.444839  2.192778  6.253800
H    -0.098068  1.189379  6.397318
H    -0.833501  -0.413308  6.480226
H    -1.153726  1.724044  8.494915
H    -2.416824  -0.453891  10.810680
H    -1.178191  0.666469  10.622762
H    -2.817591  -1.791896  9.029157
N    -3.542132  -1.766533  4.262744
C    -2.687871  -2.502726  5.190527
H    -4.498318  -2.087732  4.142541
H    -1.685797  -2.647539  4.767745
H    -3.125212  -3.497744  5.333972
H    -2.604977  -2.016348  6.175181
