35
Energy: -21190.4031492 eV PBE+vdW (tier 2 basis)
C    -2.992746  1.246258  -0.356116
C    -1.970683  0.312395  0.257144
O    -0.998467  -0.109329  -0.361519
H    -2.626572  1.543422  -1.342183
H    -3.157347  2.143174  0.256922
H    -3.959283  0.730988  -0.473622
N    -2.168232  -0.058312  1.573872
C    -3.293293  0.244140  2.445318
C    -3.007898  1.329981  3.511261
O    -3.876796  1.643885  4.323026
H    -1.512963  -0.772599  1.885265
H    -4.090353  0.677824  1.824554
C    -3.835291  -1.033215  3.110650
C    -4.613054  -1.928240  2.139061
C    -6.049495  -1.435192  1.904119
N    -6.753145  -2.124138  0.821743
C    -6.461472  -1.889372  -0.522322
N    -6.181661  -0.548900  -0.819811
N    -6.443830  -2.754250  -1.476159
H    -4.470117  -0.728266  3.954588
H    -2.986300  -1.584799  3.545923
H    -4.649485  -2.956736  2.529785
H    -4.087442  -1.984647  1.172637
H    -6.051156  -0.359402  1.686392
H    -6.642800  -1.556100  2.822468
H    -6.908758  -3.111873  1.002534
H    -6.139017  -0.428332  -1.828775
H    -6.818589  0.117574  -0.388867
H    -6.516884  -3.710148  -1.116520
N    -1.773602  1.892776  3.452138
C    -1.348263  2.951311  4.345823
H    -1.154066  1.563409  2.718922
H    -1.138786  3.878725  3.794466
H    -0.447072  2.659840  4.902360
H    -2.163169  3.135113  5.054376
