35
Energy: -21190.2659127 eV PBE+vdW (tier 2 basis)
C    -1.371415  -1.253999  0.318893
C    -1.103778  -0.226388  1.407066
O    -0.244513  0.642551  1.268741
H    -0.445002  -1.811093  0.131763
H    -1.625806  -0.723102  -0.606603
H    -2.172131  -1.965688  0.554785
N    -1.882086  -0.368468  2.524733
C    -1.884382  0.411773  3.771145
C    -3.055801  1.431502  3.795070
O    -3.988182  1.224153  4.592035
H    -2.596309  -1.085758  2.480812
H    -2.209207  -0.304720  4.539383
C    -0.501460  0.938168  4.205466
C    -0.345034  1.133561  5.722846
C    -1.328235  2.093233  6.405884
N    -1.420744  3.357923  5.687625
C    -2.444334  4.283492  5.860883
N    -3.674790  3.745698  6.220074
N    -2.156416  5.532840  5.682589
H    -0.248804  1.863600  3.680598
H    0.245125  0.200828  3.881406
H    -0.417334  0.161745  6.237013
H    0.684111  1.486927  5.897526
H    -1.014492  2.236535  7.457087
H    -2.323722  1.637494  6.443257
H    -0.541379  3.856336  5.572088
H    -4.436517  4.412709  6.183935
H    -3.924105  2.834751  5.823213
H    -2.996731  6.115111  5.721714
N    -3.106295  2.482946  2.943589
C    -2.051081  3.121838  2.168324
H    -3.934098  3.049102  3.114139
H    -1.560385  3.911232  2.758639
H    -2.496356  3.575132  1.274126
H    -1.304380  2.392473  1.839506
