35
Energy: -21190.3473637 eV PBE+vdW (tier 2 basis)
C    1.327945  -0.862660  1.150983
C    0.876172  -0.604380  2.573778
O    1.638431  -0.731312  3.533138
H    2.249125  -0.298407  0.963320
H    0.582331  -0.603575  0.389449
H    1.574923  -1.930167  1.064251
N    -0.431757  -0.220023  2.717515
C    -1.148212  -0.067633  3.991781
C    -0.405467  0.826411  5.022014
O    -0.532763  0.637255  6.226693
H    -0.997501  -0.206438  1.876942
H    -2.043822  0.521281  3.731393
C    -1.662778  -1.370613  4.628090
C    -0.629844  -2.431361  5.048910
C    -0.368624  -3.500257  3.976186
N    0.564457  -4.532025  4.396976
C    1.846577  -4.739872  3.914655
N    2.386256  -3.676137  3.194271
N    2.545459  -5.819309  4.056561
H    -2.393472  -1.817437  3.932613
H    -2.231632  -1.053401  5.511302
H    -1.003114  -2.942264  5.948956
H    0.315286  -1.956974  5.339091
H    0.021860  -3.054425  3.053182
H    -1.326500  -3.975513  3.700285
H    0.185736  -5.307964  4.924289
H    3.362959  -3.865303  2.989999
H    2.243228  -2.736916  3.569605
H    1.990388  -6.568380  4.479840
N    0.260479  1.889938  4.491907
C    1.072106  2.765354  5.317099
H    0.437577  1.873629  3.494580
H    1.068685  3.780425  4.901915
H    2.111130  2.408998  5.391543
H    0.641717  2.784433  6.323443
