35
Energy: -21190.5087127 eV PBE+vdW (tier 2 basis)
C    0.544087  -1.312472  0.674973
C    0.013133  -1.006652  2.059129
O    0.545780  -1.460886  3.078996
H    0.532029  -2.398795  0.522265
H    1.590440  -0.987132  0.621108
H    -0.021195  -0.830081  -0.131621
N    -1.081736  -0.196982  2.114637
C    -1.693752  0.218576  3.376510
C    -2.708215  -0.852997  3.862529
O    -3.925090  -0.699486  3.781660
H    -1.539016  0.073773  1.251062
H    -0.871158  0.244448  4.106154
C    -2.347370  1.594221  3.248296
C    -1.404186  2.721644  2.813523
C    -0.244687  2.981173  3.786899
N    0.601049  4.120231  3.432889
C    0.116732  5.423382  3.388060
N    -0.786435  5.732487  4.410169
N    0.509628  6.201930  2.438108
H    -2.797034  1.836646  4.222725
H    -3.198642  1.518964  2.555140
H    -1.989452  3.647354  2.715413
H    -0.986290  2.517240  1.814697
H    0.419369  2.107232  3.846659
H    -0.643068  3.123387  4.803414
H    1.195721  3.963484  2.622714
H    -0.984812  6.722866  4.495914
H    -0.598321  5.298193  5.309670
H    0.207004  7.167208  2.593995
N    -2.097704  -1.957991  4.369583
C    -2.834517  -3.134632  4.786565
H    -1.081014  -2.003544  4.273472
H    -2.490270  -3.476763  5.771391
H    -2.721311  -3.960703  4.068256
H    -3.894696  -2.867323  4.848050
