35
Energy: -21190.0698706 eV PBE+vdW (tier 2 basis)
C    -0.529909  0.253472  0.776405
C    -0.380706  0.009182  2.263656
O    0.521367  0.525468  2.919880
H    0.016307  1.168849  0.533200
H    -1.569075  0.335843  0.439323
H    -0.075068  -0.577894  0.218691
N    -1.260330  -0.853408  2.882264
C    -2.444369  -1.543666  2.366528
C    -2.166850  -2.324928  1.058270
O    -2.826973  -2.137336  0.039395
H    -1.064793  -0.943509  3.874752
H    -2.675473  -2.308837  3.128056
C    -3.682420  -0.647996  2.223449
C    -4.111352  -0.008223  3.543387
C    -5.329621  0.897126  3.377249
N    -5.708907  1.482801  4.661973
C    -6.749810  2.398817  4.782290
N    -6.818014  3.331906  3.744880
N    -7.544836  2.301750  5.792882
H    -4.495334  -1.259096  1.806552
H    -3.483263  0.129359  1.471479
H    -3.289113  0.584454  3.971895
H    -4.346167  -0.798762  4.278421
H    -6.164417  0.329523  2.922442
H    -5.081365  1.701500  2.670062
H    -5.796729  0.799669  5.411910
H    -7.436369  4.112434  3.934627
H    -5.926534  3.630941  3.359317
H    -8.177236  3.104362  5.852142
N    -1.162862  -3.251685  1.090752
C    -0.308343  -3.650098  2.197929
H    -1.028667  -3.714958  0.197515
H    -0.880952  -3.750178  3.129569
H    0.116800  -4.633902  1.969402
H    0.515570  -2.943829  2.373389
