35
Energy: -21190.1631282 eV PBE+vdW (tier 2 basis)
C    -1.716531  1.465817  0.276163
C    -1.575598  0.155086  1.033703
O    -1.116618  -0.850425  0.502838
H    -1.919973  1.247857  -0.776888
H    -0.758232  2.000724  0.336065
H    -2.502630  2.120927  0.673597
N    -2.027494  0.212797  2.333177
C    -1.726489  -0.724175  3.409396
C    -0.356027  -0.358193  4.047969
O    0.428212  0.402679  3.486892
H    -2.230751  1.151689  2.658135
H    -2.494183  -0.525841  4.174940
C    -1.856610  -2.222578  3.023814
C    -0.557350  -2.956591  2.691396
C    -0.792232  -4.464533  2.552393
N    0.430548  -5.258290  2.557836
C    1.089924  -5.503240  3.746050
N    2.323958  -6.141089  3.548625
N    0.586752  -5.138041  4.880523
H    -2.558334  -2.289140  2.181841
H    -2.338033  -2.739292  3.867716
H    0.174304  -2.811965  3.497685
H    -0.126826  -2.541849  1.771104
H    -1.336523  -4.691987  1.623953
H    -1.401167  -4.825950  3.392410
H    1.037852  -5.135256  1.753736
H    2.750393  -6.483656  4.402525
H    2.329444  -6.844966  2.814695
H    1.136356  -5.512919  5.657244
N    -0.080639  -0.873652  5.283894
C    -0.806913  -1.874784  6.054086
H    0.857030  -0.638858  5.596457
H    -0.532763  -1.764255  7.110122
H    -0.576195  -2.905376  5.737800
H    -1.889168  -1.709705  5.983359
