35
Energy: -21190.6540278 eV PBE+vdW (tier 2 basis)
C    -0.598333  0.468658  3.557183
C    -1.995007  0.092576  4.017907
O    -2.195028  -0.461269  5.100224
H    -0.481814  1.560963  3.506667
H    -0.368176  0.064948  2.561484
H    0.115668  0.069171  4.281983
N    -3.041217  0.379450  3.176336
C    -3.015389  1.272292  2.031733
C    -3.191535  2.777127  2.365640
O    -2.899556  3.625501  1.521322
H    -3.956374  0.248478  3.627656
H    -2.015399  1.234455  1.581140
C    -4.004810  0.817017  0.926012
C    -5.391561  0.361927  1.398106
C    -6.291671  1.464040  1.989094
N    -7.251613  0.938164  2.957618
C    -6.872321  0.656796  4.247866
N    -7.930483  0.242253  5.057165
N    -5.640636  0.810437  4.628396
H    -3.540667  -0.028542  0.398470
H    -4.081006  1.637542  0.197367
H    -5.274793  -0.432397  2.148121
H    -5.911909  -0.110402  0.551803
H    -6.866968  1.952931  1.192742
H    -5.689062  2.245887  2.468547
H    -8.225305  1.179107  2.824099
H    -7.649390  -0.126426  5.958793
H    -8.628963  -0.340152  4.604169
H    -5.484679  0.446068  5.570204
N    -3.648433  3.064154  3.613445
C    -3.932319  4.423597  4.026729
H    -4.066040  2.301379  4.151951
H    -3.424894  5.104547  3.335334
H    -3.567620  4.598313  5.047093
H    -5.012459  4.639123  3.999192
