35
Energy: -21190.4155722 eV PBE+vdW (tier 2 basis)
C    0.249710  2.300198  1.791892
C    -0.716357  1.336355  2.452612
O    -1.651650  1.710972  3.151208
H    0.875920  1.839406  1.017795
H    0.903438  2.722883  2.566819
H    -0.318607  3.128816  1.355139
N    -0.488422  -0.000201  2.198484
C    -1.160865  -1.057216  2.962403
C    -2.703767  -0.889314  2.883854
O    -3.443309  -1.067899  3.851743
H    0.381004  -0.247558  1.738973
H    -0.933755  -1.996548  2.430445
C    -0.651309  -1.168340  4.407132
C    -0.991816  -2.504668  5.093512
C    -1.336532  -2.342957  6.582620
N    -2.508656  -1.502313  6.777115
C    -2.385396  -0.174931  7.190496
N    -3.361712  0.648149  6.637884
N    -1.536680  0.313200  8.034433
H    -1.058630  -0.326221  4.979651
H    0.439444  -1.029883  4.387385
H    -0.155677  -3.214149  4.990485
H    -1.855055  -2.974326  4.598409
H    -0.493253  -1.888888  7.123289
H    -1.500191  -3.336108  7.030716
H    -3.197911  -1.616472  6.035767
H    -3.206288  1.621951  6.876963
H    -3.543097  0.498323  5.646616
H    -0.988027  -0.429888  8.474464
N    -3.177328  -0.632748  1.636437
C    -4.580242  -0.342627  1.400442
H    -2.499448  -0.334807  0.943634
H    -4.827784  0.702618  1.641723
H    -5.189049  -0.993400  2.036550
H    -4.821292  -0.537021  0.349287
