35
Energy: -21190.0148525 eV PBE+vdW (tier 2 basis)
C    0.757555  -0.242636  0.074733
C    0.423680  -0.327100  1.554100
O    1.259129  -0.645728  2.394006
H    1.182695  -1.201246  -0.245786
H    1.533352  0.521279  -0.064345
H    -0.099269  0.004173  -0.564759
N    -0.866159  0.024230  1.878537
C    -1.429560  -0.174943  3.219877
C    -2.956996  0.010419  3.245352
O    -3.624697  -0.708104  3.984040
H    -1.531175  0.033169  1.113054
H    -1.310122  -1.235838  3.490050
C    -0.745085  0.606873  4.368746
C    -0.692373  2.138729  4.319738
C    0.327810  2.728096  3.328809
N    0.552466  4.156693  3.479116
C    1.353413  4.670197  4.495959
N    1.256707  6.065491  4.586238
N    2.123518  4.038154  5.311055
H    0.274459  0.210845  4.461755
H    -1.284540  0.298829  5.276178
H    -0.415275  2.487772  5.325931
H    -1.688824  2.567824  4.128733
H    0.018925  2.550583  2.289579
H    1.293721  2.213374  3.437822
H    -0.242501  4.745617  3.248475
H    1.949296  6.424211  5.237860
H    1.298032  6.547313  3.691475
H    2.017707  3.024362  5.233382
N    -3.585580  0.917574  2.419823
C    -3.099098  2.138192  1.790029
H    -4.592744  0.870273  2.560276
H    -3.533210  2.241774  0.785847
H    -2.011778  2.114833  1.691308
H    -3.369259  3.030259  2.376115
