35
Energy: -21190.5825798 eV PBE+vdW (tier 2 basis)
C    0.548172  0.783539  1.145051
C    0.011723  0.821095  2.558839
O    0.729715  0.929716  3.548762
H    1.639762  0.797295  1.196196
H    0.204447  1.662504  0.579488
H    0.210014  -0.099247  0.580660
N    -1.364963  0.772040  2.707696
C    -2.357321  0.462393  1.688258
C    -2.964844  1.692829  0.981562
O    -3.720518  1.550397  0.013300
H    -1.656620  0.735368  3.682040
H    -1.854725  -0.082436  0.875375
C    -3.476531  -0.414184  2.282114
C    -3.097548  -1.882439  2.547520
C    -3.328491  -2.866805  1.382650
N    -2.445179  -2.757557  0.225628
C    -2.481041  -1.712505  -0.688406
N    -3.734598  -1.303121  -1.122389
N    -1.352818  -1.218447  -1.091736
H    -4.345041  -0.361067  1.612242
H    -3.797914  0.055482  3.227100
H    -3.701849  -2.251947  3.391191
H    -2.049150  -1.948641  2.881598
H    -4.374510  -2.791311  1.047535
H    -3.220200  -3.891700  1.765936
H    -1.478376  -3.018196  0.404891
H    -3.855131  -0.288216  -1.109969
H    -4.526883  -1.782934  -0.708195
H    -1.507182  -0.581476  -1.878269
N    -2.598958  2.895703  1.482073
C    -3.028341  4.158263  0.915052
H    -1.943462  2.878874  2.257761
H    -2.172227  4.735735  0.539290
H    -3.563649  4.763370  1.659355
H    -3.703228  3.937541  0.081245
