35
Energy: -21190.5444796 eV PBE+vdW (tier 2 basis)
C    -1.384905  0.273937  -0.051961
C    -1.175294  -0.238315  1.364696
O    -0.626456  -1.315476  1.597624
H    -0.428814  0.231188  -0.587490
H    -1.779962  1.296856  -0.087747
H    -2.078499  -0.399276  -0.573494
N    -1.649559  0.586688  2.342115
C    -1.512504  0.257942  3.747019
C    -2.506118  -0.780531  4.322027
O    -2.146483  -1.488036  5.261602
H    -2.102912  1.477926  2.081642
H    -0.545133  -0.249482  3.877776
C    -1.545070  1.513223  4.639017
C    -0.357738  2.472290  4.464987
C    -0.402188  3.437552  3.269928
N    -1.510093  4.383966  3.302066
C    -2.664362  4.241731  2.579047
N    -3.568951  5.285717  2.791387
N    -2.870731  3.209266  1.818901
H    -1.549522  1.151316  5.676093
H    -2.495456  2.053079  4.498628
H    0.574819  1.890124  4.391536
H    -0.261094  3.074614  5.383719
H    -0.468539  2.897535  2.320049
H    0.534991  4.014893  3.247764
H    -1.559886  5.006245  4.100634
H    -4.376429  5.273077  2.178905
H    -3.161652  6.213132  2.872862
H    -3.714291  3.326733  1.255596
N    -3.777273  -0.878144  3.826835
C    -4.470358  -0.106418  2.807820
H    -4.299150  -1.620052  4.282737
H    -4.215092  -0.425452  1.786274
H    -4.261778  0.966460  2.895639
H    -5.548708  -0.247172  2.952453
