35
Energy: -21190.2226121 eV PBE+vdW (tier 2 basis)
C    -2.126895  -0.115799  -0.280943
C    -1.765212  0.220448  1.154030
O    -1.391256  1.339199  1.494873
H    -2.880202  0.599285  -0.632303
H    -2.508621  -1.135446  -0.416446
H    -1.233903  0.014652  -0.905264
N    -1.887631  -0.812305  2.048679
C    -1.469226  -0.674333  3.443960
C    -1.006604  -2.051669  3.956266
O    0.179932  -2.329269  4.088127
H    -2.133470  -1.733329  1.706045
H    -0.571905  -0.040944  3.451992
C    -2.548709  0.003535  4.306890
C    -2.106411  0.223771  5.753707
C    -3.165013  0.949174  6.579796
N    -2.702660  1.128634  7.954330
C    -3.490273  1.734123  8.927861
N    -4.234866  2.823194  8.467588
N    -3.485459  1.245243  10.121156
H    -3.486471  -0.578612  4.272845
H    -2.776316  0.968522  3.831063
H    -1.876066  -0.744754  6.229575
H    -1.172249  0.805648  5.773278
H    -4.122012  0.392316  6.539502
H    -3.358437  1.932218  6.125503
H    -2.271779  0.298050  8.355378
H    -4.639463  3.385901  9.207411
H    -3.792231  3.390531  7.749819
H    -3.987491  1.849715  10.776997
N    -2.017487  -2.943645  4.201188
C    -1.769073  -4.279487  4.713448
H    -2.970175  -2.597188  4.198691
H    -1.984526  -4.350757  5.789961
H    -0.708892  -4.503539  4.556952
H    -2.380539  -5.017412  4.178766
