35
Energy: -21190.3237204 eV PBE+vdW (tier 2 basis)
C    -0.140619  0.511159  0.197685
C    -0.061057  0.282143  1.692430
O    0.991927  0.393343  2.314928
H    0.861640  0.372161  -0.217628
H    -0.456026  1.545885  0.002134
H    -0.849492  -0.152812  -0.311375
N    -1.217701  -0.078560  2.362119
C    -2.606515  -0.079563  1.886179
C    -2.925211  -1.268822  0.940781
O    -3.887485  -1.239987  0.176728
H    -1.076374  -0.093311  3.368210
H    -3.204404  -0.288306  2.789508
C    -3.087252  1.268637  1.312874
C    -4.579595  1.538268  1.517517
C    -5.038615  2.880347  0.932408
N    -4.436738  4.057957  1.543151
C    -3.339507  4.696143  1.000207
N    -2.886690  5.746110  1.819339
N    -2.814970  4.305902  -0.112476
H    -2.861397  1.331556  0.241415
H    -2.501744  2.059619  1.802117
H    -4.820855  1.506199  2.595992
H    -5.165007  0.739817  1.040107
H    -6.132125  2.961788  1.029641
H    -4.793756  2.928714  -0.136011
H    -4.540130  4.151771  2.547652
H    -2.176237  6.322038  1.380525
H    -3.624665  6.313802  2.229499
H    -2.095667  4.960298  -0.427466
N    -2.096454  -2.339874  1.073586
C    -2.251412  -3.553374  0.297773
H    -1.299234  -2.228797  1.691139
H    -2.348701  -4.430508  0.952178
H    -1.397749  -3.709419  -0.377386
H    -3.162630  -3.450821  -0.301372
