35
Energy: -21190.1923632 eV PBE+vdW (tier 2 basis)
C    -1.103469  -0.930570  0.767425
C    -0.804454  -0.513223  2.193604
O    0.056607  -1.073878  2.863501
H    -1.535619  -0.145232  0.138988
H    -1.814686  -1.768487  0.789065
H    -0.172980  -1.292791  0.320202
N    -1.584039  0.477976  2.767672
C    -2.453384  1.460780  2.113314
C    -3.659533  0.800262  1.392735
O    -4.128085  1.262702  0.355107
H    -1.251904  0.715858  3.698922
H    -2.904486  2.027928  2.945027
C    -1.712268  2.472588  1.217611
C    -2.437122  3.813866  1.083393
C    -1.685779  4.789027  0.178650
N    -2.411404  6.044144  0.068902
C    -1.898935  7.228532  -0.440946
N    -0.524800  7.213841  -0.684631
N    -2.552606  8.327011  -0.624037
H    -1.556879  2.038920  0.219257
H    -0.716726  2.632184  1.658754
H    -2.561467  4.277081  2.075703
H    -3.443029  3.636174  0.674878
H    -1.523907  4.309537  -0.808574
H    -0.693984  5.001592  0.605410
H    -3.419588  5.965466  0.002234
H    -0.239756  8.078092  -1.135705
H    -0.158260  6.390202  -1.152235
H    -3.513446  8.250505  -0.279345
N    -4.168364  -0.283121  2.038069
C    -5.297536  -1.039866  1.534657
H    -3.646570  -0.630057  2.836070
H    -6.064958  -1.158655  2.310938
H    -4.991390  -2.036585  1.184208
H    -5.722021  -0.485784  0.690955
