35
Energy: -21190.2625965 eV PBE+vdW (tier 2 basis)
C    0.328813  0.549535  0.520247
C    -0.420286  -0.456629  1.369517
O    -0.110608  -1.643865  1.425701
H    0.844736  1.293576  1.143781
H    -0.344323  1.102997  -0.148758
H    1.069184  0.008455  -0.073933
N    -1.492311  0.014625  2.095611
C    -1.905861  1.394854  2.281320
C    -0.913711  2.298154  3.046846
O    -0.746384  3.461380  2.662198
H    -1.947414  -0.703967  2.652209
H    -1.971093  1.881599  1.298024
C    -3.303759  1.424511  2.935596
C    -3.874771  2.823177  3.192221
C    -4.186955  3.621672  1.911793
N    -4.646958  4.975741  2.146055
C    -3.820381  6.076303  2.379256
N    -2.490018  5.907567  2.037160
N    -4.226192  7.234137  2.790661
H    -3.262003  0.872364  3.888315
H    -3.980234  0.855150  2.277645
H    -3.188103  3.407447  3.822545
H    -4.803164  2.715314  3.774041
H    -4.957889  3.089796  1.330546
H    -3.304800  3.678804  1.260530
H    -5.564306  5.068264  2.566164
H    -1.944254  6.722507  2.294737
H    -2.017170  5.025716  2.233359
H    -5.245075  7.257931  2.886567
N    -0.247653  1.829462  4.135996
C    -0.302163  0.533070  4.800792
H    0.373524  2.528693  4.532241
H    -1.334794  0.217231  4.994993
H    0.193143  0.634440  5.772488
H    0.208824  -0.255610  4.232728
