35
Energy: -21190.4671841 eV PBE+vdW (tier 2 basis)
C    1.309801  0.696887  0.455452
C    0.779083  0.367825  1.837235
O    1.520003  0.074014  2.776780
H    1.892527  -0.157440  0.089389
H    1.995024  1.549878  0.535372
H    0.524400  0.936472  -0.271286
N    -0.577683  0.428628  1.972426
C    -1.239028  0.071435  3.208956
C    -2.640384  -0.419952  2.832837
O    -3.152111  -0.110336  1.751467
H    -1.193397  0.570203  1.174484
H    -0.656533  -0.742012  3.669014
C    -1.254378  1.246868  4.227940
C    -1.892540  2.548101  3.727099
C    -3.425114  2.614592  3.849822
N    -4.013524  3.814823  3.279630
C    -4.189736  3.942609  1.899635
N    -4.506761  5.261571  1.538677
N    -4.097025  3.044242  0.986049
H    -0.200309  1.426884  4.478299
H    -1.737100  0.915719  5.161210
H    -1.604372  2.721015  2.679698
H    -1.466965  3.387913  4.298328
H    -3.715350  2.565868  4.911190
H    -3.901152  1.754909  3.361160
H    -3.728750  4.680497  3.730234
H    -4.784073  5.298049  0.561554
H    -5.196850  5.705000  2.140258
H    -3.759183  2.141955  1.331234
N    -3.316000  -1.184417  3.733175
C    -2.884140  -1.663506  5.034773
H    -4.257452  -1.415889  3.429434
H    -3.352358  -2.634810  5.233284
H    -3.157214  -0.973806  5.848256
H    -1.798481  -1.808610  5.055020
