35
Energy: -21190.3581941 eV PBE+vdW (tier 2 basis)
C    -2.355960  1.674653  0.396046
C    -1.382203  1.576680  1.556420
O    -0.197170  1.882219  1.443701
H    -2.605299  0.665708  0.032765
H    -1.857279  2.214112  -0.413413
H    -3.298636  2.178872  0.648544
N    -1.870175  1.108932  2.753681
C    -3.224317  0.664468  3.069670
C    -3.557010  1.174993  4.490835
O    -3.547340  0.426707  5.469454
H    -1.154667  0.990850  3.467423
H    -3.906839  1.158956  2.366858
C    -3.372163  -0.863163  2.980333
C    -4.810323  -1.394580  3.093187
C    -5.600605  -1.434773  1.774709
N    -5.797596  -0.158750  1.090591
C    -6.453651  0.927763  1.637731
N    -7.586945  0.630654  2.379358
N    -6.015789  2.117246  1.362979
H    -2.764930  -1.300187  3.784431
H    -2.922665  -1.187953  2.028239
H    -5.361428  -0.817098  3.850862
H    -4.779105  -2.424684  3.479731
H    -6.578840  -1.914354  1.944979
H    -5.086334  -2.088602  1.055619
H    -5.033935  0.149820  0.498174
H    -7.849338  1.310585  3.080963
H    -7.742363  -0.330796  2.657665
H    -6.675729  2.834387  1.674923
N    -3.832663  2.505296  4.611508
C    -3.763520  3.534343  3.582771
H    -3.932281  2.802345  5.577565
H    -4.269997  4.430835  3.957845
H    -4.289652  3.210519  2.674867
H    -2.727094  3.800292  3.326182
