35
Energy: -21190.7062549 eV PBE+vdW (tier 2 basis)
C    0.139010  -0.035984  -1.176906
C    0.235894  0.661178  0.173084
O    1.210315  1.345172  0.480495
H    -0.027754  -1.117623  -1.077012
H    1.078963  0.138121  -1.707058
H    -0.691049  0.370433  -1.772924
N    -0.817259  0.499362  1.032768
C    -2.027050  -0.284248  0.825317
C    -3.224114  0.576557  1.272523
O    -3.323668  0.960163  2.441090
H    -0.735542  0.990202  1.921018
H    -2.109392  -0.476624  -0.248001
C    -1.966678  -1.607064  1.615778
C    -3.188895  -2.530982  1.531789
C    -3.457860  -3.206891  0.178232
N    -4.049677  -2.313392  -0.821260
C    -3.392686  -1.780109  -1.904800
N    -2.456524  -2.615418  -2.498928
N    -3.653188  -0.553506  -2.252342
H    -1.808637  -1.341723  2.671487
H    -1.064985  -2.149263  1.289212
H    -4.094608  -1.989703  1.853284
H    -3.054199  -3.334860  2.271875
H    -4.135306  -4.060978  0.333828
H    -2.521631  -3.609958  -0.231046
H    -4.727881  -1.654053  -0.448034
H    -2.044702  -2.261746  -3.354026
H    -2.683075  -3.604280  -2.536624
H    -3.245098  -0.313638  -3.157695
N    -4.121232  0.857950  0.297980
C    -5.278602  1.695653  0.552694
H    -3.945298  0.527423  -0.666909
H    -6.002090  1.555973  -0.258351
H    -5.007983  2.761055  0.607004
H    -5.741423  1.421860  1.509045
