35
Energy: -21190.4439875 eV PBE+vdW (tier 2 basis)
C    -1.552133  2.013686  2.745185
C    -0.832222  0.802423  3.309462
O    0.274939  0.877002  3.829038
H    -0.874463  2.543567  2.065487
H    -1.786600  2.698175  3.570685
H    -2.479591  1.771075  2.211038
N    -1.508272  -0.393009  3.183554
C    -1.035334  -1.615872  3.827349
C    -0.185483  -2.537902  2.925743
O    0.341379  -3.540053  3.401949
H    -2.467792  -0.356516  2.860434
H    -0.342375  -1.285156  4.615063
C    -2.176349  -2.428942  4.478643
C    -3.009280  -3.329896  3.554690
C    -3.906187  -2.608950  2.538998
N    -4.628482  -3.527175  1.671935
C    -4.060029  -3.986096  0.485211
N    -4.972923  -4.702937  -0.295581
N    -2.858593  -3.805789  0.060054
H    -2.821419  -1.728241  5.033347
H    -1.705699  -3.076443  5.229012
H    -3.655508  -3.965566  4.177878
H    -2.339466  -4.018584  3.019975
H    -3.311651  -1.919601  1.910344
H    -4.650676  -1.994993  3.067700
H    -5.632408  -3.392739  1.626642
H    -4.501634  -5.149493  -1.077105
H    -5.549496  -5.359371  0.224198
H    -2.321906  -3.191370  0.676587
N    -0.116969  -2.186963  1.612857
C    0.685776  -2.918755  0.649073
H    -0.490878  -1.277261  1.365178
H    0.102636  -3.131102  -0.255929
H    0.980849  -3.864505  1.115391
H    1.593239  -2.360645  0.376919
