35
Energy: -21190.3530271 eV PBE+vdW (tier 2 basis)
C    -0.216811  -1.348090  0.202513
C    -0.533822  -0.060461  0.931404
O    0.069375  0.984127  0.681427
H    0.860056  -1.367748  0.005317
H    -0.727572  -1.337920  -0.770561
H    -0.513560  -2.255563  0.738388
N    -1.509619  -0.072893  1.910218
C    -2.642531  -1.001783  2.025713
C    -2.272825  -2.373901  2.638257
O    -2.972498  -3.365097  2.446914
H    -1.700599  0.876981  2.235543
H    -3.284516  -0.542590  2.794211
C    -3.489333  -1.165632  0.741632
C    -3.705106  0.141003  -0.030072
C    -4.426594  1.236972  0.767602
N    -4.307210  2.572322  0.179514
C    -3.474268  3.557149  0.707440
N    -2.288434  3.067497  1.272017
N    -3.703807  4.826080  0.728146
H    -4.449333  -1.610536  1.037757
H    -3.020575  -1.908701  0.082817
H    -4.273955  -0.073915  -0.946852
H    -2.740951  0.542437  -0.374865
H    -4.038054  1.285293  1.794760
H    -5.495007  0.988496  0.854347
H    -5.159769  2.951324  -0.214432
H    -1.730535  3.851313  1.602976
H    -1.719386  2.468794  0.669881
H    -4.663247  5.036600  0.437086
N    -1.169646  -2.358555  3.434356
C    -0.692266  -3.530847  4.139532
H    -0.652252  -1.487022  3.484030
H    -1.386996  -4.351072  3.929095
H    -0.663376  -3.356391  5.223974
H    0.313130  -3.818838  3.801020
