35
Energy: -21190.6033816 eV PBE+vdW (tier 2 basis)
C    -1.746797  -0.191399  4.054997
C    -0.562667  -0.162306  3.111732
O    -0.409524  -1.017741  2.229865
H    -1.722673  0.611671  4.800806
H    -1.768018  -1.162564  4.564598
H    -2.669203  -0.116191  3.464459
N    0.312383  0.866595  3.291821
C    1.505218  1.036192  2.459088
C    2.681558  0.174608  2.997762
O    3.673736  0.665919  3.531202
H    0.196856  1.462843  4.110092
H    1.233442  0.634388  1.470200
C    1.896056  2.507027  2.330823
C    0.901352  3.350783  1.500855
C    0.238259  4.512242  2.252946
N    -0.595421  4.080236  3.367012
C    -0.145973  4.028365  4.679256
N    -0.943178  3.174093  5.471858
N    0.864994  4.599580  5.229552
H    2.893186  2.537432  1.875369
H    2.035243  2.925108  3.337980
H    0.103465  2.703900  1.099505
H    1.408358  3.770001  0.619007
H    -0.381052  5.097962  1.556387
H    0.996672  5.205766  2.641752
H    -1.230982  3.325101  3.123744
H    -0.694569  3.293334  6.451616
H    -1.944611  3.302163  5.335531
H    1.444984  5.103151  4.555431
N    2.485030  -1.157904  2.805532
C    3.403699  -2.162437  3.301967
H    1.583732  -1.438906  2.412181
H    2.967218  -2.733636  4.135067
H    4.303614  -1.651155  3.659984
H    3.681612  -2.864223  2.504023
