35
Energy: -21190.4238134 eV PBE+vdW (tier 2 basis)
C    0.892891  -1.397113  0.293205
C    0.364278  -0.362913  1.267548
O    1.116169  0.369809  1.913348
H    0.108874  -2.004457  -0.175261
H    1.593322  -2.055450  0.821170
H    1.456503  -0.878925  -0.492867
N    -0.996329  -0.291207  1.362236
C    -1.681325  0.652701  2.235694
C    -2.206231  -0.110163  3.469591
O    -3.177125  -0.863711  3.373372
H    -1.565474  -0.968248  0.866041
H    -0.921243  1.391559  2.516549
C    -2.845267  1.342648  1.513737
C    -2.409603  2.152672  0.293682
C    -3.581548  2.738526  -0.508051
N    -4.508676  1.760731  -1.064941
C    -4.157460  0.989583  -2.156620
N    -5.128757  0.017838  -2.453360
N    -3.036113  1.174995  -2.767343
H    -3.360905  1.990112  2.241925
H    -3.572710  0.564138  1.234800
H    -1.809844  1.530992  -0.384742
H    -1.762274  2.987106  0.608664
H    -3.183610  3.319701  -1.349333
H    -4.173679  3.421731  0.120103
H    -5.136367  1.311388  -0.407555
H    -4.979170  -0.444605  -3.343735
H    -6.090979  0.332657  -2.353825
H    -2.985840  0.615801  -3.622041
N    -1.545588  0.062237  4.647350
C    -0.372472  0.881884  4.927756
H    -1.952313  -0.467131  5.413051
H    0.346768  0.836795  4.100423
H    0.120329  0.484687  5.822530
H    -0.636145  1.933144  5.123653
