35
Energy: -21190.5045608 eV PBE+vdW (tier 2 basis)
C    -1.479520  1.183877  -0.554425
C    -0.759940  1.269686  0.771446
O    0.307085  1.882051  0.889188
H    -2.066273  2.102068  -0.698416
H    -2.156491  0.328526  -0.645677
H    -0.724000  1.141621  -1.346090
N    -1.289725  0.618116  1.862488
C    -2.657293  0.117714  2.058766
C    -2.960831  -1.187674  1.274538
O    -4.114261  -1.534247  1.036527
H    -0.753892  0.814133  2.703566
H    -2.680388  -0.206574  3.113052
C    -3.765409  1.167832  1.885423
C    -3.712140  2.319883  2.912134
C    -3.511943  3.705150  2.290584
N    -2.211912  3.833596  1.656539
C    -2.038175  4.541094  0.478308
N    -0.687059  4.696973  0.156279
N    -3.060972  4.977793  -0.180522
H    -4.716148  0.626734  1.954501
H    -3.729153  1.576656  0.866933
H    -2.914395  2.141661  3.654142
H    -4.646283  2.344161  3.491955
H    -3.658067  4.484853  3.059224
H    -4.256222  3.895389  1.506617
H    -1.403591  3.826297  2.269399
H    -0.531577  5.052987  -0.780199
H    -0.097122  3.886513  0.364916
H    -2.770873  5.391537  -1.069252
N    -1.864208  -1.926834  0.952259
C    -1.949913  -3.197318  0.260617
H    -0.957433  -1.525853  1.165350
H    -1.472022  -3.997217  0.842636
H    -1.473796  -3.147089  -0.729053
H    -3.011423  -3.434464  0.132064
