35
Energy: -21190.3496898 eV PBE+vdW (tier 2 basis)
C    -0.055023  0.222318  0.298642
C    -0.159876  0.001687  1.794175
O    0.831601  0.002368  2.517768
H    -0.089646  1.302078  0.095804
H    -0.847174  -0.259173  -0.285360
H    0.922498  -0.145640  -0.027793
N    -1.411101  -0.217430  2.342503
C    -2.739066  -0.068274  1.738799
C    -3.083632  -1.172622  0.703656
O    -3.946441  -0.994469  -0.152395
H    -1.370465  -0.247850  3.357458
H    -3.439363  -0.253907  2.570430
C    -3.065495  1.329087  1.189309
C    -2.867875  2.443717  2.214999
C    -3.278177  3.829043  1.685232
N    -4.688947  3.994152  1.380501
C    -5.644225  4.161600  2.376504
N    -6.948822  4.106191  1.873783
N    -5.463500  4.347452  3.639090
H    -4.109712  1.288303  0.851535
H    -2.467148  1.530973  0.288167
H    -1.811402  2.497312  2.522124
H    -3.446024  2.218573  3.126016
H    -2.714916  4.054724  0.766737
H    -2.996495  4.604846  2.412164
H    -5.022375  3.509370  0.553648
H    -7.617995  4.374603  2.589624
H    -7.093532  4.617173  1.006854
H    -4.482046  4.243645  3.904081
N    -2.404095  -2.338909  0.868999
C    -2.619345  -3.500235  0.029272
H    -1.684854  -2.356677  1.584082
H    -2.912556  -4.372453  0.629407
H    -1.715304  -3.752505  -0.543017
H    -3.427434  -3.259969  -0.669863
