35
Energy: -21190.6151664 eV PBE+vdW (tier 2 basis)
C    1.027204  0.388912  -0.457563
C    0.490599  1.258473  0.660642
O    0.852322  2.437195  0.783019
H    0.576995  -0.609951  -0.501005
H    2.111528  0.282446  -0.324702
H    0.863804  0.900868  -1.413343
N    -0.401206  0.659906  1.496911
C    -0.966032  1.207194  2.742475
C    -1.974035  2.360674  2.534445
O    -3.111032  2.273568  3.024595
H    -0.642528  -0.301887  1.292833
H    -1.580597  0.395996  3.145893
C    0.141799  1.511996  3.775470
C    -0.296214  2.198150  5.078735
C    -1.506433  1.590141  5.816643
N    -1.555546  0.136464  5.752754
C    -2.731494  -0.599582  5.628680
N    -3.770428  0.041375  4.973357
N    -2.742368  -1.792719  6.132175
H    0.913311  2.132490  3.300674
H    0.607814  0.544277  4.011164
H    -0.521950  3.259114  4.888863
H    0.581172  2.196122  5.743839
H    -2.429443  1.979447  5.378985
H    -1.496397  1.943734  6.863425
H    -0.908798  -0.365085  6.354963
H    -4.552010  -0.554504  4.733995
H    -3.573185  0.777192  4.287034
H    -3.606248  -2.285539  5.893001
N    -1.522264  3.433368  1.855873
C    -2.345026  4.595830  1.584397
H    -0.575141  3.358802  1.458856
H    -1.835193  5.512210  1.910733
H    -3.286024  4.490877  2.133996
H    -2.567834  4.683780  0.511151
