35
Energy: -21190.1023493 eV PBE+vdW (tier 2 basis)
C    0.080194  -0.150627  1.020251
C    -0.544272  -0.215963  2.399410
O    0.155267  -0.242438  3.409848
H    1.027050  0.389274  1.113675
H    -0.536475  0.318087  0.248281
H    0.310156  -1.173936  0.689991
N    -1.913665  -0.326463  2.531750
C    -3.033533  -0.149078  1.602098
C    -2.784519  -0.735058  0.195104
O    -2.873374  -0.050356  -0.827782
H    -2.172604  -0.369452  3.514851
H    -3.844167  -0.775359  2.016188
C    -3.584197  1.284125  1.546529
C    -2.593271  2.386346  1.135611
C    -3.266308  3.493379  0.318964
N    -3.766229  2.953016  -0.947241
C    -5.070123  3.116199  -1.390899
N    -5.671223  4.313531  -0.990550
N    -5.748471  2.282913  -2.108268
H    -4.003161  1.517872  2.536831
H    -4.434973  1.271308  0.849998
H    -1.782976  1.970069  0.522118
H    -2.110352  2.824706  2.020003
H    -2.538828  4.304014  0.141746
H    -4.107350  3.929277  0.878978
H    -3.389681  2.032051  -1.172159
H    -6.558686  4.438793  -1.468745
H    -5.077916  5.136416  -1.054334
H    -5.244375  1.396587  -2.205486
N    -2.511510  -2.066662  0.117780
C    -2.404895  -3.047255  1.186047
H    -2.358052  -2.382957  -0.834986
H    -2.557942  -4.043820  0.757401
H    -3.179613  -2.890848  1.946880
H    -1.425470  -3.025179  1.685052
