35
Energy: -21190.2227478 eV PBE+vdW (tier 2 basis)
C    1.357629  -0.636198  1.697569
C    0.952111  -1.178554  3.050164
O    1.776786  -1.568530  3.876614
H    2.402981  -0.321681  1.762954
H    0.737904  0.206090  1.364925
H    1.302242  -1.437846  0.946652
N    -0.391773  -1.206676  3.355440
C    -1.510074  -1.225869  2.411915
C    -2.759393  -0.659441  3.118604
O    -3.719944  -1.366889  3.416409
H    -0.565050  -1.628876  4.265205
H    -1.254520  -0.539013  1.591430
C    -1.754363  -2.616400  1.798182
C    -1.909882  -3.777135  2.798312
C    -1.102481  -5.024050  2.412324
N    0.343902  -4.811124  2.423707
C    1.138582  -4.570216  1.312020
N    0.631999  -5.070185  0.105679
N    2.264133  -3.938865  1.294178
H    -0.899266  -2.816851  1.136807
H    -2.639286  -2.557583  1.149882
H    -2.968354  -4.046900  2.905726
H    -1.592162  -3.472508  3.807871
H    -1.392689  -5.356157  1.407845
H    -1.349779  -5.845848  3.102986
H    0.708138  -4.374927  3.266101
H    1.346114  -5.000282  -0.614113
H    0.241254  -6.007270  0.158503
H    2.472398  -3.512765  2.202183
N    -2.739246  0.675719  3.408618
C    -1.712078  1.653959  3.086756
H    -3.575115  0.995339  3.887201
H    -2.045518  2.633642  3.443992
H    -1.546739  1.736357  2.001720
H    -0.754831  1.417311  3.570083
