35
Energy: -21190.0955799 eV PBE+vdW (tier 2 basis)
C    0.088444  -0.400815  -0.358140
C    0.069657  -0.921718  1.069039
O    0.544844  -2.009440  1.373899
H    1.129801  -0.342139  -0.698186
H    -0.383916  0.582391  -0.482043
H    -0.424537  -1.125413  -1.002419
N    -0.523109  -0.084583  1.983855
C    -0.567327  -0.378220  3.408270
C    -1.879474  -1.005790  3.931112
O    -1.821798  -1.893680  4.776332
H    -0.819823  0.829573  1.665142
H    0.166643  -1.179849  3.568949
C    -0.181832  0.852446  4.248018
C    1.293013  1.233895  4.087623
C    1.671449  2.579660  4.722719
N    1.455464  2.667104  6.165602
C    0.242102  3.006878  6.749044
N    -0.465900  4.008871  6.067442
N    -0.128649  2.389905  7.818250
H    -0.403521  0.630762  5.301089
H    -0.823799  1.708753  3.976759
H    1.919580  0.436001  4.518455
H    1.558702  1.281063  3.018495
H    1.103881  3.386237  4.239393
H    2.734299  2.784728  4.524206
H    1.886578  1.918785  6.704166
H    0.110151  4.759338  5.693167
H    -1.248593  4.371281  6.601413
H    -0.952691  2.825439  8.240336
N    -3.091677  -0.546598  3.485603
C    -3.415106  0.539863  2.578728
H    -3.865701  -1.046789  3.911140
H    -4.473036  0.793944  2.710779
H    -3.259182  0.273993  1.522295
H    -2.840648  1.448853  2.806549
