35
Energy: -21190.3450417 eV PBE+vdW (tier 2 basis)
C    0.234520  -1.041240  0.616333
C    -0.087166  0.024626  1.643662
O    0.583909  1.045804  1.779057
H    1.218574  -0.819763  0.195488
H    -0.507473  -1.030750  -0.195938
H    0.227230  -2.055222  1.039372
N    -1.193945  -0.187124  2.434034
C    -2.156350  -1.269039  2.332316
C    -3.083423  -1.257668  1.099920
O    -3.430374  -2.340909  0.605668
H    -1.365846  0.558168  3.102700
H    -1.594747  -2.200876  2.203530
C    -3.002693  -1.389802  3.632264
C    -2.622138  -2.581613  4.521385
C    -3.154699  -3.942944  4.032421
N    -2.703953  -4.357088  2.711817
C    -1.413841  -4.813943  2.537533
N    -0.994290  -4.765228  1.198033
N    -0.694157  -5.179432  3.546368
H    -4.070188  -1.456745  3.369922
H    -2.893931  -0.452692  4.199839
H    -3.028107  -2.414815  5.531289
H    -1.528797  -2.637590  4.629999
H    -4.255079  -3.922184  4.009455
H    -2.848538  -4.718841  4.744796
H    -3.092077  -3.832362  1.923968
H    -1.736532  -4.751146  0.502759
H    -0.264180  -5.430522  0.968247
H    0.219481  -5.522030  3.241461
N    -3.528626  -0.088033  0.571536
C    -3.391864  1.277133  1.066399
H    -4.134698  -0.234246  -0.230247
H    -4.133387  1.896476  0.549939
H    -2.396096  1.697580  0.875023
H    -3.604821  1.341882  2.141098
