35
Energy: -21190.2867623 eV PBE+vdW (tier 2 basis)
C    -0.204056  -0.154296  -0.096606
C    -0.007294  -0.174401  1.409156
O    1.091671  -0.355709  1.923508
H    0.765373  -0.351133  -0.561096
H    -0.572788  0.820056  -0.447151
H    -0.920903  -0.919654  -0.424763
N    -1.119757  0.036458  2.192966
C    -2.514822  0.132531  1.770372
C    -3.180521  1.203907  2.665064
O    -3.876362  0.902130  3.640848
H    -0.942229  -0.078409  3.188627
H    -2.519138  0.495600  0.732840
C    -3.264391  -1.201000  1.840853
C    -4.681839  -1.142291  1.235907
C    -5.709772  -1.946316  2.031917
N    -5.882815  -1.353353  3.345772
C    -6.331841  -2.096429  4.409115
N    -6.318400  -1.387371  5.622339
N    -6.780386  -3.295925  4.228900
H    -3.317850  -1.506310  2.895631
H    -2.657045  -1.958420  1.326276
H    -4.666325  -1.507886  0.199633
H    -5.029963  -0.096626  1.180244
H    -5.394425  -2.997024  2.142802
H    -6.669582  -1.969855  1.490200
H    -5.314367  -0.532725  3.549056
H    -6.299411  -1.985169  6.440908
H    -5.637239  -0.634473  5.685807
H    -7.113412  -3.696824  5.108558
N    -2.934965  2.504820  2.356642
C    -2.069083  3.031993  1.313323
H    -3.340870  3.160424  3.017455
H    -1.015422  2.764911  1.476630
H    -2.153070  4.123327  1.316085
H    -2.374562  2.680972  0.317741
