35
Energy: -21190.3042827 eV PBE+vdW (tier 2 basis)
C    -0.013208  -0.193878  0.767177
C    -0.146053  0.421480  2.148632
O    0.813098  0.919729  2.733674
H    -0.146410  -1.284347  0.807594
H    0.998903  0.013474  0.410339
H    -0.737576  0.225637  0.055412
N    -1.381430  0.382125  2.749620
C    -2.630569  -0.142533  2.221817
C    -3.525813  1.018145  1.740240
O    -3.873129  1.912034  2.506613
H    -1.437437  0.922715  3.610406
H    -2.378983  -0.794680  1.375579
C    -3.392443  -0.955537  3.290130
C    -2.562202  -2.047230  3.971246
C    -2.081225  -3.157363  3.027070
N    -1.166096  -4.102854  3.655128
C    0.210240  -4.107081  3.463026
N    0.735124  -2.880129  3.050971
N    1.003590  -5.114337  3.607569
H    -4.285619  -1.390065  2.812382
H    -3.766026  -0.247454  4.044485
H    -3.156127  -2.497249  4.780715
H    -1.687269  -1.592927  4.459688
H    -1.571198  -2.724196  2.154936
H    -2.949130  -3.713046  2.638043
H    -1.548384  -5.001765  3.918231
H    1.750093  -2.921135  3.029780
H    0.403632  -2.059941  3.553203
H    0.482803  -5.982867  3.758690
N    -3.885725  0.962504  0.425320
C    -4.725699  1.965767  -0.203871
H    -3.537051  0.195042  -0.135870
H    -5.645771  1.518986  -0.604881
H    -4.192655  2.477302  -1.017036
H    -4.989772  2.699691  0.564718
