35
Energy: -21190.1793537 eV PBE+vdW (tier 2 basis)
C    -0.249982  -1.452497  -0.871892
C    -0.141795  -0.954586  0.558148
O    0.912957  -0.553518  1.038023
H    0.305914  -2.395544  -0.954975
H    0.235256  -0.727738  -1.535547
H    -1.280202  -1.620065  -1.210109
N    -1.312701  -0.968447  1.273597
C    -1.397132  -0.691497  2.707573
C    -0.495556  0.496070  3.143738
O    0.314694  0.384134  4.063600
H    -2.131596  -1.374260  0.836365
H    -2.437939  -0.369384  2.890525
C    -1.104876  -1.934798  3.559301
C    -1.603548  -1.825522  5.012157
C    -0.692670  -2.543316  6.009917
N    0.610918  -1.886729  6.057405
C    1.803954  -2.560205  6.249735
N    1.679410  -3.759993  6.962436
N    2.972734  -2.198126  5.836905
H    -0.020089  -2.106297  3.537604
H    -1.574394  -2.799842  3.068955
H    -2.620243  -2.237015  5.096997
H    -1.671642  -0.768959  5.313357
H    -0.570030  -3.600769  5.721988
H    -1.179129  -2.536760  7.002259
H    0.687442  -1.059650  5.462911
H    2.599646  -4.119431  7.199847
H    1.063547  -3.719210  7.770354
H    2.902776  -1.391433  5.209972
N    -0.721021  1.711583  2.567803
C    -1.558258  2.050989  1.432750
H    -0.052159  2.409759  2.878845
H    -1.765210  3.127250  1.462527
H    -2.521345  1.529360  1.483903
H    -1.083956  1.812797  0.467945
