35
Energy: -21190.7219586 eV PBE+vdW (tier 2 basis)
C    -1.256721  -1.150690  0.783951
C    -0.733676  -0.436250  2.010116
O    0.455928  -0.123335  2.144694
H    -0.483139  -1.827811  0.407641
H    -1.464827  -0.409652  -0.000720
H    -2.177680  -1.710688  0.992225
N    -1.686758  -0.139988  2.949008
C    -1.307661  0.470140  4.221147
C    -0.914955  -0.639551  5.225351
O    -1.652307  -1.040992  6.136015
H    -2.537633  -0.710685  2.911058
H    -0.376192  1.008104  3.994533
C    -2.305794  1.518586  4.765668
C    -3.819506  1.380100  4.525478
C    -4.591877  0.343000  5.360264
N    -4.302680  -1.053455  5.049357
C    -4.516267  -1.584614  3.791880
N    -5.635569  -1.135044  3.118657
N    -3.784654  -2.497218  3.216037
H    -2.010463  2.476101  4.313446
H    -2.116399  1.618005  5.845260
H    -4.007538  1.210492  3.452881
H    -4.263210  2.364513  4.745176
H    -5.674509  0.529453  5.268508
H    -4.358612  0.477459  6.425608
H    -3.414432  -1.343613  5.469388
H    -6.026618  -0.229631  3.338270
H    -5.676771  -1.417416  2.147810
H    -3.047027  -2.813734  3.851851
N    0.320476  -1.141279  4.983994
C    0.865063  -2.279740  5.698443
H    0.793794  -0.799744  4.144512
H    1.891398  -2.071054  6.026672
H    0.873183  -3.182467  5.069648
H    0.236633  -2.466305  6.575175
