35
Energy: -21190.5079339 eV PBE+vdW (tier 2 basis)
C    -1.775272  0.301559  -0.456492
C    -1.128397  0.231559  0.914995
O    0.088427  0.118124  1.058575
H    -1.321890  1.126475  -1.019624
H    -2.862392  0.443381  -0.424624
H    -1.550083  -0.625842  -0.998094
N    -1.994883  0.323767  1.969579
C    -1.581548  0.099507  3.341613
C    -2.626603  -0.827573  3.983034
O    -3.791899  -0.852343  3.583027
H    -2.997299  0.228565  1.817644
H    -0.593522  -0.386453  3.304951
C    -1.469993  1.409730  4.153957
C    -0.352437  2.330597  3.667434
C    -0.289986  3.633271  4.474422
N    0.842044  4.483530  4.139176
C    2.084266  4.238538  4.695689
N    3.091306  5.089074  4.219527
N    2.221848  3.358984  5.630409
H    -1.294728  1.155009  5.211701
H    -2.445488  1.921847  4.113428
H    -0.494084  2.561427  2.600365
H    0.614738  1.815358  3.753884
H    -0.198492  3.406101  5.544523
H    -1.211491  4.219127  4.332036
H    0.838525  4.878360  3.205385
H    4.022778  4.691799  4.260824
H    2.915183  5.563675  3.338994
H    3.167865  3.382789  6.017059
N    -2.172715  -1.569132  5.028453
C    -3.029047  -2.436676  5.815625
H    -1.190400  -1.502665  5.267848
H    -3.068831  -2.112150  6.864893
H    -2.679626  -3.477498  5.777412
H    -4.035252  -2.383551  5.387410
