35
Energy: -21190.5538421 eV PBE+vdW (tier 2 basis)
C    -0.029350  -1.638932  1.627811
C    -0.388746  -0.158692  1.681587
O    0.454678  0.709364  1.470548
H    -0.232321  -2.143703  2.582899
H    1.039425  -1.711824  1.411029
H    -0.588312  -2.162009  0.838716
N    -1.682537  0.167360  1.992184
C    -2.829920  -0.714957  2.116935
C    -3.870215  -0.352227  1.040341
O    -4.161683  0.825047  0.821863
H    -1.903391  1.157234  1.888960
H    -2.489417  -1.739514  1.945392
C    -3.481515  -0.605906  3.516001
C    -2.661301  -1.244262  4.648029
C    -2.962774  -2.727116  4.931164
N    -2.759738  -3.651638  3.809898
C    -3.679415  -3.874552  2.799774
N    -5.011923  -3.776214  3.171778
N    -3.405749  -4.133885  1.556078
H    -4.485432  -1.054249  3.478042
H    -3.630598  0.464290  3.717288
H    -2.851017  -0.705139  5.589286
H    -1.585489  -1.108928  4.449672
H    -4.000652  -2.826457  5.274285
H    -2.332245  -3.074479  5.762679
H    -1.801473  -3.698036  3.477390
H    -5.627865  -4.140606  2.452442
H    -5.247156  -4.102068  4.103023
H    -2.397975  -4.090470  1.380479
N    -4.419770  -1.418589  0.405970
C    -5.466402  -1.272616  -0.586792
H    -4.120611  -2.363456  0.673886
H    -5.228603  -1.858372  -1.484206
H    -5.538665  -0.212923  -0.853823
H    -6.441794  -1.604186  -0.199232
