35
Energy: -21190.1091236 eV PBE+vdW (tier 2 basis)
C    0.184266  0.271572  2.181063
C    -0.939419  0.554942  3.156865
O    -0.737550  1.161007  4.207667
H    -0.120263  0.210113  1.132246
H    0.652641  -0.686639  2.448389
H    0.935086  1.057410  2.304899
N    -2.203028  0.068065  2.893987
C    -2.802385  -0.532373  1.699475
C    -1.905030  -1.580786  1.004085
O    -1.622596  -1.505363  -0.190231
H    -2.852728  0.327453  3.632164
H    -3.657290  -1.118223  2.081594
C    -3.398367  0.492531  0.716562
C    -2.445342  1.547333  0.151199
C    -3.168297  2.608219  -0.681046
N    -4.040132  3.425971  0.148645
C    -4.967521  4.296925  -0.416237
N    -5.586269  5.103418  0.545805
N    -5.287891  4.430220  -1.656484
H    -4.223572  1.001248  1.238293
H    -3.849909  -0.069193  -0.114535
H    -1.691592  1.063875  -0.483520
H    -1.901546  2.051700  0.967010
H    -3.790723  2.114854  -1.443458
H    -2.423993  3.221417  -1.222743
H    -3.599003  3.788999  0.990186
H    -6.345524  5.636723  0.131973
H    -5.875509  4.614284  1.388646
H    -4.665986  3.896376  -2.267259
N    -1.478629  -2.633598  1.763381
C    -1.743311  -2.933792  3.160987
H    -0.894608  -3.279683  1.241596
H    -1.578881  -4.005190  3.322210
H    -2.786259  -2.717030  3.424658
H    -1.093306  -2.372169  3.847639
