35
Energy: -21190.1856282 eV PBE+vdW (tier 2 basis)
C    0.649390  -1.225597  1.156243
C    0.729880  0.255647  1.467261
O    1.799555  0.855505  1.564474
H    0.165174  -1.401970  0.184974
H    0.066607  -1.771116  1.911207
H    1.667004  -1.622731  1.126819
N    -0.460292  0.921472  1.633856
C    -1.803995  0.409540  1.427102
C    -2.237476  0.102791  -0.029902
O    -3.099833  -0.758988  -0.199974
H    -0.341826  1.915419  1.806589
H    -1.877459  -0.579456  1.901378
C    -2.851611  1.302004  2.120614
C    -2.938068  2.747702  1.625443
C    -4.059009  3.519647  2.337099
N    -4.163694  4.922860  1.968396
C    -4.707135  5.290274  0.748864
N    -4.613784  6.673628  0.525440
N    -5.196208  4.403232  -0.048270
H    -2.639420  1.285391  3.201937
H    -3.825049  0.810690  1.980477
H    -3.145839  2.775533  0.546537
H    -1.987770  3.283416  1.794980
H    -3.920643  3.473003  3.428165
H    -5.023807  3.050504  2.103079
H    -3.423958  5.529600  2.306461
H    -4.804577  7.250500  1.341300
H    -5.134532  6.989817  -0.285638
H    -5.674053  4.838096  -0.840594
N    -1.678521  0.748314  -1.096400
C    -0.741746  1.863106  -1.181467
H    -2.083555  0.424391  -1.969510
H    -1.042685  2.706832  -0.548734
H    -0.745739  2.218866  -2.217712
H    0.286060  1.576001  -0.923721
