35
Energy: -21190.4982537 eV PBE+vdW (tier 2 basis)
C    0.425221  0.672186  0.140729
C    0.234219  0.706935  1.645086
O    0.892132  1.441641  2.373904
H    1.495062  0.582680  -0.080040
H    0.084934  1.628988  -0.276684
H    -0.116962  -0.141874  -0.356644
N    -0.721472  -0.157483  2.135236
C    -1.174175  -0.109079  3.520760
C    -0.902635  -1.421064  4.291258
O    -1.545250  -1.717807  5.302274
H    -1.301642  -0.651084  1.465464
H    -0.528634  0.650674  3.992718
C    -2.636425  0.327691  3.659693
C    -3.647699  -0.638399  3.037971
C    -5.096575  -0.368902  3.472095
N    -5.301714  -0.232927  4.921331
C    -5.463879  -1.339160  5.771573
N    -4.534155  -2.348765  5.574368
N    -6.370911  -1.463981  6.682748
H    -2.738817  1.333053  3.223798
H    -2.855601  0.422243  4.730937
H    -3.389664  -1.674353  3.299501
H    -3.629729  -0.581470  1.936315
H    -5.743232  -1.158583  3.051495
H    -5.426005  0.584372  3.033482
H    -5.972408  0.492291  5.149857
H    -4.653018  -3.080279  6.268972
H    -3.558875  -2.051976  5.484443
H    -7.075880  -0.725097  6.605027
N    0.108518  -2.180584  3.801894
C    0.578862  -3.387042  4.453475
H    0.589213  -1.831925  2.980086
H    -0.107975  -3.611721  5.276074
H    1.589656  -3.251292  4.863746
H    0.590517  -4.231907  3.752057
