35
Energy: -21190.2446792 eV PBE+vdW (tier 2 basis)
C    -0.146515  -0.270591  -0.005747
C    0.054214  -0.163854  1.499242
O    1.171837  -0.217909  2.007668
H    0.830158  -0.455058  -0.460465
H    -0.558649  0.660789  -0.420611
H    -0.829298  -1.087603  -0.277521
N    -1.065966  0.016112  2.265415
C    -2.454973  0.026592  1.836439
C    -3.200510  0.954420  2.813621
O    -2.996540  0.859518  4.023148
H    -0.917554  0.081901  3.271392
H    -2.503361  0.419975  0.812671
C    -3.089028  -1.384434  1.866924
C    -4.474039  -1.472740  1.226577
C    -5.057568  -2.889545  1.316402
N    -6.342979  -3.064677  0.656571
C    -7.502617  -2.571424  1.228687
N    -8.617617  -2.741485  0.390166
N    -7.478846  -2.007086  2.387454
H    -3.129950  -1.710263  2.917673
H    -2.392681  -2.067052  1.354376
H    -4.414016  -1.173297  0.165793
H    -5.179746  -0.791752  1.723493
H    -5.197003  -3.156777  2.372223
H    -4.359215  -3.618716  0.877801
H    -6.329409  -3.054460  -0.357875
H    -9.499737  -2.526489  0.842792
H    -8.653767  -3.637812  -0.089845
H    -8.424170  -1.819223  2.728663
N    -4.085618  1.858069  2.307247
C    -4.422193  2.133430  0.919467
H    -4.567378  2.387509  3.027593
H    -5.026426  1.336168  0.463296
H    -3.523659  2.292405  0.308314
H    -5.006773  3.059018  0.887063
