35
Energy: -21190.2691715 eV PBE+vdW (tier 2 basis)
C    0.332723  -0.314013  0.414239
C    -0.100876  -0.543497  1.853926
O    0.700120  -0.512810  2.783730
H    1.418851  -0.192359  0.407505
H    -0.125885  0.596236  0.000615
H    0.062291  -1.151704  -0.243062
N    -1.434183  -0.774214  2.080009
C    -2.514318  -0.816599  1.115929
C    -3.779067  -0.343936  1.849762
O    -3.873266  -0.468480  3.076563
H    -1.718121  -0.838667  3.056779
H    -2.289471  -0.121908  0.293801
C    -2.719364  -2.235059  0.501403
C    -3.262460  -3.290798  1.477682
C    -4.796246  -3.416905  1.441375
N    -5.341938  -4.164291  2.559799
C    -6.285254  -3.671969  3.448963
N    -6.270564  -2.284659  3.613014
N    -7.091439  -4.513410  4.007446
H    -1.737863  -2.543890  0.117436
H    -3.375105  -2.160176  -0.381490
H    -2.819625  -4.269989  1.245580
H    -2.949570  -3.059608  2.505623
H    -5.097153  -3.889953  0.489798
H    -5.265196  -2.425348  1.442632
H    -5.454845  -5.165317  2.440304
H    -6.849341  -1.972508  4.384405
H    -5.363112  -1.813256  3.602042
H    -7.649198  -4.064416  4.737731
N    -4.800787  0.172578  1.117970
C    -4.914193  0.304801  -0.324422
H    -5.633594  0.352778  1.673097
H    -5.294774  -0.611491  -0.801433
H    -3.944670  0.552668  -0.770756
H    -5.603017  1.125856  -0.552953
