35
Energy: -21190.5022053 eV PBE+vdW (tier 2 basis)
C    0.366056  1.306057  0.034629
C    -0.059796  0.954398  1.443742
O    0.004889  1.773409  2.371062
H    0.279461  0.471548  -0.671564
H    1.405556  1.655694  0.054937
H    -0.252349  2.140476  -0.319809
N    -0.518001  -0.314299  1.622782
C    -1.040795  -0.802690  2.902800
C    0.101945  -1.276561  3.846494
O    0.249296  -2.448523  4.194951
H    -0.463312  -0.959559  0.843281
H    -1.478443  0.087488  3.381804
C    -2.174840  -1.823303  2.717223
C    -1.865271  -3.236170  2.189180
C    -1.138197  -3.285172  0.848825
N    -1.095426  -4.642964  0.325005
C    -0.561004  -4.849146  -0.936407
N    -0.410562  -6.211473  -1.235445
N    -0.236471  -3.846869  -1.681332
H    -2.923079  -1.344424  2.065032
H    -2.656284  -1.938055  3.698868
H    -2.827228  -3.761108  2.079413
H    -1.276380  -3.773890  2.943744
H    -0.108734  -2.893480  0.951306
H    -1.647947  -2.669570  0.092224
H    -0.844059  -5.352042  1.008646
H    -0.193962  -6.396230  -2.208890
H    -1.161116  -6.807944  -0.896086
H    0.036436  -4.157185  -2.617011
N    0.895782  -0.251211  4.251370
C    2.067926  -0.448907  5.079293
H    0.696803  0.672129  3.853246
H    2.046013  0.220494  5.949887
H    2.995043  -0.261659  4.517085
H    2.069441  -1.487931  5.425482
