35
Energy: -21190.2207505 eV PBE+vdW (tier 2 basis)
C    0.767751  -2.532410  -0.038597
C    1.135027  -1.128493  0.404050
O    1.616963  -0.299524  -0.362515
H    0.115465  -2.466895  -0.917361
H    0.268790  -3.126973  0.736814
H    1.684259  -3.051140  -0.347432
N    0.891057  -0.844555  1.724195
C    1.283715  0.431219  2.318298
C    1.641028  0.193447  3.800967
O    2.799670  0.021684  4.165550
H    0.538669  -1.576349  2.329362
H    2.222647  0.732487  1.833792
C    0.236098  1.533655  2.087756
C    0.667215  2.888329  2.670058
C    -0.518559  3.691282  3.220340
N    -0.141512  4.907397  3.932114
C    -0.005147  4.992726  5.311521
N    0.275303  3.772511  5.939037
N    -0.125997  6.052356  6.036476
H    -0.732482  1.220851  2.518147
H    0.062974  1.607885  1.006013
H    1.202489  3.481077  1.915048
H    1.393221  2.731135  3.483455
H    -1.105631  3.049741  3.897513
H    -1.189069  3.973020  2.395049
H    -0.387457  5.783988  3.490954
H    0.485270  3.937304  6.919930
H    0.994240  3.210703  5.488986
H    -0.476527  6.844138  5.490284
N    0.572973  0.159158  4.656471
C    0.716528  -0.018875  6.090137
H    -0.340999  0.400317  4.291572
H    0.269919  0.826123  6.632064
H    1.787780  -0.071248  6.311875
H    0.239330  -0.949070  6.429073
