35
Energy: -21190.122096 eV PBE+vdW (tier 2 basis)
C    -1.164435  1.442468  0.263457
C    -0.116257  0.601232  0.961753
O    0.985360  1.042752  1.283470
H    -0.708506  2.398376  -0.006045
H    -2.026753  1.626791  0.919499
H    -1.552989  0.950562  -0.638564
N    -0.440876  -0.709720  1.226857
C    -1.731325  -1.368317  1.073716
C    -2.858251  -0.809237  1.977381
O    -3.943948  -0.528031  1.472170
H    0.296509  -1.212848  1.713411
H    -2.116395  -1.165567  0.064239
C    -1.527650  -2.889402  1.222375
C    -2.792565  -3.753985  1.227688
C    -3.641197  -3.652272  -0.052646
N    -4.553672  -4.766734  -0.268832
C    -5.699413  -4.908293  0.496075
N    -6.393263  -6.091202  0.181018
N    -6.011923  -4.036537  1.390793
H    -0.970063  -3.083417  2.152966
H    -0.863070  -3.201706  0.399761
H    -3.431514  -3.515140  2.089161
H    -2.474138  -4.800466  1.357978
H    -2.985194  -3.602137  -0.936679
H    -4.241264  -2.733828  -0.027524
H    -4.123118  -5.643033  -0.546192
H    -7.302819  -6.154573  0.625914
H    -6.449856  -6.293810  -0.814432
H    -6.948290  -4.207515  1.764742
N    -2.638750  -0.631154  3.314005
C    -1.444244  -0.855866  4.114156
H    -3.450412  -0.242549  3.783927
H    -1.030953  -1.861207  3.961031
H    -1.725775  -0.782637  5.170356
H    -0.655925  -0.115685  3.916352
