35
Energy: -21190.424329 eV PBE+vdW (tier 2 basis)
C    -1.168716  2.239976  -1.020608
C    -0.388497  1.341724  -0.081654
O    0.838074  1.321787  -0.046760
H    -0.455574  2.851598  -1.578584
H    -1.866526  2.892425  -0.478204
H    -1.766329  1.648986  -1.729432
N    -1.126106  0.534566  0.761466
C    -2.572383  0.347671  0.782667
C    -3.349783  1.532748  1.395885
O    -4.506703  1.769070  1.050938
H    -0.557338  -0.119897  1.293536
H    -2.956406  0.269653  -0.246100
C    -2.874841  -0.963156  1.541496
C    -4.345684  -1.359186  1.687132
C    -5.109934  -1.570039  0.368111
N    -4.475699  -2.456316  -0.599645
C    -4.363833  -3.813800  -0.381551
N    -3.634519  -4.456592  -1.399582
N    -4.866125  -4.358608  0.674585
H    -2.430214  -0.882786  2.547058
H    -2.329813  -1.769889  1.024943
H    -4.892280  -0.600374  2.265503
H    -4.383435  -2.295674  2.258895
H    -5.276592  -0.606686  -0.131689
H    -6.095381  -1.991270  0.606340
H    -3.766918  -2.051694  -1.199599
H    -3.665337  -5.468708  -1.335984
H    -3.853390  -4.139481  -2.341332
H    -4.806075  -5.378223  0.626597
N    -2.674599  2.235871  2.343621
C    -3.247943  3.367718  3.044194
H    -1.697015  2.000716  2.480566
H    -2.707608  4.296787  2.813374
H    -3.230707  3.209384  4.131158
H    -4.287386  3.469915  2.714348
