35
Energy: -21190.2282679 eV PBE+vdW (tier 2 basis)
C    -0.851958  -0.707076  2.766275
C    -1.134462  0.765524  2.547695
O    -0.318413  1.630783  2.849883
H    -1.746050  -1.324042  2.907710
H    -0.301455  -1.095364  1.897806
H    -0.197973  -0.797338  3.639180
N    -2.354405  1.132569  2.006022
C    -3.398266  0.306718  1.393305
C    -4.200288  -0.554074  2.406834
O    -4.837368  -1.537223  2.036958
H    -2.392330  2.131400  1.823047
H    -4.139817  1.033609  1.020994
C    -2.952528  -0.531233  0.184158
C    -2.363762  0.315192  -0.945318
C    -1.864558  -0.502949  -2.138040
N    -2.949328  -1.202141  -2.807169
C    -2.895372  -1.725599  -4.092409
N    -1.754029  -1.382457  -4.818873
N    -3.821321  -2.411425  -4.673901
H    -3.845219  -1.083081  -0.140622
H    -2.227632  -1.295888  0.500260
H    -1.512130  0.899366  -0.563868
H    -3.113253  1.040276  -1.302498
H    -1.070254  -1.196050  -1.788756
H    -1.404220  0.178856  -2.865925
H    -3.623893  -1.662288  -2.207796
H    -1.751979  -1.864112  -5.713232
H    -0.866947  -1.464135  -4.331140
H    -4.660708  -2.474941  -4.091351
N    -4.182607  -0.093866  3.685528
C    -4.910716  -0.735238  4.762415
H    -3.594256  0.709265  3.879736
H    -5.617560  -0.037221  5.231329
H    -4.227005  -1.117649  5.533341
H    -5.468757  -1.574289  4.333578
