35
Energy: -21190.0919393 eV PBE+vdW (tier 2 basis)
C    -0.009334  1.815798  2.427958
C    0.555868  0.411778  2.491769
O    1.665763  0.159994  2.955417
H    0.761327  2.508692  2.774350
H    -0.899213  1.918790  3.065085
H    -0.311907  2.086475  1.406944
N    -0.233462  -0.600883  1.994165
C    -1.627835  -0.523286  1.589654
C    -2.656498  -0.247194  2.714212
O    -3.614408  0.485601  2.469862
H    0.189056  -1.519472  2.099202
H    -1.759208  0.344574  0.926854
C    -2.035397  -1.778458  0.800264
C    -1.322077  -1.906979  -0.547965
C    -1.728878  -3.170096  -1.302447
N    -1.033991  -3.235001  -2.587968
C    -1.144560  -4.326700  -3.450620
N    -2.377417  -4.973714  -3.399579
N    -0.237867  -4.765618  -4.254948
H    -3.122592  -1.730011  0.643170
H    -1.850964  -2.676205  1.414831
H    -0.229997  -1.909232  -0.396611
H    -1.548471  -1.025641  -1.168204
H    -2.816002  -3.148457  -1.473724
H    -1.525423  -4.064119  -0.683059
H    -0.083584  -2.878147  -2.552477
H    -2.464845  -5.639317  -4.161687
H    -3.190913  -4.372579  -3.308196
H    0.658678  -4.295527  -4.103291
N    -2.501737  -0.817102  3.945500
C    -1.519748  -1.775782  4.435097
H    -3.243072  -0.545015  4.583718
H    -1.395552  -2.623373  3.747906
H    -1.890823  -2.182955  5.382083
H    -0.536674  -1.321609  4.619359
