35
Energy: -21190.2748011 eV PBE+vdW (tier 2 basis)
C    -0.159048  -0.068564  -0.085057
C    -0.002906  -0.065412  1.426004
O    1.095702  -0.136871  1.970238
H    0.837306  -0.172647  -0.521920
H    -0.609433  0.865806  -0.449114
H    -0.791753  -0.897765  -0.430385
N    -1.151082  0.037499  2.175801
C    -2.536044  0.006555  1.709894
C    -3.323951  0.993686  2.599935
O    -3.940305  0.616015  3.594769
H    -0.995775  -0.043259  3.178401
H    -2.543031  0.374786  0.675079
C    -3.154814  -1.394358  1.736162
C    -4.511848  -1.460379  1.034588
C    -5.080868  -2.884462  1.024943
N    -6.351016  -3.024765  0.327423
C    -6.389682  -3.067330  -1.054497
N    -7.705852  -3.067221  -1.546794
N    -5.302338  -3.075816  -1.748959
H    -3.247059  -1.715718  2.784425
H    -2.447507  -2.080133  1.244487
H    -4.413317  -1.124458  -0.009035
H    -5.224141  -0.786893  1.536526
H    -5.223557  -3.242341  2.055657
H    -4.371218  -3.561027  0.530770
H    -7.148357  -2.572176  0.762560
H    -7.766321  -3.260014  -2.540868
H    -8.357506  -3.639479  -1.015011
H    -5.499193  -3.238969  -2.738970
N    -3.270697  2.312164  2.248476
C    -2.481197  2.923122  1.190929
H    -3.733382  2.924355  2.913138
H    -1.400848  2.783476  1.343777
H    -2.688953  3.998119  1.183378
H    -2.752664  2.530255  0.200776
