35
Energy: -21190.2826109 eV PBE+vdW (tier 2 basis)
C    -0.279512  -1.370209  0.505059
C    -0.137946  -0.655900  1.836421
O    0.924015  -0.170297  2.223636
H    0.370744  -2.255270  0.510530
H    0.085635  -0.707801  -0.289283
H    -1.308458  -1.678910  0.281870
N    -1.276881  -0.615496  2.594267
C    -1.336656  0.121910  3.846657
C    -0.652472  -0.480173  5.097576
O    -0.484767  0.270749  6.059283
H    -2.133138  -0.989023  2.185874
H    -0.779864  1.059742  3.703227
C    -2.795897  0.461251  4.200667
C    -3.631462  -0.741829  4.679142
C    -5.098506  -0.707289  4.233077
N    -5.278637  -0.712575  2.768979
C    -4.614709  -1.646077  1.974145
N    -4.631355  -2.940469  2.472619
N    -3.986629  -1.411192  0.865822
H    -3.243734  0.917320  3.303517
H    -2.779761  1.237765  4.974849
H    -3.593544  -0.808049  5.775924
H    -3.201277  -1.684617  4.310558
H    -5.604540  0.195830  4.602056
H    -5.640235  -1.558146  4.671636
H    -5.226085  0.214841  2.359835
H    -5.472919  -3.219888  2.965351
H    -4.314582  -3.618025  1.787015
H    -3.954783  -0.407337  0.666282
N    -0.295576  -1.795470  5.183463
C    -0.317346  -2.887150  4.219820
H    0.167188  -1.980978  6.068473
H    -1.305123  -3.011963  3.761513
H    -0.084674  -3.810796  4.762469
H    0.431061  -2.759679  3.424945
