35
Energy: -21190.001943 eV PBE+vdW (tier 2 basis)
C    -0.447238  1.295718  0.186421
C    -0.324326  0.840854  1.628509
O    0.754343  0.942603  2.217744
H    0.559737  1.547702  -0.156697
H    -0.871132  0.527616  -0.470509
H    -1.082076  2.187314  0.107658
N    -1.402570  0.319007  2.302322
C    -2.824064  0.045914  2.044708
C    -3.174421  -1.448736  2.211952
O    -4.141647  -1.768051  2.906409
H    -1.134563  0.125975  3.265143
H    -3.361118  0.532941  2.871240
C    -3.429383  0.625232  0.755644
C    -4.956418  0.478612  0.681357
C    -5.740948  1.278989  1.729356
N    -5.549761  2.724874  1.621876
C    -4.759144  3.417416  2.519394
N    -4.877135  4.808663  2.371729
N    -4.042393  2.794374  3.391950
H    -2.994516  0.155860  -0.137278
H    -3.176506  1.693703  0.712090
H    -5.245252  -0.578502  0.780924
H    -5.276153  0.799487  -0.322273
H    -5.465162  0.967610  2.745029
H    -6.812280  1.066743  1.606532
H    -6.334598  3.249891  1.256092
H    -4.167923  5.332425  2.873179
H    -4.970139  5.132829  1.412252
H    -3.460534  3.440346  3.928287
N    -2.431595  -2.409104  1.581842
C    -1.289965  -2.288330  0.689339
H    -2.762568  -3.344818  1.794827
H    -1.489714  -1.595139  -0.138124
H    -1.099219  -3.272825  0.248014
H    -0.379382  -1.959406  1.207885
