35
Energy: -21190.3093276 eV PBE+vdW (tier 2 basis)
C    -0.476132  0.904004  -0.680803
C    -0.265779  0.344647  0.709346
O    0.805747  0.496168  1.308246
H    0.492749  0.930082  -1.188635
H    -0.850377  1.933481  -0.599671
H    -1.190070  0.324831  -1.281229
N    -1.281480  -0.359359  1.286965
C    -2.683582  -0.399938  0.918343
C    -3.286662  1.004029  0.683606
O    -2.874112  2.004067  1.264203
H    -1.071564  -0.709597  2.230890
H    -2.810662  -1.000378  0.001690
C    -3.461247  -1.112861  2.051573
C    -3.637552  -0.341009  3.375126
C    -2.377322  0.190506  4.070532
N    -1.360518  -0.868720  4.231827
C    -0.134927  -0.558575  4.888847
N    0.545725  0.496068  4.324040
N    0.336946  -1.184393  5.913634
H    -2.948331  -2.069600  2.233062
H    -4.461462  -1.373610  1.677179
H    -4.177388  -1.011838  4.064354
H    -4.302381  0.520607  3.216176
H    -2.669594  0.614927  5.047726
H    -1.942551  1.009153  3.486806
H    -1.762461  -1.695245  4.672764
H    0.592610  0.537655  3.297542
H    1.447455  0.637002  4.767990
H    -0.354065  -1.832857  6.301927
N    -4.345550  1.070852  -0.179715
C    -4.906810  0.021633  -1.016459
H    -4.720369  2.009242  -0.275887
H    -4.174738  -0.376057  -1.735199
H    -5.736643  0.447788  -1.589951
H    -5.309741  -0.814093  -0.426994
