35
Energy: -21189.9956679 eV PBE+vdW (tier 2 basis)
C    -0.678562  0.203806  0.002300
C    -0.620223  0.526075  1.482663
O    -0.047283  1.527001  1.912347
H    -1.392478  0.890284  -0.472815
H    -0.987635  -0.826770  -0.212251
H    0.305828  0.388075  -0.441431
N    -1.254367  -0.363701  2.304169
C    -1.486992  -0.095022  3.726930
C    -2.071741  1.341817  3.875463
O    -3.149792  1.554655  3.318579
H    -1.835870  -1.066852  1.866230
H    -2.383438  -0.681599  3.974580
C    -0.370684  -0.625682  4.653450
C    1.078235  -0.508831  4.170898
C    2.095386  -0.895164  5.248868
N    1.958097  -2.268529  5.732118
C    1.465431  -2.536183  6.995688
N    1.594951  -3.893367  7.338608
N    0.985997  -1.596106  7.736620
H    -0.577197  -1.694181  4.820313
H    -0.486250  -0.166375  5.645166
H    1.305254  0.512191  3.839312
H    1.219122  -1.149105  3.285950
H    1.993862  -0.234661  6.121425
H    3.113427  -0.768309  4.852198
H    2.643602  -2.932380  5.393252
H    1.068986  -4.152673  8.166311
H    1.425443  -4.543101  6.574341
H    0.596998  -1.970322  8.604298
N    -1.526640  2.287891  4.698759
C    -0.134510  2.512812  5.071364
H    -2.110043  3.120148  4.680676
H    -0.066875  3.515563  5.507001
H    0.523896  2.467857  4.194103
H    0.212700  1.802005  5.831205
