35
Energy: -21190.1397745 eV PBE+vdW (tier 2 basis)
C    -1.039625  -3.712367  0.918585
C    -0.531329  -2.459342  1.599952
O    0.586501  -2.401631  2.108175
H    -0.173541  -4.332270  0.671735
H    -1.631683  -3.520023  0.017028
H    -1.681178  -4.275459  1.611706
N    -1.370443  -1.368650  1.685543
C    -2.708289  -1.144286  1.132609
C    -3.703753  -2.280498  1.475640
O    -4.329531  -2.878499  0.604409
H    -0.930257  -0.592293  2.170090
H    -3.081934  -0.251197  1.663783
C    -2.725103  -0.827802  -0.368137
C    -1.890394  0.403122  -0.724465
C    -1.893982  0.735331  -2.217073
N    -3.225760  1.085837  -2.680695
C    -3.499573  1.244507  -4.035763
N    -4.803192  1.704428  -4.257117
N    -2.720325  1.029870  -5.038128
H    -3.769198  -0.691890  -0.678252
H    -2.364823  -1.699524  -0.933177
H    -0.844617  0.251470  -0.418264
H    -2.247796  1.281434  -0.156246
H    -1.162049  1.541340  -2.415830
H    -1.559400  -0.146571  -2.785600
H    -3.731495  1.733156  -2.081726
H    -5.018048  1.699848  -5.250318
H    -5.515554  1.225042  -3.712305
H    -1.761135  0.841456  -4.738877
N    -3.872648  -2.578170  2.799289
C    -3.271057  -1.959896  3.969888
H    -4.527003  -3.339722  2.948755
H    -2.246273  -2.311323  4.156391
H    -3.887616  -2.201014  4.843170
H    -3.249075  -0.865740  3.878038
