35
Energy: -21190.6972038 eV PBE+vdW (tier 2 basis)
C    0.952737  -0.466057  0.102329
C    0.446302  -1.046612  1.410979
O    1.150459  -1.764707  2.123196
H    1.245265  -1.292301  -0.557727
H    1.854207  0.126298  0.302710
H    0.217408  0.163438  -0.413272
N    -0.829882  -0.699276  1.745388
C    -1.526430  -1.287026  2.873708
C    -3.032358  -1.049866  2.614613
O    -3.425066  -0.628850  1.520506
H    -1.460150  -0.290436  1.054415
H    -1.358686  -2.379201  2.864602
C    -1.028056  -0.764123  4.232172
C    -1.265923  0.729276  4.470639
C    -1.064223  1.138920  5.936520
N    -1.924321  0.407500  6.883491
C    -3.306647  0.411886  6.729206
N    -3.859414  1.678340  6.618649
N    -3.939658  -0.717870  6.672150
H    0.043001  -1.001371  4.298942
H    -1.518636  -1.361983  5.015888
H    -2.289177  1.007905  4.171409
H    -0.590036  1.323097  3.837598
H    -1.234677  2.218399  6.049736
H    -0.028102  0.955013  6.254099
H    -1.623593  -0.553175  7.028573
H    -3.404011  2.421848  7.137887
H    -4.870697  1.724812  6.629606
H    -4.952474  -0.581085  6.744529
N    -3.878006  -1.364637  3.623725
C    -5.307360  -1.150882  3.486616
H    -3.533966  -1.485539  4.577909
H    -5.575785  -0.085250  3.567754
H    -5.822956  -1.710890  4.274021
H    -5.642928  -1.507361  2.506625
