35
Energy: -21190.3139808 eV PBE+vdW (tier 2 basis)
C    -0.334601  0.207507  -0.395237
C    -0.814687  -0.232116  0.973786
O    -0.933281  -1.420379  1.273915
H    0.646394  -0.245089  -0.585013
H    -0.254468  1.295615  -0.507838
H    -1.026477  -0.181353  -1.152763
N    -1.085831  0.782211  1.853068
C    -1.641451  0.534845  3.177531
C    -3.140160  0.892130  3.145824
O    -3.497548  2.065951  3.028199
H    -1.120870  1.736151  1.508736
H    -1.486320  -0.535368  3.357319
C    -0.931377  1.352821  4.263499
C    0.553936  1.017257  4.395199
C    1.247959  1.865449  5.457485
N    2.670263  1.536419  5.519040
C    3.525941  2.097910  6.459326
N    3.239016  3.428258  6.776127
N    4.462298  1.366373  6.960883
H    -1.448236  1.166914  5.218379
H    -1.075472  2.423150  4.047894
H    1.061540  1.164317  3.430087
H    0.670361  -0.050418  4.647234
H    0.751661  1.726972  6.437194
H    1.126887  2.928135  5.194267
H    2.871653  0.541752  5.443066
H    3.980861  3.900277  7.280378
H    2.861162  3.995678  6.022706
H    5.101195  1.918098  7.539261
N    -4.033724  -0.130846  3.225719
C    -3.771921  -1.563089  3.313794
H    -5.001066  0.178331  3.203597
H    -3.523115  -1.879150  4.338675
H    -2.960690  -1.860393  2.637400
H    -4.677900  -2.097424  3.007013
