35
Energy: -21190.0990898 eV PBE+vdW (tier 2 basis)
C    -0.432223  -0.528825  0.043056
C    -0.338629  -0.034627  1.475527
O    0.702489  0.466769  1.906115
H    0.310715  -1.323767  -0.098851
H    -0.159773  0.293888  -0.629360
H    -1.420001  -0.912265  -0.240320
N    -1.483158  -0.173921  2.206455
C    -1.742171  0.072515  3.633523
C    -2.562001  1.339031  3.981401
O    -3.292812  1.282512  4.971180
H    -2.263711  -0.589276  1.711924
H    -2.444505  -0.723024  3.916923
C    -0.527959  -0.079232  4.578918
C    0.287178  1.186169  4.881821
C    1.680627  0.869343  5.423882
N    2.461849  0.186226  4.397246
C    3.821192  -0.053665  4.481262
N    4.334767  -0.040040  5.780674
N    4.628529  -0.267561  3.494933
H    0.123112  -0.862061  4.168438
H    -0.925718  -0.468384  5.526628
H    -0.247786  1.807331  5.614052
H    0.412478  1.791750  3.974616
H    1.585778  0.232590  6.322515
H    2.171605  1.803350  5.748013
H    2.110019  0.307461  3.448911
H    5.281877  -0.406223  5.792233
H    3.744648  -0.455243  6.495421
H    4.153561  -0.125349  2.599232
N    -2.486174  2.477882  3.234977
C    -1.637605  2.846596  2.110959
H    -3.104337  3.196102  3.601268
H    -1.551584  3.939059  2.093071
H    -2.055970  2.520833  1.146382
H    -0.626540  2.437595  2.210039
