35
Energy: -21190.4797653 eV PBE+vdW (tier 2 basis)
C    0.538655  -0.776913  -0.043764
C    0.249844  -0.685131  1.442154
O    1.019620  -1.132634  2.292725
H    -0.252422  -0.351458  -0.673084
H    0.683649  -1.831230  -0.309626
H    1.480620  -0.254527  -0.252592
N    -0.919056  -0.061517  1.774426
C    -1.365861  0.035175  3.148713
C    -2.895072  0.085802  3.111262
O    -3.485828  0.470676  2.090725
H    -1.601354  0.210898  1.071500
H    -1.010198  -0.865545  3.671500
C    -0.751201  1.268638  3.871885
C    -1.244445  2.628247  3.354692
C    -2.466037  3.167907  4.119916
N    -3.138703  4.260448  3.439312
C    -4.476083  4.260587  3.076450
N    -5.029887  2.995856  2.864106
N    -5.085225  5.398282  2.998177
H    0.333845  1.168312  3.740381
H    -0.929943  1.183687  4.955676
H    -1.500094  2.561037  2.287323
H    -0.430462  3.364927  3.418999
H    -2.148701  3.490447  5.127272
H    -3.203119  2.372085  4.281732
H    -2.825823  5.202790  3.646985
H    -5.950744  3.033653  2.442466
H    -4.440472  2.280816  2.431625
H    -6.020952  5.290763  2.599649
N    -3.584733  -0.261260  4.226894
C    -3.069408  -0.666927  5.523677
H    -4.584587  -0.095049  4.146422
H    -3.794760  -1.333785  6.003723
H    -2.891138  0.191782  6.188803
H    -2.131159  -1.220446  5.410543
