35
Energy: -21189.8452359 eV PBE+vdW (tier 2 basis)
C    -0.178527  0.643731  0.662744
C    -0.314151  0.294128  2.131367
O    0.676542  0.280866  2.861801
H    -0.520831  -0.166218  0.007138
H    0.882541  0.826799  0.474618
H    -0.748430  1.544718  0.405250
N    -1.544148  0.004092  2.685205
C    -2.925872  -0.198216  2.228925
C    -3.420845  -1.631155  2.547334
O    -4.474158  -1.778107  3.170333
H    -1.426112  -0.172721  3.681187
H    -3.558192  0.408212  2.895126
C    -3.270183  0.257701  0.800010
C    -4.772969  0.167012  0.476111
C    -5.207015  -1.176194  -0.133445
N    -6.644787  -1.282868  -0.376342
C    -7.317456  -0.476981  -1.295503
N    -6.577487  -0.182089  -2.443169
N    -8.513658  -0.010331  -1.185222
H    -2.702464  -0.306565  0.046367
H    -2.948992  1.303710  0.707942
H    -5.029261  0.958827  -0.241340
H    -5.366999  0.357514  1.382649
H    -4.939382  -2.012672  0.524006
H    -4.665953  -1.339555  -1.077366
H    -7.184381  -1.424232  0.472503
H    -7.169384  0.265709  -3.136927
H    -6.052680  -0.961860  -2.829762
H    -8.892047  -0.172522  -0.247817
N    -2.698062  -2.714145  2.135599
C    -1.460426  -2.789215  1.374306
H    -3.110896  -3.588697  2.444915
H    -0.582448  -2.488201  1.961760
H    -1.504836  -2.173709  0.467306
H    -1.321915  -3.827503  1.054041
