35
Energy: -21190.0210034 eV PBE+vdW (tier 2 basis)
C    -0.072156  0.838726  0.358124
C    -0.052434  0.670165  1.865563
O    0.816429  1.190927  2.559757
H    0.945291  0.707953  -0.026565
H    -0.384121  1.867714  0.134602
H    -0.747239  0.146617  -0.160295
N    -1.054852  -0.113816  2.368557
C    -1.424673  -0.282932  3.769436
C    -2.199390  0.960089  4.272827
O    -2.092572  2.061247  3.747708
H    -1.767389  -0.386162  1.702486
H    -2.154215  -1.105523  3.744189
C    -0.264690  -0.758528  4.708583
C    0.171574  0.150582  5.877221
C    1.400364  1.024033  5.611839
N    2.572687  0.192050  5.347544
C    3.724307  0.647232  4.695923
N    3.505303  1.614049  3.733741
N    4.927655  0.225972  4.922017
H    0.614044  -0.966322  4.085442
H    -0.575571  -1.727575  5.121017
H    0.384607  -0.492592  6.747449
H    -0.644637  0.812839  6.199945
H    1.561952  1.687388  6.482340
H    1.214035  1.662431  4.745304
H    2.812045  -0.424555  6.119197
H    4.339999  1.781515  3.183161
H    2.645083  1.541528  3.189889
H    4.954210  -0.389619  5.739845
N    -3.059706  0.751182  5.321079
C    -3.282164  -0.460209  6.091679
H    -3.506008  1.605623  5.640388
H    -4.218725  -0.352406  6.649544
H    -2.475505  -0.665563  6.812811
H    -3.391239  -1.336001  5.438459
