35
Energy: -21190.081919 eV PBE+vdW (tier 2 basis)
C    -1.187249  2.080946  1.807618
C    -0.219550  0.914730  1.816137
O    0.911766  0.994232  2.292224
H    -0.673283  2.952422  2.220303
H    -2.077529  1.865610  2.415813
H    -1.537712  2.312280  0.792217
N    -0.662441  -0.264734  1.267254
C    -1.993393  -0.576743  0.776200
C    -3.130577  -0.710191  1.821742
O    -4.282377  -0.496390  1.444591
H    0.022606  -1.012617  1.323159
H    -2.343960  0.262319  0.158517
C    -1.969879  -1.811699  -0.145013
C    -1.559386  -3.132202  0.513184
C    -1.583546  -4.290208  -0.483949
N    -1.143740  -5.528372  0.139159
C    -1.533563  -6.749429  -0.389166
N    -1.004393  -7.847992  0.298808
N    -2.376136  -6.801201  -1.362963
H    -1.296367  -1.586819  -0.986851
H    -2.979833  -1.914188  -0.565779
H    -2.235055  -3.371852  1.348183
H    -0.543369  -3.053655  0.941422
H    -0.971751  -4.042473  -1.371602
H    -2.600492  -4.470011  -0.854458
H    -0.216412  -5.503391  0.550664
H    -0.887451  -8.683694  -0.261678
H    -0.222920  -7.678984  0.924152
H    -2.662356  -7.765038  -1.549580
N    -2.876297  -1.043841  3.122874
C    -1.653568  -1.443872  3.810130
H    -3.735325  -1.074851  3.663815
H    -1.941348  -1.847650  4.787254
H    -0.963736  -0.606450  3.977503
H    -1.118400  -2.238123  3.275699
