35
Energy: -21190.4472657 eV PBE+vdW (tier 2 basis)
C    0.905390  -2.665388  0.282443
C    1.465918  -1.571946  1.173142
O    2.526974  -1.683502  1.774094
H    -0.128175  -2.488848  -0.041039
H    0.958950  -3.620135  0.817893
H    1.542675  -2.753495  -0.607396
N    0.691229  -0.435155  1.273848
C    1.182711  0.773965  1.926994
C    1.189735  0.684998  3.464033
O    1.961831  1.387188  4.123045
H    -0.101829  -0.338858  0.648565
H    2.240904  0.917377  1.663260
C    0.353609  1.972807  1.413035
C    0.594218  3.312422  2.128690
C    -0.400439  3.566644  3.276617
N    -0.079697  4.730944  4.078853
C    0.329841  4.726624  5.406820
N    0.735554  3.491604  5.895571
N    0.333407  5.752230  6.195604
H    -0.717952  1.711661  1.484326
H    0.576456  2.073391  0.340543
H    0.506328  4.132378  1.400901
H    1.615942  3.354835  2.528507
H    -0.448574  2.699973  3.947635
H    -1.414827  3.678564  2.854749
H    -0.411595  5.627954  3.749238
H    1.145153  3.598897  6.818000
H    1.285259  2.885194  5.282418
H    -0.106704  6.563652  5.752777
N    0.270047  -0.134495  4.021473
C    0.169211  -0.314995  5.460761
H    -0.228739  -0.760419  3.399716
H    -0.038199  0.643507  5.953988
H    1.102537  -0.721298  5.875189
H    -0.650147  -1.009279  5.672703
