35
Energy: -21190.1823596 eV PBE+vdW (tier 2 basis)
C    -1.586733  -0.441158  0.421452
C    -2.077548  -1.447112  1.440280
O    -2.429303  -2.576382  1.104794
H    -1.048482  -0.990270  -0.357148
H    -0.946451  0.348492  0.822893
H    -2.458145  0.036865  -0.048146
N    -2.196550  -1.067673  2.759946
C    -1.749235  0.114884  3.498036
C    -2.030375  1.453530  2.784633
O    -1.169608  2.326678  2.650758
H    -2.526941  -1.842278  3.330261
H    -2.424124  0.160146  4.373181
C    -0.329684  -0.018089  4.094621
C    0.848229  -0.411884  3.194130
C    1.487510  0.694861  2.331738
N    1.733502  1.952330  3.013545
C    2.730101  2.072827  3.954243
N    2.689014  3.310549  4.622738
N    3.561349  1.108065  4.176715
H    -0.414210  -0.790503  4.874547
H    -0.098751  0.915418  4.628619
H    0.568585  -1.252136  2.538914
H    1.637205  -0.793101  3.856531
H    0.862866  0.934984  1.462602
H    2.448092  0.319528  1.954945
H    0.895562  2.514517  3.143003
H    3.535109  3.513765  5.144227
H    2.414679  4.096457  4.037827
H    4.296897  1.400287  4.824259
N    -3.307691  1.680354  2.363173
C    -4.497692  0.856457  2.508643
H    -3.414219  2.588516  1.922011
H    -5.376602  1.505320  2.422347
H    -4.534219  0.378428  3.495511
H    -4.566627  0.069640  1.744340
