35
Energy: -21190.4075432 eV PBE+vdW (tier 2 basis)
C    0.962964  1.664483  1.741150
C    0.242318  0.343378  1.917928
O    0.805690  -0.723538  1.627862
H    1.940583  1.601930  2.233108
H    0.415890  2.531016  2.131084
H    1.145492  1.817115  0.668907
N    -1.029155  0.433412  2.389477
C    -2.067340  -0.599908  2.605364
C    -1.733800  -1.775921  3.560582
O    -2.645602  -2.229134  4.254773
H    -1.334583  1.372380  2.614519
H    -2.844500  -0.068756  3.169284
C    -2.760682  -1.118800  1.320911
C    -1.902866  -1.910746  0.322602
C    -1.247835  -1.026819  -0.762266
N    -0.020574  -1.554210  -1.325705
C    -0.021386  -2.566698  -2.276822
N    1.262323  -3.071607  -2.512827
N    -1.018234  -3.060602  -2.929224
H    -3.229742  -0.258725  0.814900
H    -3.588476  -1.743868  1.684047
H    -2.523804  -2.677607  -0.160647
H    -1.113369  -2.459114  0.852804
H    -1.013726  -0.037071  -0.348121
H    -1.957259  -0.842093  -1.583219
H    0.743927  -1.591855  -0.654599
H    1.262270  -3.686063  -3.321747
H    1.993390  -2.367287  -2.564416
H    -1.911617  -2.708609  -2.578942
N    -0.473019  -2.259330  3.557753
C    -0.101119  -3.394666  4.381998
H    0.181599  -1.885512  2.860620
H    -0.511839  -3.276134  5.391823
H    0.991354  -3.449840  4.437334
H    -0.486307  -4.341135  3.973075
