35
Energy: -21190.28172 eV PBE+vdW (tier 2 basis)
C    -0.899767  1.373242  0.269150
C    -0.875633  1.452404  1.786053
O    -0.253789  2.324560  2.384831
H    -0.264232  2.174982  -0.115115
H    -1.915263  1.505303  -0.130168
H    -0.520820  0.408712  -0.095983
N    -1.598787  0.507724  2.477974
C    -2.280546  -0.671532  1.948066
C    -3.588034  -0.837159  2.755642
O    -3.694743  -1.663350  3.666761
H    -1.470413  0.555469  3.486638
H    -2.546314  -0.453190  0.903763
C    -1.420102  -1.936090  2.000942
C    -2.063633  -3.136100  1.304035
C    -1.357838  -4.467203  1.601439
N    -1.114266  -4.739279  3.024158
C    -2.086740  -5.303220  3.856304
N    -3.335714  -4.696350  3.776004
N    -1.746686  -6.313270  4.586283
H    -1.221464  -2.189806  3.051575
H    -0.446275  -1.702495  1.543447
H    -2.059944  -2.992765  0.210882
H    -3.119443  -3.222302  1.595463
H    -0.365596  -4.455229  1.127721
H    -1.930319  -5.284418  1.127870
H    -0.248014  -5.246431  3.182131
H    -4.002637  -5.054029  4.450913
H    -3.346553  -3.674289  3.728841
H    -2.478291  -6.538623  5.266765
N    -4.615768  -0.001544  2.444331
C    -4.630985  1.083077  1.475504
H    -5.420779  -0.108747  3.053826
H    -3.932724  1.888530  1.743764
H    -5.642726  1.499684  1.441877
H    -4.389021  0.726031  0.464658
