35
Energy: -21190.4579431 eV PBE+vdW (tier 2 basis)
C    -0.108183  0.081594  -0.005120
C    -0.089480  0.053549  1.510937
O    0.977123  0.083165  2.137028
H    -1.114887  0.079941  -0.440351
H    0.440345  -0.793225  -0.376410
H    0.429870  0.973993  -0.347396
N    -1.310897  -0.003902  2.111683
C    -1.591044  -0.112778  3.553260
C    -1.288109  1.177500  4.361886
O    -2.187147  1.718665  5.008469
H    -2.119794  0.038989  1.504947
H    -2.682450  -0.198778  3.626557
C    -0.961978  -1.370508  4.182937
C    -1.311963  -1.527767  5.663053
C    -0.753218  -2.830501  6.248293
N    -1.003001  -2.998034  7.671489
C    -0.182938  -2.386144  8.602558
N    -0.594520  -2.582386  9.928344
N    0.896171  -1.785689  8.229585
H    0.129168  -1.339710  4.060250
H    -1.319738  -2.241714  3.609575
H    -2.406306  -1.498189  5.798908
H    -0.899141  -0.687572  6.238994
H    0.336274  -2.857075  6.117592
H    -1.177177  -3.701408  5.724070
H    -1.972257  -3.124161  7.940245
H    -0.304924  -1.848348  10.564365
H    -1.560906  -2.858336  10.075196
H    1.450389  -1.492570  9.036939
N    0.000427  1.592674  4.327491
C    0.466844  2.751687  5.060815
H    0.639016  1.079689  3.710065
H    1.232832  2.468318  5.796724
H    -0.388116  3.188954  5.587319
H    0.893625  3.503309  4.381632
