35
Energy: -21190.5003054 eV PBE+vdW (tier 2 basis)
C    -3.041613  0.642552  0.339430
C    -1.993792  0.586883  1.434392
O    -0.895936  1.140135  1.295797
H    -2.624557  0.182293  -0.565175
H    -3.250114  1.693542  0.104813
H    -3.981563  0.137603  0.593238
N    -2.350901  -0.102871  2.553608
C    -1.515618  -0.378239  3.734930
C    -1.243086  0.864086  4.625271
O    -1.586797  0.854962  5.808595
H    -3.296439  -0.462312  2.585530
H    -2.134542  -1.013206  4.381170
C    -0.231542  -1.151767  3.379672
C    0.609872  -1.503443  4.607204
C    1.828746  -2.354966  4.231909
N    2.711924  -2.666179  5.347232
C    3.637472  -1.730644  5.780780
N    4.277213  -2.133699  6.965075
N    3.818835  -0.628809  5.137123
H    0.370618  -0.563920  2.673643
H    -0.535173  -2.068834  2.847948
H    -0.005544  -2.039942  5.348864
H    0.966361  -0.585847  5.095786
H    2.436124  -1.821051  3.489738
H    1.506988  -3.306668  3.780572
H    2.299364  -3.220615  6.091104
H    5.068930  -1.551557  7.216399
H    4.512228  -3.122630  7.004804
H    4.614446  -0.108158  5.512907
N    -0.582142  1.878006  4.017208
C    -0.207794  3.092542  4.712496
H    -0.402582  1.780827  3.012218
H    -0.685301  3.972903  4.258771
H    0.882007  3.234426  4.692518
H    -0.536956  3.004402  5.753283
