35
Energy: -21190.2350451 eV PBE+vdW (tier 2 basis)
C    -0.071438  0.747646  0.063690
C    -0.178296  0.648256  1.570473
O    0.747435  0.937469  2.325018
H    -0.660285  1.597067  -0.310202
H    -0.451557  -0.148004  -0.445171
H    0.979434  0.903302  -0.192922
N    -1.381117  0.219811  2.087537
C    -2.603739  -0.134597  1.379572
C    -3.268185  1.021078  0.586164
O    -3.540057  0.842965  -0.602190
H    -1.386689  0.176037  3.102985
H    -2.372858  -0.861018  0.585928
C    -3.577034  -0.793158  2.372975
C    -4.969180  -1.061830  1.803691
C    -5.959392  -1.609120  2.849401
N    -6.085124  -0.830239  4.073849
C    -6.599034  0.458502  4.097237
N    -6.369825  1.103590  5.320727
N    -7.210174  1.097706  3.159859
H    -3.670407  -0.141819  3.256029
H    -3.116797  -1.732149  2.722011
H    -4.913111  -1.780147  0.971887
H    -5.370087  -0.134789  1.370794
H    -5.662053  -2.622665  3.154542
H    -6.955269  -1.707484  2.391428
H    -5.383499  -1.016783  4.781944
H    -6.901770  1.968587  5.366585
H    -6.527983  0.525129  6.142232
H    -7.223431  0.572988  2.283549
N    -3.535569  2.210235  1.198804
C    -3.487814  2.571214  2.609519
H    -4.017299  2.853569  0.576831
H    -4.352298  2.187704  3.172202
H    -3.494358  3.664407  2.683854
H    -2.560047  2.218886  3.071657
