35
Energy: -21190.56058 eV PBE+vdW (tier 2 basis)
C    1.222386  1.042495  0.201897
C    0.922521  0.555525  1.606525
O    1.786833  0.504966  2.479271
H    1.552739  2.088094  0.255571
H    0.366517  0.973025  -0.480563
H    2.056860  0.457656  -0.203114
N    -0.393638  0.238172  1.842708
C    -0.810998  -0.460670  3.050563
C    -1.479490  -1.769711  2.593308
O    -2.039575  -1.850771  1.498627
H    -0.989092  0.024555  1.041757
H    0.104846  -0.671256  3.624969
C    -1.802145  0.351570  3.919661
C    -1.193422  1.444349  4.806587
C    -0.458456  2.593223  4.091620
N    -1.171504  3.196585  2.973786
C    -2.276923  3.996814  3.178071
N    -2.899792  4.356338  1.967807
N    -2.659927  4.316690  4.368382
H    -2.337788  -0.352896  4.574488
H    -2.570151  0.778095  3.255725
H    -0.483353  0.989475  5.516687
H    -2.007403  1.879311  5.402910
H    0.513094  2.251757  3.712682
H    -0.267488  3.387279  4.824738
H    -1.191836  2.635880  2.127694
H    -3.606846  5.075543  2.078111
H    -2.254279  4.583774  1.214993
H    -3.412938  5.008014  4.338485
N    -1.431951  -2.787681  3.492848
C    -2.080741  -4.067927  3.277447
H    -0.917512  -2.638157  4.352777
H    -2.853752  -4.255760  4.035747
H    -1.351473  -4.889123  3.300077
H    -2.551100  -4.037228  2.289323
