35
Energy: -21190.5558523 eV PBE+vdW (tier 2 basis)
C    0.282648  0.080069  -0.190439
C    0.094431  0.562832  1.235464
O    0.522367  1.649577  1.625085
H    1.356104  0.057036  -0.415094
H    -0.178253  0.805698  -0.872079
H    -0.145725  -0.911562  -0.380522
N    -0.587213  -0.288396  2.056786
C    -0.800978  -0.006253  3.461434
C    -1.007679  -1.354307  4.158714
O    -1.496673  -2.318542  3.553124
H    -0.877935  -1.213527  1.750284
H    0.105237  0.486504  3.848239
C    -1.986556  0.970832  3.701782
C    -3.345507  0.553193  3.103339
C    -4.401307  0.118787  4.122282
N    -3.984683  -1.081586  4.835469
C    -4.644486  -1.636628  5.919499
N    -5.454266  -0.757865  6.635777
N    -4.566941  -2.867681  6.308827
H    -1.665581  1.927624  3.270444
H    -2.084950  1.133070  4.786730
H    -3.204689  -0.248967  2.362051
H    -3.767938  1.396004  2.539211
H    -5.369761  -0.025306  3.608420
H    -4.550977  0.939501  4.841394
H    -3.499782  -1.770017  4.263170
H    -5.117544  0.194191  6.735722
H    -5.750444  -1.172641  7.513774
H    -4.058753  -3.435218  5.624889
N    -0.652930  -1.395038  5.462133
C    -0.924053  -2.534655  6.324726
H    -0.296342  -0.544321  5.881364
H    -1.871272  -2.417583  6.870173
H    -0.101247  -2.662325  7.037753
H    -0.997321  -3.428499  5.697076
