35
Energy: -21190.3086569 eV PBE+vdW (tier 2 basis)
C    0.864857  -0.576309  0.934034
C    0.076179  -0.758641  2.214497
O    0.454950  -1.513964  3.111696
H    1.082000  -1.562139  0.506846
H    1.825965  -0.108900  1.189382
H    0.360071  0.043718  0.183054
N    -1.047862  0.012067  2.334072
C    -1.984049  -0.114033  3.458641
C    -3.277032  0.667900  3.183886
O    -4.352103  0.276758  3.623312
H    -1.416887  0.412335  1.478093
H    -2.302268  -1.163657  3.545340
C    -1.398760  0.287908  4.837635
C    -0.754097  1.678247  4.948695
C    0.758297  1.715370  4.693607
N    1.492091  0.992719  5.731109
C    2.745706  0.405104  5.520354
N    2.889587  -0.221583  4.289532
N    3.724067  0.393460  6.363878
H    -0.665166  -0.472153  5.134335
H    -2.238781  0.202424  5.540868
H    -0.939133  2.070452  5.961408
H    -1.239121  2.405105  4.277571
H    1.088469  2.770347  4.636225
H    1.007354  1.264006  3.728733
H    1.448563  1.443580  6.640737
H    3.766237  -0.733131  4.258861
H    2.092897  -0.782338  3.975353
H    3.533467  1.008932  7.160034
N    -3.153046  1.810787  2.433643
C    -4.288487  2.690571  2.207068
H    -2.223351  2.195551  2.304452
H    -4.153690  3.234250  1.264955
H    -4.421354  3.414125  3.025897
H    -5.192937  2.076921  2.148285
