35
Energy: -21190.5493389 eV PBE+vdW (tier 2 basis)
C    0.113353  -2.735558  -0.532612
C    -0.225708  -1.886371  0.676922
O    0.171393  -0.733770  0.805296
H    -0.433924  -2.342392  -1.399787
H    -0.136529  -3.797218  -0.412203
H    1.182876  -2.636152  -0.749057
N    -1.005423  -2.508247  1.630938
C    -1.599143  -1.773015  2.741234
C    -1.097103  -2.246092  4.124729
O    -1.743091  -2.018810  5.153699
H    -1.390985  -3.419335  1.406069
H    -1.218112  -0.744312  2.624824
C    -3.130293  -1.748342  2.688648
C    -3.803746  -3.129744  2.835128
C    -5.053198  -3.089744  3.718606
N    -4.685840  -2.745395  5.075927
C    -5.574058  -2.169723  5.960963
N    -4.953811  -1.665936  7.106133
N    -6.861922  -2.108504  5.862396
H    -3.434716  -1.268223  1.748809
H    -3.466649  -1.091743  3.501568
H    -3.102835  -3.856141  3.282054
H    -4.081677  -3.535418  1.852061
H    -5.558236  -4.071123  3.680201
H    -5.770063  -2.348299  3.318163
H    -3.692138  -2.588459  5.248329
H    -4.050609  -1.222943  6.963160
H    -5.595299  -1.104344  7.656196
H    -7.197163  -2.614782  5.040165
N    0.099142  -2.880005  4.122621
C    0.775279  -3.302232  5.334069
H    0.556884  -2.991991  3.224600
H    1.071290  -4.357188  5.266168
H    0.077999  -3.176528  6.168747
H    1.670053  -2.692925  5.525235
