35
Energy: -21190.5174024 eV PBE+vdW (tier 2 basis)
C    -2.648054  -0.707873  1.279407
C    -1.910179  0.101506  2.325825
O    -1.849901  1.328710  2.295577
H    -2.540290  -0.216646  0.307320
H    -3.716595  -0.720782  1.538537
H    -2.300769  -1.746549  1.212418
N    -1.384863  -0.635630  3.363029
C    -0.489521  -0.036521  4.341420
C    0.674194  -1.032649  4.517047
O    0.559815  -2.212636  4.179195
H    -1.180191  -1.627079  3.215291
H    -0.117348  0.907893  3.910186
C    -1.153036  0.269572  5.704585
C    -2.162705  1.428228  5.706773
C    -3.595926  1.075955  5.280254
N    -4.211452  0.065222  6.133615
C    -4.800413  -1.117016  5.704480
N    -4.369182  -1.566172  4.458680
N    -5.682961  -1.807600  6.347909
H    -0.348915  0.509671  6.416492
H    -1.628647  -0.646692  6.088979
H    -1.802914  2.242653  5.059652
H    -2.206646  1.837653  6.728763
H    -3.626767  0.722362  4.245938
H    -4.200797  1.997982  5.296060
H    -4.586626  0.399448  7.013576
H    -4.697229  -2.512246  4.291652
H    -3.379945  -1.438242  4.253531
H    -6.010914  -1.310124  7.180355
N    1.799415  -0.519600  5.078122
C    2.973520  -1.320039  5.375976
H    1.818830  0.470882  5.290089
H    3.854706  -0.941376  4.840670
H    2.769100  -2.343317  5.045622
H    3.186207  -1.327947  6.453978
