35
Energy: -21190.2084196 eV PBE+vdW (tier 2 basis)
C    -0.226202  -0.021067  -0.483799
C    0.041405  0.021365  1.007119
O    1.170494  0.151854  1.476958
H    -0.811211  0.851157  -0.808363
H    -0.798381  -0.913719  -0.772080
H    0.735566  -0.020750  -1.002511
N    -1.048219  -0.095512  1.837219
C    -2.453935  -0.117796  1.466579
C    -3.024479  1.193889  0.877785
O    -3.824525  1.128099  -0.054890
H    -0.806944  -0.041672  2.822966
H    -2.593652  -0.826771  0.638529
C    -3.324146  -0.583323  2.650342
C    -2.984965  -1.975446  3.197299
C    -3.142189  -3.100757  2.165090
N    -2.948269  -4.437827  2.706765
C    -3.941791  -5.035995  3.462820
N    -3.524999  -6.261277  4.007892
N    -5.083753  -4.459841  3.625783
H    -4.369701  -0.565131  2.310449
H    -3.255005  0.154304  3.466382
H    -3.662277  -2.189451  4.035289
H    -1.959393  -1.994587  3.600881
H    -2.426206  -2.979156  1.339209
H    -4.154061  -3.069140  1.739353
H    -2.000599  -4.671524  2.984541
H    -4.276722  -6.793065  4.433360
H    -2.965772  -6.836988  3.382911
H    -5.747526  -5.079130  4.096048
N    -2.649037  2.401182  1.396846
C    -1.793427  2.725231  2.530141
H    -3.095695  3.175100  0.914936
H    -2.051690  2.137201  3.420780
H    -1.954297  3.779209  2.782911
H    -0.726066  2.583717  2.311653
