35
Energy: -21190.9054538 eV PBE+vdW (tier 2 basis)
C    -0.698495  -0.276968  0.011346
C    -0.661550  -0.372621  1.523068
O    0.238118  -0.998173  2.111993
H    0.268334  0.105835  -0.338888
H    -1.503612  0.370333  -0.355894
H    -0.819102  -1.284443  -0.407858
N    -1.665913  0.263539  2.170092
C    -1.726984  0.346019  3.627641
C    -2.379039  -0.934782  4.223216
O    -3.494839  -0.935209  4.743903
H    -2.416237  0.729801  1.622204
H    -0.682912  0.372739  3.982059
C    -2.463161  1.598735  4.102584
C    -1.809954  2.937295  3.727706
C    -2.077533  3.457988  2.305760
N    -3.491294  3.667135  2.016777
C    -4.242041  2.819319  1.248388
N    -5.539658  3.283504  1.014281
N    -3.739261  1.723234  0.767846
H    -2.525599  1.527858  5.196720
H    -3.507092  1.565708  3.759168
H    -0.717404  2.876888  3.863123
H    -2.161008  3.703370  4.437242
H    -1.681423  2.772786  1.547855
H    -1.558435  4.418425  2.170888
H    -3.868099  4.592298  2.173945
H    -6.168333  2.577786  0.646867
H    -5.965502  3.797316  1.780999
H    -4.443166  1.180447  0.266036
N    -1.581721  -2.028707  4.101368
C    -2.017712  -3.356204  4.481330
H    -0.723004  -1.904400  3.552581
H    -2.936292  -3.258587  5.070100
H    -1.251472  -3.857021  5.088439
H    -2.229685  -3.982565  3.600916
