35
Energy: -21190.2091816 eV PBE+vdW (tier 2 basis)
C    -0.214899  0.755110  0.373457
C    0.108319  -0.406025  1.292908
O    1.260672  -0.818377  1.437600
H    -0.712046  1.570676  0.917246
H    -0.870340  0.451922  -0.454429
H    0.725727  1.121947  -0.044644
N    -0.923917  -1.008454  1.963856
C    -2.349370  -0.739187  1.906439
C    -2.810978  -0.226484  3.285672
O    -2.255258  -0.606154  4.313022
H    -0.627427  -1.596026  2.742387
H    -2.526945  0.017756  1.132915
C    -3.148762  -2.029838  1.576611
C    -3.289999  -2.416727  0.093785
C    -2.029900  -2.461732  -0.775994
N    -0.973437  -3.286789  -0.214621
C    0.177847  -3.551910  -0.972463
N    1.328690  -3.601186  -0.194818
N    0.235261  -3.807060  -2.235474
H    -4.164171  -1.933612  1.990602
H    -2.686631  -2.848594  2.149110
H    -3.987632  -1.715134  -0.391694
H    -3.774595  -3.404355  0.063495
H    -1.675713  -1.432734  -0.984949
H    -2.317690  -2.875943  -1.751987
H    -0.746509  -3.035194  0.743383
H    2.151301  -3.772493  -0.764931
H    1.456917  -2.827867  0.460244
H    -0.700177  -3.876515  -2.643969
N    -3.884155  0.616002  3.307449
C    -4.619242  1.151569  2.172542
H    -4.177904  0.881094  4.242307
H    -3.982670  1.763580  1.516316
H    -5.417101  1.797592  2.552592
H    -5.091075  0.362449  1.568525
