35
Energy: -21189.895668 eV PBE+vdW (tier 2 basis)
C    -0.876576  -0.635453  -0.984446
C    -0.205851  -0.607427  0.378226
O    1.017303  -0.635649  0.490035
H    -1.439325  -1.568021  -1.126721
H    -0.091458  -0.576725  -1.742547
H    -1.568354  0.205971  -1.124529
N    -1.006227  -0.561258  1.492050
C    -2.460379  -0.494988  1.608130
C    -3.136198  -1.716752  0.923488
O    -2.813046  -2.836741  1.314263
H    -0.487532  -0.600885  2.368475
H    -2.653986  -0.745384  2.657037
C    -3.025737  0.930140  1.408352
C    -2.394510  1.971279  2.346141
C    -2.951901  2.037555  3.780725
N    -3.035446  0.767548  4.493218
C    -1.912622  0.063614  4.912151
N    -2.241264  -1.104163  5.599680
N    -0.672244  0.361166  4.716736
H    -4.115666  0.904904  1.565847
H    -2.862126  1.264963  0.375655
H    -2.546384  2.973392  1.917622
H    -1.306380  1.820050  2.356648
H    -3.979690  2.424736  3.742100
H    -2.361507  2.778931  4.351592
H    -3.854530  0.645702  5.078361
H    -2.992279  -1.655408  5.192771
H    -1.413367  -1.661238  5.790450
H    -0.562807  1.309486  4.351349
N    -4.119238  -1.599462  -0.027107
C    -4.601607  -0.485673  -0.830765
H    -4.457854  -2.520807  -0.289057
H    -5.235343  -0.899396  -1.622592
H    -3.786557  0.064407  -1.317710
H    -5.210800  0.223040  -0.253739
