35
Energy: -21190.3444177 eV PBE+vdW (tier 2 basis)
C    -1.516888  -0.441167  -1.257880
C    -0.410244  -0.182086  -0.256493
O    0.770741  -0.409200  -0.519367
H    -1.152291  -1.177564  -1.979632
H    -1.731042  0.490650  -1.801535
H    -2.455951  -0.783246  -0.807942
N    -0.745726  0.354110  0.965111
C    -2.046822  0.695495  1.548667
C    -2.967572  -0.535571  1.685923
O    -4.035269  -0.639166  1.080535
H    0.072930  0.526530  1.541434
H    -1.809947  1.026769  2.574157
C    -2.780483  1.860327  0.869394
C    -1.903011  3.086875  0.606310
C    -1.226110  3.716602  1.834113
N    -2.141178  4.151503  2.879519
C    -2.326269  3.460178  4.054013
N    -3.305501  4.045994  4.867310
N    -1.667945  2.375619  4.315199
H    -3.626620  2.128680  1.519462
H    -3.235607  1.524374  -0.071222
H    -2.518510  3.851971  0.104960
H    -1.104508  2.832429  -0.108100
H    -0.631366  4.582930  1.504707
H    -0.531928  3.014867  2.311237
H    -2.907920  4.751508  2.596913
H    -3.366077  3.643722  5.795954
H    -3.297787  5.062328  4.893504
H    -1.841537  2.066537  5.273403
N    -2.539275  -1.519059  2.531975
C    -1.325418  -1.561447  3.330042
H    -3.148782  -2.330599  2.543272
H    -1.466308  -2.283397  4.142750
H    -1.122764  -0.584144  3.787470
H    -0.445146  -1.864414  2.743037
