35
Energy: -21190.1503424 eV PBE+vdW (tier 2 basis)
C    -0.736655  -1.694302  1.034814
C    -0.316144  -1.191178  2.404212
O    0.527774  -1.771260  3.083094
H    -1.817539  -1.880631  0.978326
H    -0.201724  -2.628077  0.844433
H    -0.481014  -0.974587  0.243965
N    -0.904783  -0.036806  2.860444
C    -1.976790  0.743546  2.249628
C    -1.710088  2.248979  2.492908
O    -2.485562  2.957785  3.129841
H    -0.611806  0.217801  3.800363
H    -1.911612  0.587318  1.161776
C    -3.388365  0.323596  2.697438
C    -3.587161  0.187765  4.208659
C    -5.017002  -0.224481  4.548420
N    -5.177635  -0.383039  5.986545
C    -6.441897  -0.546589  6.525057
N    -6.394836  -0.836981  7.900671
N    -7.492400  -0.458634  5.783523
H    -3.618124  -0.639491  2.214026
H    -4.100511  1.058789  2.295352
H    -3.355951  1.140752  4.703649
H    -2.887669  -0.569807  4.602049
H    -5.291490  -1.150523  4.008577
H    -5.733022  0.541161  4.222386
H    -4.453755  -0.929619  6.443908
H    -7.302504  -0.796793  8.352066
H    -5.698147  -0.306325  8.418560
H    -8.344582  -0.486113  6.348787
N    -0.559285  2.761508  1.960120
C    0.442871  2.107700  1.134215
H    -0.429432  3.744554  2.176991
H    1.045451  2.880951  0.645254
H    -0.021449  1.506088  0.340886
H    1.111685  1.457068  1.714964
