35
Energy: -21190.5630962 eV PBE+vdW (tier 2 basis)
C    0.145582  0.688955  -0.261814
C    -0.056759  0.935952  1.221806
O    0.232903  2.008150  1.754321
H    1.205378  0.840387  -0.501503
H    -0.426379  1.436089  -0.826087
H    -0.157406  -0.313935  -0.586097
N    -0.598416  -0.105889  1.918437
C    -0.727174  -0.087535  3.360534
C    -0.773264  -1.565125  3.807236
O    -0.781034  -2.484005  2.980927
H    -0.664146  -1.040595  1.514670
H    0.183055  0.369448  3.786032
C    -1.917768  0.779410  3.838562
C    -3.296021  0.391731  3.291598
C    -3.950867  -0.846553  3.913184
N    -4.131754  -0.675017  5.349232
C    -4.465768  -1.681085  6.245581
N    -4.400403  -2.975439  5.730822
N    -4.738189  -1.527106  7.498654
H    -1.683800  1.805059  3.523857
H    -1.936020  0.795498  4.939512
H    -3.225905  0.233862  2.205205
H    -3.975684  1.249917  3.422242
H    -3.323664  -1.732376  3.746097
H    -4.911592  -1.028021  3.392467
H    -4.445146  0.244362  5.641338
H    -4.780168  -3.642581  6.395609
H    -4.748978  -3.112374  4.787474
H    -4.637174  -0.549842  7.785752
N    -0.774994  -1.770301  5.144932
C    -0.857295  -3.096131  5.737705
H    -0.890233  -0.967693  5.752288
H    -0.407487  -3.812654  5.042990
H    -1.901224  -3.387483  5.923225
H    -0.301208  -3.108082  6.682213
