35
Energy: -21190.3415495 eV PBE+vdW (tier 2 basis)
C    -0.098676  0.115031  -0.049255
C    0.038046  0.092161  1.460795
O    1.153652  0.064506  1.995280
H    0.371039  -0.790419  -0.453694
H    0.460936  0.973852  -0.439538
H    -1.133893  0.167639  -0.407229
N    -1.135393  0.119224  2.151566
C    -1.400109  0.008307  3.599848
C    -0.788794  1.074650  4.542562
O    -1.419304  1.374656  5.559282
H    -1.970851  0.178004  1.582719
H    -2.475541  0.209482  3.682127
C    -1.179730  -1.411054  4.179095
C    0.256216  -1.803040  4.532062
C    0.315542  -3.184415  5.203771
N    1.621203  -3.572449  5.712737
C    2.269098  -2.925706  6.757402
N    1.437471  -2.439220  7.766871
N    3.559972  -2.915060  6.763301
H    -1.613867  -2.132948  3.468910
H    -1.795260  -1.462223  5.091130
H    0.682365  -1.057151  5.220417
H    0.900046  -1.795866  3.642571
H    0.002865  -3.963204  4.492109
H    -0.423305  -3.239531  6.021611
H    2.302534  -3.850479  5.012257
H    1.857079  -1.721218  8.344396
H    0.472196  -2.235919  7.531000
H    3.926227  -2.523332  7.634348
N    0.417878  1.583654  4.211040
C    1.111396  2.513755  5.081823
H    0.923728  1.126485  3.440933
H    1.780471  3.142814  4.483629
H    1.708373  1.992904  5.847373
H    0.377299  3.143711  5.595692
