35
Energy: -21190.5399999 eV PBE+vdW (tier 2 basis)
C    2.927151  -0.423763  2.269582
C    1.934850  -0.583912  3.410963
O    2.233503  -1.164953  4.454545
H    2.440575  -0.225647  1.306436
H    3.535617  -1.332083  2.202521
H    3.602987  0.412373  2.497920
N    0.724219  0.022730  3.185738
C    -0.446155  -0.145220  4.052873
C    -0.092636  -0.127877  5.561326
O    -0.595492  -0.912103  6.359225
H    0.475005  0.150675  2.191465
H    -1.047333  0.768753  3.906182
C    -1.361842  -1.327472  3.684920
C    -0.694876  -2.672156  3.366693
C    -0.125812  -2.830073  1.944446
N    -1.069804  -2.537230  0.872034
C    -1.109420  -1.353126  0.183665
N    -2.129976  -1.325449  -0.774431
N    -0.298418  -0.370576  0.440631
H    -1.992356  -1.025247  2.835405
H    -2.031599  -1.465904  4.543871
H    -1.446792  -3.463708  3.518382
H    0.109974  -2.880846  4.085990
H    0.223052  -3.866128  1.816339
H    0.738618  -2.183763  1.774446
H    -1.922098  -3.085767  0.849790
H    -2.270953  -2.190633  -1.288828
H    -2.106364  -0.517295  -1.385871
H    -0.394847  0.368002  -0.258518
N    0.690985  0.926707  5.939190
C    1.263342  0.981813  7.272010
H    1.203574  1.387039  5.194413
H    1.550104  2.013722  7.506922
H    2.145223  0.328169  7.365220
H    0.509896  0.645574  7.991719
