35
Energy: -21190.4516229 eV PBE+vdW (tier 2 basis)
C    0.547778  1.386952  0.589471
C    0.450146  0.743336  1.955027
O    1.454542  0.405848  2.589645
H    1.514164  1.896338  0.526439
H    -0.258544  2.102437  0.384386
H    0.533876  0.596793  -0.176731
N    -0.797580  0.550634  2.485370
C    -2.078003  0.532677  1.806159
C    -3.159454  0.626265  2.899604
O    -2.945301  0.248085  4.049917
H    -0.821720  0.174011  3.433114
H    -2.159790  1.409273  1.144907
C    -2.277066  -0.750416  0.948072
C    -2.190612  -2.041895  1.769265
C    -1.735644  -3.285230  0.980558
N    -0.522286  -3.139805  0.177010
C    0.628632  -2.477764  0.595173
N    1.033934  -2.705078  1.901345
N    1.259433  -1.756292  -0.274423
H    -1.490014  -0.742423  0.180877
H    -3.237701  -0.687551  0.412757
H    -3.157558  -2.270347  2.242247
H    -1.488933  -1.882532  2.599214
H    -2.521925  -3.600362  0.280394
H    -1.623348  -4.123433  1.689335
H    -0.675758  -2.942426  -0.806490
H    1.475307  -1.907037  2.355064
H    0.410081  -3.225416  2.506692
H    2.159777  -1.448231  0.102982
N    -4.361088  1.104306  2.474837
C    -5.525989  1.190328  3.336920
H    -4.438450  1.423891  1.516684
H    -5.864646  2.229857  3.443692
H    -5.235937  0.809343  4.321396
H    -6.354620  0.583029  2.947228
