35
Energy: -21190.5406634 eV PBE+vdW (tier 2 basis)
C    0.134201  0.121560  0.039593
C    0.229552  0.098390  1.550613
O    1.322739  0.181798  2.125551
H    0.754609  -0.688065  -0.363850
H    0.553775  1.067271  -0.325979
H    -0.889724  0.014636  -0.337038
N    -0.956664  0.010058  2.209449
C    -1.072787  -0.188352  3.642249
C    -2.066815  -1.344086  3.836817
O    -2.907398  -1.602147  2.970919
H    -1.796772  -0.253080  1.694705
H    -0.075742  -0.464945  4.012029
C    -1.574185  1.078817  4.412587
C    -0.532787  1.686853  5.357540
C    0.682762  2.310966  4.639609
N    1.910564  2.318352  5.420698
C    2.554272  1.150177  5.809048
N    2.354973  0.058148  4.964092
N    3.238511  1.164018  6.906477
H    -2.477556  0.824243  4.986355
H    -1.894837  1.815190  3.660926
H    -0.162615  0.909445  6.040513
H    -1.016955  2.442857  5.994435
H    0.464788  3.350671  4.357940
H    0.877360  1.786086  3.694898
H    1.969197  3.008125  6.164232
H    3.034839  -0.681869  5.094356
H    2.147199  0.232165  3.976823
H    3.750378  0.287430  7.034258
N    -2.001493  -2.043789  5.000879
C    -1.109118  -1.843504  6.132024
H    -2.740239  -2.734808  5.094157
H    -0.965075  -2.801374  6.645046
H    -1.508381  -1.118103  6.857418
H    -0.124651  -1.492533  5.800233
