35
Energy: -21190.7618723 eV PBE+vdW (tier 2 basis)
C    1.009807  0.877554  -0.314452
C    1.110353  0.346178  1.100640
O    2.209356  0.220408  1.659543
H    1.572449  0.209610  -0.978768
H    1.491347  1.862091  -0.358783
H    -0.020386  0.962591  -0.679303
N    -0.070691  0.040799  1.694344
C    -0.197761  -0.639437  2.971873
C    -1.358167  -1.637241  2.804455
O    -2.243215  -1.422087  1.968238
H    -0.932859  0.030525  1.148643
H    0.743636  -1.163641  3.176506
C    -0.546175  0.332414  4.130658
C    0.439714  1.485780  4.368370
C    1.693434  1.147229  5.190636
N    2.567270  0.154133  4.571529
C    2.630335  -1.169281  4.954892
N    2.327971  -1.432214  6.297892
N    2.914910  -2.173479  4.185674
H    -0.659649  -0.252608  5.056389
H    -1.537065  0.754315  3.903551
H    -0.091458  2.284931  4.909205
H    0.735613  1.928078  3.404970
H    1.386119  0.778465  6.177937
H    2.260587  2.077317  5.359643
H    2.652530  0.261917  3.554705
H    2.600357  -2.384545  6.525818
H    2.714155  -0.764481  6.959972
H    3.015836  -1.862660  3.214581
N    -1.393228  -2.716762  3.623506
C    -0.428539  -3.124988  4.637441
H    -2.229824  -3.279978  3.503729
H    -0.557003  -4.197115  4.822404
H    -0.569916  -2.590832  5.589002
H    0.605515  -2.966715  4.303414
