35
Energy: -21190.14033 eV PBE+vdW (tier 2 basis)
C    0.084222  0.354747  0.882445
C    -0.296512  -0.131409  2.264781
O    0.540148  -0.309073  3.147723
H    1.100003  0.754584  0.939897
H    -0.594729  1.117274  0.484790
H    0.079322  -0.483683  0.171520
N    -1.620792  -0.416232  2.523496
C    -2.820653  -0.251288  1.699536
C    -2.670752  -0.906690  0.302670
O    -2.790730  -0.259349  -0.735362
H    -1.759080  -0.720540  3.482647
H    -3.599469  -0.831845  2.223562
C    -3.311755  1.199926  1.600391
C    -4.781770  1.319344  1.188652
C    -5.270055  2.764270  1.087715
N    -5.222211  3.436415  2.376691
C    -5.432562  4.808524  2.481785
N    -5.486637  5.230747  3.815789
N    -5.578945  5.669221  1.535529
H    -2.690945  1.745790  0.876279
H    -3.154628  1.670918  2.580413
H    -5.419023  0.767638  1.903626
H    -4.929924  0.845053  0.208922
H    -6.287715  2.778747  0.653405
H    -4.618883  3.316712  0.392908
H    -5.617399  2.904449  3.147977
H    -5.519652  6.245117  3.866753
H    -4.757178  4.844072  4.409375
H    -5.665628  5.217295  0.622690
N    -2.410960  -2.247314  0.273767
C    -2.237877  -3.174831  1.380046
H    -2.299493  -2.606895  -0.669067
H    -2.365238  -4.194343  0.999417
H    -2.999684  -3.018181  2.155368
H    -1.246592  -3.094927  1.848463
