35
Energy: -21190.4169605 eV PBE+vdW (tier 2 basis)
C    1.486202  3.345628  0.490952
C    0.070966  2.810151  0.435852
O    -0.859636  3.475968  -0.038027
H    2.247769  2.557694  0.545917
H    1.586593  3.978301  1.385787
H    1.668024  3.970238  -0.389133
N    -0.105585  1.574598  0.981644
C    -1.380998  0.893453  1.259525
C    -2.097708  0.324734  0.005967
O    -2.486712  -0.843593  0.005649
H    0.728353  1.090969  1.290727
H    -1.105823  -0.007181  1.823046
C    -2.378394  1.706366  2.112275
C    -1.946006  2.034060  3.548456
C    -0.870485  3.113905  3.672292
N    -0.759965  3.572530  5.058591
C    0.288314  4.384296  5.485028
N    0.806261  5.213252  4.487539
N    0.802790  4.430564  6.666527
H    -3.292183  1.096072  2.157382
H    -2.646780  2.631599  1.584048
H    -1.611877  1.114638  4.059598
H    -2.837889  2.384139  4.092443
H    -1.150211  3.958944  3.023177
H    0.101373  2.741516  3.311804
H    -1.013380  2.873443  5.750006
H    1.428454  5.907415  4.891378
H    0.121626  5.623145  3.858293
H    0.427267  3.692194  7.267851
N    -2.283750  1.205954  -1.006589
C    -2.966850  0.847433  -2.233485
H    -1.940423  2.162231  -0.865394
H    -2.337598  1.061162  -3.108419
H    -3.912279  1.399318  -2.339271
H    -3.186724  -0.224881  -2.200917
