35
Energy: -21190.6575376 eV PBE+vdW (tier 2 basis)
C    0.354138  0.747800  0.318254
C    0.212601  0.377252  1.778686
O    1.187146  0.357202  2.543020
H    0.741594  1.772478  0.253934
H    -0.584217  0.687198  -0.246048
H    1.097428  0.088041  -0.145474
N    -1.044167  0.070113  2.198464
C    -1.398494  -0.199451  3.594719
C    -1.072829  -1.665151  4.013933
O    -1.937180  -2.462429  4.398770
H    -1.793114  0.044503  1.516204
H    -0.742311  0.442739  4.203453
C    -2.856900  0.172513  3.860952
C    -3.894992  -0.477754  2.917769
C    -5.169124  -0.906156  3.647571
N    -4.859176  -1.977823  4.577506
C    -5.616315  -2.168656  5.706863
N    -5.013249  -3.038070  6.631980
N    -6.740668  -1.548239  5.861075
H    -2.947123  1.267095  3.817175
H    -3.077608  -0.115645  4.897541
H    -3.468894  -1.369706  2.429889
H    -4.175477  0.218863  2.113725
H    -5.926249  -1.234217  2.916495
H    -5.618421  -0.062931  4.197956
H    -3.877171  -2.261087  4.609606
H    -5.673267  -3.489395  7.255627
H    -4.355151  -3.703830  6.234368
H    -7.182351  -1.809541  6.745523
N    0.244614  -1.956428  3.943707
C    0.785929  -3.261806  4.266344
H    0.862468  -1.210665  3.601845
H    1.250289  -3.726547  3.384943
H    -0.033737  -3.898293  4.614657
H    1.541598  -3.184462  5.059950
