35
Energy: -21190.6048482 eV PBE+vdW (tier 2 basis)
C    -0.385315  -0.394160  -0.186709
C    -0.125017  0.319076  1.123976
O    0.854909  1.062943  1.263941
H    -0.406086  0.347405  -0.994215
H    -1.316782  -0.972524  -0.203646
H    0.455221  -1.071066  -0.386455
N    -1.034460  0.087962  2.111555
C    -0.971819  0.535788  3.512391
C    -1.162292  2.055858  3.735122
O    -1.980811  2.444967  4.579891
H    -1.823045  -0.500223  1.873223
H    -1.863618  0.103638  3.980683
C    0.285332  -0.000295  4.238047
C    0.407845  0.449150  5.698727
C    -0.716751  -0.060596  6.620272
N    -0.645698  0.407352  7.988901
C    -0.946318  1.701028  8.400101
N    -1.866444  2.385314  7.616965
N    -0.424058  2.106530  9.513407
H    1.176090  0.318292  3.681346
H    0.253179  -1.100420  4.179739
H    0.448225  1.547852  5.752806
H    1.372842  0.094865  6.091864
H    -0.698311  -1.161819  6.643394
H    -1.702600  0.209713  6.215699
H    0.093171  0.020224  8.567519
H    -1.928930  3.372602  7.832108
H    -1.920820  2.208458  6.612869
H    -0.772756  3.033984  9.766540
N    -0.365213  2.868945  3.014311
C    -0.393824  4.312779  3.146059
H    0.283451  2.417532  2.355234
H    -0.486909  4.785616  2.159716
H    0.520971  4.686394  3.628771
H    -1.254823  4.588514  3.763518
