35
Energy: -21190.6309486 eV PBE+vdW (tier 2 basis)
C    1.217501  0.757239  0.321895
C    0.752360  0.281667  1.679499
O    1.509268  -0.280091  2.480717
H    1.778641  1.693573  0.452338
H    0.392190  0.948423  -0.375136
H    1.895349  0.011432  -0.106111
N    -0.550557  0.547715  1.990865
C    -1.117161  0.269881  3.310149
C    -1.630505  -1.195297  3.384885
O    -2.826219  -1.481221  3.365868
H    -1.157122  0.934128  1.276418
H    -0.274236  0.352879  4.012295
C    -2.222686  1.264699  3.669536
C    -1.827427  2.740391  3.542839
C    -0.680874  3.178259  4.470259
N    -0.177846  4.517432  4.207188
C    0.649495  4.767860  3.115782
N    0.817714  6.135718  2.876666
N    1.234760  3.913328  2.348063
H    -2.543059  1.040484  4.698105
H    -3.103094  1.052880  3.045138
H    -2.711841  3.360605  3.755886
H    -1.540658  2.972386  2.505980
H    0.171367  2.487198  4.394313
H    -1.006288  3.137416  5.520438
H    -0.830187  5.269165  4.411071
H    1.546221  6.290481  2.185483
H    0.963449  6.696538  3.712135
H    0.942108  2.958984  2.566320
N    -0.616851  -2.097595  3.464906
C    -0.841428  -3.529166  3.432896
H    0.331232  -1.728711  3.356248
H    -0.269996  -4.026951  4.227318
H    -0.549633  -3.964300  2.465030
H    -1.910023  -3.709868  3.589875
