35
Energy: -21190.5714728 eV PBE+vdW (tier 2 basis)
C    -0.133483  0.678592  -0.614740
C    0.010152  -0.073582  0.698709
O    1.109371  -0.379541  1.152335
H    -0.772515  0.152893  -1.337930
H    0.866690  0.797901  -1.039354
H    -0.572834  1.673132  -0.449781
N    -1.146289  -0.417180  1.359727
C    -2.489091  0.036128  1.058859
C    -2.882314  1.290178  1.874861
O    -2.456474  1.470631  3.015189
H    -0.979438  -0.730657  2.313908
H    -2.519543  0.301532  -0.003428
C    -3.523164  -1.073709  1.330799
C    -3.436893  -2.295975  0.407285
C    -3.426652  -1.981117  -1.098448
N    -4.422178  -0.966563  -1.477689
C    -4.069883  0.234921  -2.060144
N    -3.127108  0.119233  -3.071398
N    -4.585195  1.340748  -1.612213
H    -4.524077  -0.620506  1.268932
H    -3.419059  -1.400519  2.376750
H    -4.283623  -2.961121  0.638349
H    -2.526436  -2.872855  0.625144
H    -3.595939  -2.913860  -1.658972
H    -2.437240  -1.609482  -1.396334
H    -5.166674  -0.821859  -0.802065
H    -2.905991  0.971311  -3.571691
H    -3.178995  -0.706729  -3.658952
H    -4.399950  2.122416  -2.246361
N    -3.753072  2.107903  1.227014
C    -4.336326  3.272722  1.863194
H    -4.074895  1.851604  0.281326
H    -4.093426  4.190720  1.309139
H    -3.923676  3.350263  2.874911
H    -5.430478  3.183500  1.926424
