35
Energy: -21190.3111681 eV PBE+vdW (tier 2 basis)
C    0.317278  0.301457  0.136828
C    0.320657  -0.514207  1.415732
O    1.309606  -1.155753  1.763066
H    1.214117  0.032769  -0.427553
H    0.357773  1.375613  0.363688
H    -0.571696  0.117157  -0.479026
N    -0.798476  -0.499084  2.220815
C    -2.155258  0.011533  1.983676
C    -2.884255  -0.875142  0.934610
O    -3.156750  -2.039558  1.227888
H    -0.714221  -1.173642  2.975529
H    -2.691590  -0.225460  2.913979
C    -2.219129  1.534887  1.800645
C    -3.610462  2.116672  2.079113
C    -3.748843  3.587733  1.660323
N    -3.526078  3.816621  0.222529
C    -4.305747  3.132779  -0.708751
N    -5.667705  3.312183  -0.540646
N    -3.721201  2.389832  -1.594463
H    -1.890455  1.809877  0.788080
H    -1.485483  1.983205  2.487955
H    -3.840239  2.031334  3.153049
H    -4.383136  1.532354  1.554584
H    -3.022773  4.216339  2.195396
H    -4.744484  3.960382  1.935570
H    -2.550242  3.704075  -0.042925
H    -6.265901  2.915843  -1.254732
H    -5.971188  4.215737  -0.192927
H    -4.376001  2.087942  -2.322462
N    -3.151227  -0.344247  -0.286458
C    -3.807084  -1.141287  -1.307769
H    -3.038779  0.650333  -0.496949
H    -3.696681  -0.632634  -2.271517
H    -4.877979  -1.284589  -1.094803
H    -3.344372  -2.133640  -1.362223
