35
Energy: -21190.263798 eV PBE+vdW (tier 2 basis)
C    0.088915  -0.485209  2.511516
C    -0.437671  0.543039  3.498069
O    0.148893  0.782450  4.555914
H    1.102776  -0.752561  2.820742
H    0.110047  -0.101676  1.482732
H    -0.525825  -1.396424  2.521258
N    -1.579084  1.220785  3.163590
C    -2.616913  0.816837  2.229068
C    -3.124743  2.070755  1.497332
O    -3.366467  3.105600  2.112076
H    -1.863742  1.928092  3.840369
H    -2.179011  0.107541  1.513055
C    -3.801714  0.160802  2.977507
C    -3.419255  -1.097204  3.762725
C    -4.236012  -1.287320  5.048335
N    -4.156804  -0.151631  5.979077
C    -3.254848  -0.122437  7.054083
N    -1.967728  -0.542161  6.735732
N    -3.530010  0.242470  8.260818
H    -4.609398  -0.053326  2.260564
H    -4.187820  0.920143  3.674700
H    -2.361036  -1.058930  4.052000
H    -3.530293  -1.997625  3.138627
H    -3.909233  -2.213206  5.546736
H    -5.298036  -1.415358  4.791818
H    -5.064666  0.198388  6.262784
H    -1.536459  -0.105695  5.920971
H    -1.363338  -0.460044  7.548886
H    -4.539456  0.356438  8.392660
N    -3.318704  1.921027  0.155838
C    -3.854159  2.977719  -0.683448
H    -3.066077  1.038169  -0.270896
H    -4.788319  2.664400  -1.169545
H    -3.132149  3.276947  -1.455531
H    -4.058282  3.837371  -0.036633
