35
Energy: -21190.1786281 eV PBE+vdW (tier 2 basis)
C    -1.039119  0.486168  0.168408
C    -0.572047  0.396912  1.613229
O    0.571491  0.687730  1.949230
H    -0.430477  -0.195392  -0.439048
H    -0.853526  1.503274  -0.197950
H    -2.098755  0.240541  0.022680
N    -1.521520  -0.018393  2.507649
C    -1.279654  -0.220129  3.934691
C    -0.585088  0.991364  4.604709
O    0.427267  0.870879  5.287613
H    -2.441644  -0.251580  2.155557
H    -2.278832  -0.275001  4.404882
C    -0.520322  -1.520090  4.250939
C    -0.875062  -2.052807  5.644316
C    -2.286780  -2.679030  5.703472
N    -3.021934  -2.424800  6.932920
C    -3.697876  -1.239412  7.113480
N    -4.234633  -1.080615  8.396469
N    -3.872385  -0.420896  6.124074
H    0.556673  -1.328556  4.175001
H    -0.779908  -2.266519  3.483992
H    -0.814002  -1.225527  6.365109
H    -0.124784  -2.790930  5.963293
H    -2.232889  -3.767741  5.561756
H    -2.913383  -2.283339  4.893860
H    -2.694805  -2.898461  7.766123
H    -4.411719  -0.116230  8.653279
H    -3.784688  -1.595734  9.147520
H    -4.464247  0.363072  6.406182
N    -1.201726  2.205841  4.470163
C    -2.465903  2.524809  3.835494
H    -0.681387  2.959678  4.905802
H    -2.376613  2.664786  2.746777
H    -2.850587  3.455563  4.270130
H    -3.209853  1.740840  4.029381
