35
Energy: -21190.1706418 eV PBE+vdW (tier 2 basis)
C    -0.117931  0.997605  0.113865
C    -0.165836  0.378661  1.499615
O    0.833910  -0.059986  2.060425
H    -1.098806  1.301641  -0.273280
H    0.332948  0.276911  -0.579392
H    0.539412  1.875583  0.143324
N    -1.406058  0.333469  2.080477
C    -1.616766  -0.165338  3.428565
C    -1.609504  -1.697516  3.660573
O    -1.470254  -2.085835  4.819520
H    -2.197060  0.702008  1.567394
H    -0.758238  0.165706  4.029772
C    -2.900426  0.422641  4.038962
C    -4.195592  0.023549  3.324301
C    -5.443990  0.463725  4.106837
N    -6.711725  0.130379  3.484364
C    -7.219458  -1.165528  3.487504
N    -8.352445  -1.286919  2.672019
N    -6.782951  -2.199591  4.117908
H    -2.802325  1.519347  4.071651
H    -2.935211  0.074083  5.080589
H    -4.228248  -1.067608  3.184437
H    -4.249980  0.468240  2.315218
H    -5.424299  1.553172  4.261211
H    -5.427297  0.015250  5.111990
H    -6.948713  0.669781  2.657480
H    -8.780319  -2.200067  2.798773
H    -9.030406  -0.536406  2.779722
H    -5.885706  -2.026449  4.576037
N    -1.787882  -2.595843  2.648093
C    -2.012033  -2.432211  1.220116
H    -1.731418  -3.548501  2.995686
H    -1.111326  -2.095780  0.687625
H    -2.833843  -1.737473  1.007897
H    -2.300476  -3.408959  0.815621
