35
Energy: -21190.4558549 eV PBE+vdW (tier 2 basis)
C    -0.150921  0.237307  -0.503471
C    -0.117565  0.193605  1.013001
O    0.936926  0.265702  1.645237
H    0.344367  1.155709  -0.841753
H    -1.163870  0.200591  -0.922272
H    0.429483  -0.609118  -0.891883
N    -1.339056  0.089300  1.617859
C    -1.476134  -0.142549  3.042896
C    -2.525272  -1.249736  3.218308
O    -3.360463  -1.474185  2.338928
H    -2.160811  -0.168352  1.074045
H    -0.486486  -0.463211  3.403589
C    -1.911621  1.118547  3.821520
C    -0.913730  2.271630  3.714689
C    -1.280758  3.458142  4.610881
N    -1.173614  3.157773  6.037773
C    -2.292348  3.059221  6.842742
N    -1.959874  2.979261  8.206903
N    -3.478738  3.076640  6.338556
H    -2.049540  0.856151  4.880360
H    -2.900559  1.437620  3.458397
H    -0.861728  2.624638  2.673528
H    0.098098  1.916909  3.965373
H    -2.314502  3.779760  4.422911
H    -0.619391  4.307530  4.385038
H    -0.340973  3.499172  6.502178
H    -2.736217  2.700904  8.797263
H    -1.123233  2.438759  8.413662
H    -4.189639  2.924541  7.056761
N    -2.521658  -1.953586  4.385419
C    -1.641029  -1.807562  5.530551
H    -3.297280  -2.604934  4.460881
H    -1.562454  -2.771759  6.046666
H    -2.003262  -1.055283  6.249081
H    -0.632874  -1.520596  5.210867
