35
Energy: -21190.4315198 eV PBE+vdW (tier 2 basis)
C    -1.910782  1.217134  -0.158469
C    -1.413090  0.296223  0.938868
O    -0.522506  -0.525418  0.757005
H    -1.161824  2.005301  -0.316838
H    -2.873921  1.691996  0.068196
H    -1.994053  0.649261  -1.091330
N    -2.040394  0.448860  2.159898
C    -1.511382  -0.149685  3.379645
C    -2.453718  -1.188063  4.027957
O    -2.256268  -1.590055  5.172707
H    -2.661583  1.244936  2.266595
H    -0.625732  -0.720112  3.052301
C    -1.085076  0.910540  4.403059
C    0.038310  1.819993  3.907118
C    0.483954  2.828701  4.973755
N    1.472451  3.803267  4.515651
C    1.174151  4.772762  3.565389
N    -0.107672  5.326173  3.693059
N    2.054661  5.063094  2.669590
H    -0.787562  0.373018  5.314026
H    -1.965508  1.515919  4.684402
H    -0.281695  2.378630  3.014017
H    0.902366  1.211361  3.595966
H    0.919840  2.303219  5.835955
H    -0.394382  3.363671  5.364606
H    2.385701  3.406735  4.305815
H    -0.433042  5.446168  4.649157
H    -0.235542  6.169177  3.143873
H    1.781370  5.886198  2.126034
N    -3.467437  -1.625884  3.233584
C    -4.377286  -2.679670  3.634606
H    -3.501367  -1.257707  2.289470
H    -5.422693  -2.361905  3.521430
H    -4.181786  -2.902670  4.689081
H    -4.218504  -3.594166  3.044824
