35
Energy: -21190.5026199 eV PBE+vdW (tier 2 basis)
C    0.369083  -0.467406  0.504630
C    -0.061912  -0.253337  1.944028
O    0.737312  -0.383544  2.876966
H    1.456817  -0.360690  0.460591
H    -0.101548  0.238257  -0.191798
H    0.116570  -1.485005  0.173884
N    -1.363760  0.106882  2.182704
C    -2.488512  -0.317597  1.356263
C    -3.746541  0.534579  1.642477
O    -4.875598  0.109887  1.399591
H    -1.572487  0.264494  3.193355
H    -2.242485  -0.092877  0.303859
C    -2.804623  -1.828916  1.406128
C    -3.225699  -2.466315  2.742975
C    -2.123517  -2.889977  3.736236
N    -1.521129  -1.825826  4.546285
C    -2.327432  -0.904657  5.189668
N    -3.281372  -1.439179  6.036846
N    -2.118370  0.361313  4.993722
H    -1.934077  -2.371041  1.003437
H    -3.622693  -1.983057  0.689627
H    -3.783052  -3.382835  2.493994
H    -3.955139  -1.818615  3.253031
H    -2.539887  -3.664904  4.401629
H    -1.295343  -3.379699  3.204606
H    -0.702416  -1.374568  4.128347
H    -4.136465  -0.915708  6.170084
H    -3.381124  -2.446062  6.070592
H    -2.651003  0.945070  5.643548
N    -3.490385  1.783156  2.113493
C    -4.539081  2.716828  2.464857
H    -2.527762  1.998683  2.351206
H    -5.491444  2.291670  2.130392
H    -4.583359  2.878199  3.552395
H    -4.384468  3.685804  1.971300
