35
Energy: -21190.2344207 eV PBE+vdW (tier 2 basis)
C    0.224778  -0.079229  -0.235649
C    0.164557  0.108491  1.265865
O    1.181283  0.340699  1.928471
H    0.713196  0.795391  -0.681796
H    -0.756840  -0.219677  -0.704191
H    0.852544  -0.952316  -0.454746
N    -1.074221  0.014996  1.827445
C    -1.276030  0.007859  3.282397
C    -2.545497  -0.780918  3.639509
O    -2.499412  -1.705220  4.443410
H    -1.828608  -0.319255  1.239317
H    -0.458946  -0.576637  3.724088
C    -1.256789  1.421348  3.929054
C    -0.797226  1.400542  5.401893
C    0.707146  1.618461  5.596384
N    1.510314  0.661006  4.863453
C    2.720751  0.218677  5.347022
N    3.383116  -0.628676  4.444574
N    3.118242  0.517564  6.540393
H    -2.251709  1.879835  3.854225
H    -0.586755  2.059103  3.333184
H    -1.097232  0.451171  5.871213
H    -1.319700  2.197168  5.951531
H    0.978948  1.517449  6.654220
H    0.964441  2.655654  5.303026
H    1.403428  0.644352  3.848198
H    4.389847  -0.642730  4.559925
H    3.105539  -0.538368  3.469657
H    3.989246  0.031192  6.764082
N    -3.730312  -0.461505  3.009651
C    -4.130288  0.764552  2.331093
H    -4.488143  -1.047967  3.351427
H    -4.591460  1.489737  3.020569
H    -4.857711  0.525618  1.544300
H    -3.272848  1.252192  1.857914
