35
Energy: -21190.2079614 eV PBE+vdW (tier 2 basis)
C    1.458047  -1.935317  1.604206
C    1.278464  -0.811179  2.601564
O    2.092123  0.105814  2.697495
H    2.530866  -2.058104  1.426932
H    0.993452  -1.636015  0.652687
H    1.019022  -2.891398  1.910709
N    0.155440  -0.803043  3.401278
C    -0.933901  -1.773527  3.540725
C    -0.421898  -3.171326  3.974652
O    -0.645585  -4.181524  3.308934
H    0.104431  0.039581  3.964892
H    -1.538654  -1.390196  4.379693
C    -1.848270  -1.884574  2.313557
C    -2.435156  -0.545435  1.871193
C    -3.063219  -0.587847  0.468635
N    -2.138062  -0.948544  -0.601489
C    -1.116007  -0.086795  -0.961191
N    -0.177458  -0.700843  -1.811023
N    -1.070670  1.114257  -0.497951
H    -2.643168  -2.608386  2.545653
H    -1.268536  -2.339294  1.498844
H    -1.656720  0.229319  1.857000
H    -3.206946  -0.211422  2.584301
H    -3.471780  0.401692  0.228196
H    -3.892222  -1.310310  0.431968
H    -1.898031  -1.932275  -0.658944
H    0.474881  -0.045498  -2.229044
H    -0.578277  -1.321086  -2.511120
H    -0.313754  1.651242  -0.926563
N    0.289680  -3.239648  5.138753
C    0.651370  -2.176613  6.061839
H    0.627582  -4.175820  5.338250
H    0.932259  -2.630677  7.018838
H    -0.199328  -1.509460  6.256160
H    1.493720  -1.569941  5.699562
