35
Energy: -21190.0684668 eV PBE+vdW (tier 2 basis)
C    1.276308  0.884405  3.147087
C    0.750801  -0.047353  2.077628
O    1.481787  -0.863381  1.506753
H    1.357065  1.909701  2.757856
H    2.276362  0.543517  3.427209
H    0.633481  0.911613  4.036341
N    -0.580403  0.015392  1.757180
C    -1.485525  1.131442  1.999344
C    -2.868349  0.800685  2.603793
O    -3.457217  1.704825  3.196385
H    -0.794900  -0.594347  0.974683
H    -1.031587  1.738677  2.790752
C    -1.643582  2.062857  0.773829
C    -2.340267  1.492320  -0.470147
C    -1.549317  0.492229  -1.327539
N    -0.227494  1.004076  -1.697064
C    0.759904  0.146867  -2.222655
N    0.943760  -1.022843  -1.497829
N    1.468530  0.374226  -3.276642
H    -0.638297  2.412926  0.497159
H    -2.210210  2.937318  1.121148
H    -2.607770  2.347241  -1.112324
H    -3.303165  1.031257  -0.196561
H    -2.154412  0.250727  -2.222707
H    -1.399482  -0.468755  -0.821146
H    -0.289767  1.849862  -2.259606
H    1.695423  -1.570711  -1.906909
H    1.066427  -0.925369  -0.483280
H    1.114906  1.185447  -3.793002
N    -3.446245  -0.432019  2.482202
C    -3.032681  -1.638737  1.779528
H    -4.352391  -0.455048  2.940461
H    -3.851218  -2.362858  1.849688
H    -2.137041  -2.095112  2.219706
H    -2.857208  -1.460263  0.708603
