35
Energy: -21190.2903745 eV PBE+vdW (tier 2 basis)
C    1.125530  -0.254753  0.399173
C    0.798219  0.122163  1.834451
O    1.670940  0.340857  2.668271
H    1.448573  -1.304630  0.379125
H    1.968177  0.355446  0.056708
H    0.283765  -0.138359  -0.294902
N    -0.546879  0.212890  2.113659
C    -1.134000  0.343295  3.453784
C    -0.516412  1.486040  4.298930
O    -0.447726  1.403665  5.521379
H    -1.182342  -0.078754  1.379517
H    -2.167569  0.682254  3.270492
C    -1.246658  -0.978644  4.229326
C    0.064327  -1.688517  4.573695
C    -0.150025  -2.970242  5.389436
N    -0.864125  -4.033730  4.677253
C    -2.244731  -4.135469  4.608191
N    -2.909445  -3.812201  5.793887
N    -2.790527  -4.492373  3.491392
H    -1.890920  -1.649027  3.640208
H    -1.790670  -0.754917  5.157924
H    0.716739  -1.013611  5.144942
H    0.618054  -1.946289  3.657512
H    -0.698577  -2.736054  6.311442
H    0.826737  -3.370001  5.699633
H    -0.468801  -4.263645  3.768233
H    -3.890277  -4.067052  5.797956
H    -2.435432  -4.077473  6.652708
H    -3.787871  -4.688510  3.611238
N    -0.204104  2.614940  3.601909
C    0.476550  3.729478  4.233551
H    -0.134939  2.523488  2.595004
H    0.202100  4.666467  3.733965
H    1.570982  3.610813  4.202861
H    0.164675  3.774141  5.282027
