35
Energy: -21190.2784595 eV PBE+vdW (tier 2 basis)
C    -0.428647  -2.535162  -0.458029
C    0.012792  -1.717315  0.738354
O    1.180341  -1.695345  1.116139
H    -0.375607  -1.908903  -1.359515
H    -1.449958  -2.925671  -0.381232
H    0.276620  -3.362499  -0.579567
N    -0.943669  -0.985221  1.419863
C    -2.338778  -0.714685  1.059124
C    -3.249417  -1.966823  1.186868
O    -4.275291  -2.087356  0.520914
H    -0.524135  -0.382155  2.121989
H    -2.698119  -0.037285  1.851748
C    -2.534817  0.013440  -0.286508
C    -3.758418  0.933292  -0.308452
C    -3.918286  1.636860  -1.653470
N    -5.100898  2.486691  -1.653542
C    -5.253166  3.458334  -2.628520
N    -6.525943  4.054163  -2.583449
N    -4.305802  3.712801  -3.464430
H    -2.621022  -0.722891  -1.097615
H    -1.627046  0.605235  -0.478045
H    -3.671192  1.693745  0.485082
H    -4.655410  0.334691  -0.088431
H    -3.958015  0.892297  -2.470161
H    -3.058726  2.283807  -1.871839
H    -5.963951  2.017378  -1.394468
H    -6.605762  4.881752  -3.164653
H    -6.881644  4.221413  -1.645109
H    -4.531506  4.528442  -4.038968
N    -2.843743  -2.866214  2.123352
C    -3.570695  -4.087328  2.407151
H    -1.939938  -2.704185  2.554787
H    -4.503438  -4.061051  1.833797
H    -3.807951  -4.163376  3.476935
H    -2.995521  -4.975645  2.108620
