35
Energy: -21190.2673521 eV PBE+vdW (tier 2 basis)
C    -0.820290  -0.921078  0.183573
C    -0.144517  -0.745510  1.527356
O    0.949538  -1.239136  1.792300
H    -0.272222  -1.683051  -0.376159
H    -0.803762  0.019641  -0.385036
H    -1.873106  -1.217616  0.281194
N    -0.812633  0.003033  2.470181
C    -2.022641  0.794966  2.295664
C    -1.909622  1.942986  1.267674
O    -2.851263  2.134492  0.489798
H    -0.291135  0.111576  3.335990
H    -2.816653  0.160338  1.873569
C    -2.487792  1.272828  3.687008
C    -3.853274  1.969605  3.782387
C    -3.951527  3.409908  3.252203
N    -2.928498  4.278230  3.799913
C    -2.203734  5.212101  3.086493
N    -1.251424  5.876255  3.878543
N    -2.251076  5.479874  1.825973
H    -1.714316  1.923742  4.123717
H    -2.524557  0.371976  4.318621
H    -4.142853  1.967864  4.846135
H    -4.619033  1.372846  3.264161
H    -4.961765  3.794584  3.476644
H    -3.853080  3.406856  2.161285
H    -2.739266  4.209231  4.792841
H    -0.863231  6.660984  3.361896
H    -1.586472  6.171007  4.792645
H    -2.923428  4.889515  1.331431
N    -0.797930  2.724064  1.230252
C    0.314274  2.820684  2.167543
H    -0.918738  3.518823  0.607515
H    0.881077  3.721066  1.911235
H    0.987439  1.957172  2.099325
H    -0.021105  2.941782  3.206884
