35
Energy: -21190.0058511 eV PBE+vdW (tier 2 basis)
C    -0.167895  0.524524  2.210502
C    -0.351999  -0.873556  2.768066
O    0.575019  -1.682782  2.732062
H    0.803518  0.542227  1.709409
H    -0.161179  1.271470  3.014733
H    -0.948282  0.808426  1.495808
N    -1.543022  -1.261631  3.346170
C    -2.892429  -0.713474  3.531103
C    -3.970903  -1.502010  2.752854
O    -5.005024  -1.835855  3.350183
H    -1.460009  -2.225951  3.662246
H    -3.158329  -0.924271  4.578161
C    -3.049769  0.807981  3.348263
C    -4.375472  1.383557  3.898914
C    -5.390598  1.831196  2.837698
N    -6.013714  0.730504  2.120570
C    -5.992823  0.477751  0.768172
N    -5.406528  1.464830  -0.035199
N    -6.417516  -0.604550  0.195367
H    -2.947042  1.089709  2.291923
H    -2.216369  1.282315  3.881744
H    -4.147442  2.267251  4.512589
H    -4.856849  0.663819  4.578027
H    -4.883954  2.484732  2.115232
H    -6.165023  2.443802  3.331547
H    -6.243987  -0.084021  2.684752
H    -5.656086  2.421510  0.199639
H    -5.605270  1.260943  -1.011291
H    -6.772302  -1.264033  0.894716
N    -3.787844  -1.814392  1.445236
C    -2.809433  -1.309973  0.491131
H    -4.633861  -2.197137  1.029248
H    -3.111835  -1.659370  -0.500762
H    -1.802390  -1.689784  0.697792
H    -2.790221  -0.211491  0.453599
