35
Energy: -21190.5202718 eV PBE+vdW (tier 2 basis)
C    -0.216820  0.394820  0.373646
C    -0.005871  -0.257171  1.728332
O    1.072629  -0.756410  2.054654
H    -0.012389  -0.346477  -0.408886
H    0.512676  1.205469  0.254254
H    -1.227033  0.797702  0.231749
N    -1.087925  -0.243275  2.556770
C    -1.087457  -0.900130  3.848719
C    -2.553133  -1.233859  4.159744
O    -3.466181  -0.597348  3.618109
H    -2.004020  0.077177  2.247627
H    -0.486607  -1.817196  3.756638
C    -0.425044  -0.025331  4.948501
C    -1.120645  1.319080  5.210253
C    -2.168327  1.313721  6.329765
N    -1.572608  1.180360  7.651429
C    -1.855435  0.160623  8.525612
N    -1.135716  0.276982  9.727460
N    -2.664797  -0.799356  8.212150
H    0.605524  0.139124  4.607193
H    -0.352076  -0.602015  5.882407
H    -1.600966  1.677380  4.287511
H    -0.359000  2.078981  5.451594
H    -2.879774  0.487651  6.221488
H    -2.750581  2.248638  6.283529
H    -0.727421  1.708412  7.833794
H    -1.435653  -0.375452  10.443680
H    -1.061152  1.223146  10.093475
H    -2.837828  -1.401132  9.020225
N    -2.807714  -2.227452  5.046235
C    -1.866789  -3.007974  5.832227
H    -3.786410  -2.277362  5.314832
H    -2.295877  -4.000817  6.015981
H    -1.660726  -2.522551  6.797946
H    -0.930748  -3.150300  5.281753
