35
Energy: -21190.5949249 eV PBE+vdW (tier 2 basis)
C    -0.039267  -0.025684  -0.016591
C    -0.036042  -0.088412  1.496536
O    1.017062  -0.167411  2.142508
H    0.545183  0.847594  -0.332214
H    -1.043053  0.040171  -0.453502
H    0.465927  -0.916670  -0.409433
N    -1.255645  -0.046251  2.098354
C    -1.429674  -0.039108  3.552728
C    -1.377939  -1.495714  4.095006
O    -2.387140  -2.116326  4.425562
H    -2.092371  -0.041294  1.525712
H    -0.563050  0.505942  3.958783
C    -2.724348  0.678349  3.920143
C    -2.870423  0.927410  5.422644
C    -4.129792  1.718173  5.798031
N    -4.155136  3.091500  5.313367
C    -4.841722  3.462791  4.175322
N    -4.636973  4.818872  3.858291
N    -5.543080  2.612612  3.504649
H    -3.584051  0.088792  3.569057
H    -2.747743  1.635445  3.378580
H    -1.979853  1.459861  5.802158
H    -2.906398  -0.036157  5.951806
H    -4.230538  1.735502  6.894206
H    -5.022484  1.230203  5.387442
H    -3.356720  3.670739  5.549165
H    -5.254467  5.156915  3.127759
H    -4.636812  5.445116  4.660398
H    -6.077133  3.077695  2.767552
N    -0.112685  -1.991658  4.150079
C    0.165697  -3.369371  4.504327
H    0.612291  -1.429325  3.696718
H    1.029263  -3.423435  5.179737
H    0.374902  -3.985977  3.616456
H    -0.715821  -3.777538  5.009920
