35
Energy: -21190.4648049 eV PBE+vdW (tier 2 basis)
C    0.274667  -1.023254  -0.342625
C    0.290528  -0.758558  1.149185
O    1.352272  -0.550046  1.751655
H    -0.730082  -1.149501  -0.763320
H    0.858358  -1.930999  -0.541647
H    0.777549  -0.193186  -0.853399
N    -0.925439  -0.766255  1.762084
C    -1.194536  -0.629105  3.202932
C    -0.980916  0.803804  3.759872
O    -1.903007  1.378039  4.340655
H    -1.736112  -0.893241  1.169406
H    -2.276024  -0.780098  3.309517
C    -0.473321  -1.703586  4.037748
C    -0.857017  -1.673977  5.516880
C    -0.194899  -2.797110  6.325330
N    -0.584424  -4.136987  5.893296
C    0.273241  -5.119081  5.416728
N    1.466294  -4.641135  4.873483
N    0.066715  -6.393938  5.441537
H    0.613751  -1.576927  3.928418
H    -0.734328  -2.684458  3.610471
H    -1.951942  -1.744760  5.621815
H    -0.572190  -0.710291  5.966596
H    -0.446373  -2.671324  7.390679
H    0.898912  -2.724812  6.256445
H    -1.425117  -4.510921  6.316898
H    1.982073  -5.400246  4.438721
H    1.390255  -3.826490  4.271204
H    -0.761173  -6.627183  5.996994
N    0.267642  1.307590  3.600441
C    0.637886  2.629583  4.065178
H    0.930283  0.746539  3.053396
H    1.528760  2.581262  4.706313
H    -0.199436  3.035632  4.642540
H    0.849491  3.305666  3.223769
