35
Energy: -21190.2877776 eV PBE+vdW (tier 2 basis)
C    -1.578351  -2.169890  0.291815
C    -1.151870  -0.738032  0.533512
O    -0.626196  -0.054124  -0.339985
H    -0.836600  -2.853832  0.729212
H    -1.593442  -2.330173  -0.789742
H    -2.556269  -2.448804  0.708613
N    -1.284426  -0.207101  1.813787
C    -2.172734  -0.648211  2.895036
C    -1.780035  -2.055153  3.422597
O    -2.606786  -2.877179  3.819057
H    -1.030909  0.777927  1.820696
H    -1.950445  0.030015  3.737103
C    -3.666538  -0.504902  2.555759
C    -4.623243  -0.637956  3.758524
C    -5.869306  -1.477322  3.433206
N    -5.506041  -2.796415  2.902887
C    -5.745446  -3.144140  1.585449
N    -7.013870  -2.777038  1.122282
N    -4.816333  -3.724886  0.895230
H    -3.922147  -1.252206  1.793939
H    -3.793959  0.476518  2.077746
H    -4.948026  0.353555  4.108627
H    -4.104353  -1.111482  4.602491
H    -6.490556  -0.963184  2.686500
H    -6.479820  -1.583569  4.344732
H    -4.570262  -3.097741  3.188715
H    -7.246347  -3.143321  0.206334
H    -7.770688  -2.882874  1.792257
H    -5.181433  -4.074615  0.004859
N    -0.438967  -2.266337  3.470512
C    0.145620  -3.516763  3.912209
H    0.145324  -1.568430  3.021046
H    0.920114  -3.338941  4.669974
H    0.591237  -4.071000  3.072984
H    -0.653446  -4.124949  4.348413
