35
Energy: -21190.5943204 eV PBE+vdW (tier 2 basis)
C    1.556170  -0.134245  -0.071984
C    0.980810  -1.042516  1.000796
O    1.643561  -1.947889  1.509004
H    2.464579  0.342009  0.317136
H    0.860564  0.642614  -0.411748
H    1.852811  -0.750752  -0.929842
N    -0.304303  -0.762099  1.364500
C    -1.092851  -1.616522  2.234227
C    -2.498129  -1.668910  1.604399
O    -2.872923  -0.759865  0.853834
H    -0.870755  -0.126309  0.803694
H    -0.613198  -2.605410  2.261885
C    -1.206301  -1.056101  3.676443
C    0.138307  -0.754750  4.345103
C    0.989079  -1.972865  4.725847
N    0.441070  -2.766246  5.815687
C    -0.139810  -3.997496  5.653563
N    -0.514115  -4.574315  6.880846
N    -0.336950  -4.506822  4.480318
H    -1.779676  -1.768988  4.287947
H    -1.799492  -0.129624  3.631780
H    -0.050631  -0.150957  5.248780
H    0.739836  -0.116255  3.681114
H    1.991542  -1.623887  5.018843
H    1.123558  -2.638423  3.865882
H    0.267490  -2.299885  6.698167
H    -0.836180  -5.532286  6.795049
H    0.172798  -4.477158  7.624942
H    -0.639158  -5.480716  4.555530
N    -3.325068  -2.696211  1.923981
C    -3.069956  -3.868321  2.742028
H    -4.241891  -2.605363  1.494369
H    -3.243762  -4.786416  2.162140
H    -3.730095  -3.882210  3.622347
H    -2.034739  -3.885814  3.104032
