35
Energy: -21190.4992171 eV PBE+vdW (tier 2 basis)
C    0.393199  0.171876  3.367187
C    0.485507  1.681876  3.468490
O    1.400150  2.232174  4.096451
H    0.235217  -0.172019  2.336285
H    -0.427284  -0.211631  3.989321
H    1.332939  -0.244378  3.739611
N    -0.468959  2.427519  2.849268
C    -1.687209  1.996424  2.191124
C    -1.797417  2.789141  0.874083
O    -1.524391  3.986687  0.835208
H    -0.326277  3.435798  2.882660
H    -1.603716  0.921671  1.979003
C    -2.976433  2.247202  3.011574
C    -3.200744  1.390468  4.273431
C    -2.739797  1.978436  5.618905
N    -1.314479  1.921967  5.876843
C    -0.744128  0.863146  6.551985
N    0.612180  1.065056  6.821972
N    -1.470662  -0.158661  6.876786
H    -3.817515  2.077720  2.320534
H    -3.013785  3.319435  3.262668
H    -2.761734  0.388354  4.157659
H    -4.285124  1.224260  4.368160
H    -3.242713  1.421426  6.422040
H    -3.058608  3.029620  5.687903
H    -0.779372  2.778777  5.840224
H    1.087864  0.227446  7.138248
H    1.130871  1.539695  6.077198
H    -0.902905  -0.875898  7.332525
N    -2.247872  2.078675  -0.197579
C    -2.484707  2.679175  -1.498095
H    -2.433355  1.090743  -0.074225
H    -2.206546  3.735777  -1.426876
H    -3.543080  2.606209  -1.784598
H    -1.870769  2.199887  -2.272579
