35
Energy: -21190.1100473 eV PBE+vdW (tier 2 basis)
C    0.099100  -0.035247  0.236129
C    -0.035940  -0.066676  1.743556
O    0.944046  -0.060854  2.486824
H    1.121845  0.271313  0.001390
H    -0.615217  0.636177  -0.253147
H    -0.068350  -1.039070  -0.179430
N    -1.298228  -0.139148  2.292420
C    -2.625739  -0.100294  1.671382
C    -2.765995  -1.139871  0.531071
O    -3.012616  -0.811083  -0.625530
H    -1.266314  -0.138920  3.307671
H    -3.313476  -0.428076  2.469302
C    -3.069569  1.302948  1.231727
C    -4.586860  1.454222  1.099710
C    -4.991501  2.909570  0.828784
N    -6.427809  3.135826  0.760264
C    -7.121056  2.886597  -0.413456
N    -8.512452  2.992460  -0.233642
N    -6.498574  2.573850  -1.496177
H    -2.591920  1.553754  0.274389
H    -2.686967  2.010546  1.984029
H    -5.072175  1.113920  2.032372
H    -4.962811  0.824002  0.282622
H    -4.575385  3.234688  -0.133159
H    -4.583200  3.567192  1.612715
H    -6.946979  2.924685  1.606675
H    -9.031111  2.981175  -1.105594
H    -8.802227  3.767423  0.358798
H    -7.135225  2.537211  -2.295122
N    -2.608498  -2.453967  0.876227
C    -2.304546  -3.031611  2.174760
H    -2.683324  -3.081667  0.082026
H    -2.551911  -4.098675  2.145804
H    -2.914372  -2.576963  2.967229
H    -1.245373  -2.923297  2.449511
