35
Energy: -21190.3858417 eV PBE+vdW (tier 2 basis)
C    -0.160047  0.269662  2.680649
C    -0.137742  -1.243633  2.598582
O    0.798092  -1.916726  3.019071
H    -0.058807  0.715783  1.680191
H    0.690485  0.587227  3.288874
H    -1.091736  0.649962  3.120857
N    -1.235425  -1.857301  2.029034
C    -2.361812  -1.243782  1.335956
C    -3.634304  -1.084406  2.208692
O    -4.649638  -0.580598  1.733332
H    -1.115229  -2.862446  1.923590
H    -2.086427  -0.212528  1.068036
C    -2.705579  -1.996247  0.038216
C    -1.816149  -1.671292  -1.167308
C    -0.330826  -2.002493  -1.010955
N    0.374451  -1.758751  -2.254855
C    1.766910  -1.788357  -2.306589
N    2.244144  -1.673497  -3.617822
N    2.600808  -1.907383  -1.334123
H    -3.742682  -1.738440  -0.212087
H    -2.694503  -3.080557  0.244960
H    -1.917720  -0.604451  -1.420809
H    -2.212413  -2.228523  -2.032721
H    -0.209790  -3.047738  -0.660689
H    0.125981  -1.362655  -0.243186
H    -0.077723  -2.131158  -3.085744
H    3.255191  -1.572063  -3.620949
H    1.786768  -0.954483  -4.172551
H    2.138399  -2.128953  -0.449506
N    -3.517197  -1.512359  3.491613
C    -4.594323  -1.410208  4.456006
H    -2.623549  -1.908026  3.764529
H    -4.307700  -0.775059  5.305644
H    -4.881053  -2.400489  4.835674
H    -5.453726  -0.959943  3.947595
