35
Energy: -21190.2590286 eV PBE+vdW (tier 2 basis)
C    -0.155113  0.457086  0.269139
C    -0.119541  0.199453  1.761677
O    0.920223  0.291928  2.408640
H    -0.319802  1.529991  0.096297
H    -0.935592  -0.096430  -0.264479
H    0.827327  0.201358  -0.139559
N    -1.293454  -0.163798  2.396908
C    -2.676839  -0.123681  1.908602
C    -3.014613  -1.244310  0.889414
O    -3.985656  -1.151638  0.143636
H    -1.166503  -0.214815  3.403829
H    -3.284296  -0.378714  2.793203
C    -3.163052  1.248425  1.413604
C    -2.964290  2.361830  2.440958
C    -3.471172  3.710327  1.935302
N    -3.210530  4.756648  2.911896
C    -3.865429  5.972622  2.820009
N    -3.486178  6.888931  3.810423
N    -4.792056  6.150219  1.941040
H    -4.225720  1.138530  1.160105
H    -2.662206  1.508361  0.470019
H    -1.893367  2.445899  2.694595
H    -3.484990  2.111865  3.379903
H    -4.555173  3.692153  1.765749
H    -3.013584  3.946831  0.956104
H    -2.260671  4.789013  3.267811
H    -3.574605  7.861491  3.540524
H    -2.627335  6.699037  4.317530
H    -5.264849  7.045699  2.084895
N    -2.195916  -2.329783  0.942609
C    -2.379550  -3.493880  0.099462
H    -1.405478  -2.281274  1.576363
H    -2.519474  -4.401598  0.702578
H    -1.519333  -3.642499  -0.568587
H    -3.276316  -3.326779  -0.506813
