35
Energy: -21190.0331916 eV PBE+vdW (tier 2 basis)
C    0.043263  -0.087153  0.099973
C    0.074424  -0.022013  1.612219
O    1.129266  0.020877  2.241716
H    1.030846  0.207480  -0.264644
H    -0.726577  0.548569  -0.351090
H    -0.155701  -1.117143  -0.228830
N    -1.120471  -0.050177  2.300414
C    -2.506793  -0.053586  1.826184
C    -2.766603  -1.161180  0.773522
O    -3.170585  -0.903342  -0.358071
H    -0.975646  0.006168  3.304186
H    -3.097004  -0.340871  2.712492
C    -2.998425  1.320846  1.344699
C    -4.523547  1.477469  1.301581
C    -5.211081  1.517550  2.675128
N    -4.758891  2.602942  3.544387
C    -5.447172  3.792057  3.750765
N    -6.341472  4.123253  2.732623
N    -5.344642  4.573220  4.772738
H    -2.593395  1.510564  0.342667
H    -2.571774  2.080294  2.016240
H    -4.969374  0.670723  0.701371
H    -4.751881  2.410211  0.762192
H    -5.048412  0.569536  3.211457
H    -6.298287  1.601915  2.535817
H    -4.165768  2.344098  4.321727
H    -6.716595  5.055218  2.881830
H    -6.006121  3.986135  1.783495
H    -4.777467  4.151640  5.513411
N    -2.538859  -2.449859  1.166558
C    -2.061558  -2.950257  2.445518
H    -2.701457  -3.123081  0.424255
H    -2.294149  -4.019167  2.507133
H    -2.571936  -2.456633  3.283536
H    -0.977974  -2.817550  2.574751
