35
Energy: -21189.8932938 eV PBE+vdW (tier 2 basis)
C    -0.005564  -0.250913  0.142841
C    -0.176406  -0.666108  1.589345
O    0.676924  -1.331974  2.170719
H    0.977556  -0.596934  -0.186235
H    -0.066145  0.835915  0.002927
H    -0.772650  -0.723193  -0.485403
N    -1.312891  -0.282887  2.271319
C    -2.555309  0.372003  1.839733
C    -3.443349  -0.650030  1.067729
O    -3.965911  -1.544320  1.733135
H    -1.362087  -0.740972  3.176789
H    -3.126251  0.469834  2.774295
C    -2.357892  1.799753  1.312093
C    -3.641193  2.636302  1.368284
C    -3.520229  4.022952  0.712735
N    -3.469206  4.019190  -0.740363
C    -2.311768  3.866964  -1.488889
N    -2.585497  3.650477  -2.847437
N    -1.083852  3.877985  -1.097358
H    -1.943594  1.813443  0.300819
H    -1.596533  2.267364  1.955938
H    -3.938313  2.777174  2.420683
H    -4.478363  2.096800  0.894103
H    -2.628690  4.549212  1.085815
H    -4.380269  4.640183  1.010827
H    -4.319719  3.713921  -1.201657
H    -1.727289  3.709194  -3.389295
H    -3.309493  4.251229  -3.234460
H    -1.004301  3.940236  -0.080747
N    -3.612677  -0.640453  -0.293294
C    -3.309810  0.328541  -1.339003
H    -4.216201  -1.411632  -0.566881
H    -3.498048  -0.154252  -2.303980
H    -2.262691  0.644432  -1.336872
H    -3.942087  1.225997  -1.286742
