35
Energy: -21190.3503408 eV PBE+vdW (tier 2 basis)
C    0.082006  -0.432223  0.124803
C    0.086771  -0.020543  1.587601
O    1.137430  0.117853  2.210790
H    1.068232  -0.208314  -0.291056
H    -0.690366  0.074264  -0.469504
H    -0.087517  -1.514895  0.040936
N    -1.123453  0.177161  2.197884
C    -2.459078  0.102209  1.646288
C    -3.366384  0.915379  2.599207
O    -2.970851  1.306398  3.697220
H    -1.088421  0.525110  3.157467
H    -2.491563  0.610090  0.666333
C    -2.968976  -1.350698  1.430629
C    -2.905251  -2.288030  2.639554
C    -3.928972  -1.989024  3.744616
N    -4.021057  -3.077724  4.710232
C    -4.877893  -4.137689  4.481111
N    -4.949594  -5.013383  5.576804
N    -5.532702  -4.224587  3.372595
H    -2.369261  -1.784717  0.618386
H    -4.001518  -1.317067  1.044680
H    -1.890612  -2.283291  3.064791
H    -3.097460  -3.308098  2.279864
H    -4.920499  -1.826980  3.291123
H    -3.652949  -1.084409  4.299426
H    -3.897508  -2.825653  5.683099
H    -5.417858  -5.888413  5.367257
H    -4.064894  -5.169752  6.053835
H    -6.055386  -5.101577  3.320448
N    -4.620782  1.150276  2.132600
C    -5.649679  1.785996  2.935422
H    -4.885553  0.744966  1.242767
H    -6.202016  2.520764  2.336713
H    -5.158014  2.296390  3.769462
H    -6.358280  1.048891  3.342121
