35
Energy: -21190.1482784 eV PBE+vdW (tier 2 basis)
C    0.141178  0.745738  1.186389
C    -0.224548  0.335978  2.597068
O    0.598890  0.330076  3.511024
H    0.187899  -0.133875  0.529202
H    1.130580  1.208983  1.222216
H    -0.579158  1.442022  0.741876
N    -1.516068  -0.072545  2.850335
C    -2.700087  -0.113726  1.986662
C    -2.437419  -0.896832  0.675473
O    -2.582358  -0.385542  -0.432379
H    -1.653574  -0.297030  3.831216
H    -3.434122  -0.713317  2.552860
C    -3.327266  1.262297  1.725922
C    -4.784082  1.188276  1.262818
C    -5.429184  2.558592  1.016686
N    -5.542286  3.403935  2.197201
C    -4.619593  4.393725  2.479274
N    -4.853529  4.984922  3.734767
N    -3.661671  4.670000  1.662314
H    -2.738295  1.809928  0.979763
H    -3.256512  1.833813  2.662053
H    -5.384323  0.631959  2.006749
H    -4.844924  0.618428  0.323924
H    -6.435718  2.412387  0.595195
H    -4.839781  3.127680  0.287181
H    -5.992694  2.991033  3.006894
H    -4.293357  5.815128  3.896944
H    -5.834472  5.154660  3.945646
H    -3.141160  5.494584  1.968209
N    -2.045514  -2.200928  0.803305
C    -1.817762  -2.979747  2.009307
H    -1.863238  -2.646025  -0.090616
H    -0.856684  -2.746780  2.489659
H    -2.617956  -2.820180  2.744519
H    -1.828393  -4.042449  1.741935
