35
Energy: -21190.3539306 eV PBE+vdW (tier 2 basis)
C    -0.111191  0.749952  -0.413699
C    -0.125801  -0.108048  0.832589
O    0.819809  -0.857291  1.104437
H    0.925236  1.035745  -0.617865
H    -0.735868  1.649194  -0.345267
H    -0.465722  0.141602  -1.257774
N    -1.213160  -0.051937  1.652479
C    -2.524098  0.513285  1.392683
C    -3.284671  0.446278  2.728482
O    -3.010833  -0.410242  3.569512
H    -1.186170  -0.664757  2.469586
H    -2.418709  1.566090  1.087298
C    -3.330747  -0.221208  0.285243
C    -3.587764  -1.723132  0.491628
C    -2.408205  -2.668419  0.224484
N    -1.853145  -2.448298  -1.114718
C    -0.707197  -3.124858  -1.571329
N    0.276044  -3.312989  -0.619655
N    -0.527883  -3.551839  -2.778547
H    -2.806928  -0.069732  -0.668615
H    -4.299705  0.290279  0.183849
H    -4.414235  -2.007367  -0.180995
H    -3.954623  -1.916604  1.510520
H    -2.760460  -3.708696  0.352969
H    -1.614318  -2.521473  0.962730
H    -2.571625  -2.465215  -1.835400
H    0.457046  -2.550320  0.037137
H    1.122202  -3.683252  -1.040046
H    -1.386372  -3.472976  -3.331327
N    -4.302481  1.332270  2.917283
C    -4.662147  2.482122  2.101539
H    -4.778871  1.208848  3.805086
H    -5.463853  3.025801  2.611477
H    -5.036483  2.191343  1.109923
H    -3.819453  3.176184  1.969786
