35
Energy: -21190.4034285 eV PBE+vdW (tier 2 basis)
C    -0.368490  0.601136  -0.108706
C    -0.280648  0.098817  1.320970
O    0.609382  -0.659626  1.697978
H    0.588733  1.061391  -0.381234
H    -1.176430  1.324202  -0.276988
H    -0.520053  -0.259995  -0.771914
N    -1.264604  0.547501  2.161848
C    -1.357981  0.100489  3.550257
C    -2.849558  0.048558  3.940404
O    -3.484333  -1.003334  3.925527
H    -1.983270  1.164092  1.802080
H    -1.009179  -0.940823  3.568697
C    -0.479482  0.945647  4.485054
C    -0.429643  0.402385  5.920189
C    -0.066919  1.456232  6.976991
N    -1.158546  2.393425  7.277916
C    -1.519543  3.453982  6.453018
N    -0.454427  4.137538  5.879104
N    -2.727122  3.841154  6.186588
H    -0.820111  1.991022  4.470454
H    0.534572  0.964564  4.061502
H    0.294157  -0.425420  5.974715
H    -1.403316  -0.035882  6.198888
H    0.817366  2.026969  6.663648
H    0.201912  0.962002  7.921304
H    -1.980006  1.922861  7.648193
H    -0.758055  5.007572  5.453756
H    0.370707  4.241769  6.460491
H    -3.411925  3.197490  6.593366
N    -3.425471  1.250194  4.238566
C    -4.826878  1.340580  4.609609
H    -2.847079  2.067065  4.419678
H    -5.120876  2.395400  4.615641
H    -5.019697  0.905098  5.602878
H    -5.441448  0.792103  3.886169
