35
Energy: -21190.4730537 eV PBE+vdW (tier 2 basis)
C    0.115737  0.284281  0.091582
C    0.102954  0.071776  1.593683
O    1.124834  0.029932  2.268252
H    0.898757  -0.342405  -0.349383
H    0.379324  1.331128  -0.110914
H    -0.843338  0.064735  -0.394176
N    -1.144616  -0.085123  2.159866
C    -1.327840  -0.054796  3.609662
C    -0.804836  -1.318956  4.311457
O    -0.405012  -1.263074  5.478801
H    -1.957742  0.113460  1.586101
H    -0.719855  0.762037  4.020930
C    -2.820519  0.217069  3.892162
C    -3.346361  0.056566  5.325530
C    -2.608755  0.841276  6.433711
N    -2.079231  2.120151  5.998692
C    -0.785896  2.572154  6.237177
N    0.154752  1.590070  6.508019
N    -0.589006  3.851279  6.197185
H    -3.416785  -0.451933  3.248321
H    -3.014005  1.246789  3.555848
H    -3.350739  -1.005930  5.612928
H    -4.403152  0.364830  5.298127
H    -1.780400  0.233798  6.806202
H    -3.297421  0.972168  7.286471
H    -2.719957  2.906506  5.964032
H    1.115177  1.903770  6.450664
H    0.012241  0.637548  6.160937
H    0.403829  4.074205  6.297124
N    -0.870736  -2.465148  3.593413
C    -0.353932  -3.729457  4.080537
H    -1.094220  -2.364418  2.608854
H    0.617732  -3.970287  3.624860
H    -1.060390  -4.541870  3.867456
H    -0.218763  -3.642803  5.163505
