35
Energy: -21190.2161605 eV PBE+vdW (tier 2 basis)
C    -0.469198  -0.955556  -0.573479
C    0.165997  -0.066470  0.481959
O    1.367075  0.198614  0.455540
H    0.269268  -1.108651  -1.364872
H    -1.378502  -0.520748  -1.009155
H    -0.736232  -1.929263  -0.140339
N    -0.625720  0.412147  1.494767
C    -2.072135  0.367027  1.663582
C    -2.619649  -1.077389  1.565318
O    -2.143350  -1.977631  2.250343
H    -0.139232  1.042282  2.133201
H    -2.237566  0.602139  2.723335
C    -2.808364  1.456153  0.844980
C    -2.264918  2.873942  1.078545
C    -2.767731  3.604043  2.333149
N    -2.708654  2.855790  3.592978
C    -1.506293  2.621714  4.239415
N    -1.675996  2.194083  5.561701
N    -0.385473  2.813835  3.627909
H    -3.883302  1.428941  1.092281
H    -2.714303  1.230369  -0.230183
H    -2.549125  3.508970  0.225663
H    -1.168721  2.849243  1.088216
H    -3.828244  3.861441  2.197856
H    -2.204817  4.548089  2.424995
H    -3.482321  3.043442  4.220082
H    -0.844924  1.774641  5.965076
H    -2.499248  1.622318  5.733329
H    0.409207  2.553296  4.216569
N    -3.679474  -1.265442  0.725664
C    -4.294591  -2.564034  0.531996
H    -3.974670  -0.494074  0.140825
H    -5.387966  -2.491683  0.601019
H    -3.923600  -3.226982  1.320609
H    -4.027761  -2.998058  -0.443325
