35
Energy: -21190.1580407 eV PBE+vdW (tier 2 basis)
C    -0.166924  -0.234480  0.162852
C    -0.075364  -0.098369  1.670194
O    1.003691  -0.132371  2.257077
H    0.771129  -0.672050  -0.189062
H    -0.277593  0.758014  -0.296310
H    -1.006478  -0.857836  -0.167418
N    -1.235527  0.116719  2.377415
C    -2.621300  0.129305  1.921819
C    -3.016231  -1.251513  1.319470
O    -2.669379  -2.289933  1.871298
H    -1.078566  0.098917  3.379266
H    -3.212839  0.166070  2.850505
C    -3.015353  1.381705  1.111236
C    -2.668346  2.722687  1.782004
C    -1.268747  3.260086  1.437893
N    -1.016373  4.606616  1.925339
C    -1.568809  5.703948  1.293494
N    -1.308364  6.900627  1.981447
N    -2.258804  5.564824  0.211579
H    -4.106648  1.348309  0.966884
H    -2.565636  1.357909  0.105452
H    -2.773941  2.633913  2.876070
H    -3.390826  3.479742  1.449395
H    -1.159418  3.293256  0.345134
H    -0.481631  2.610241  1.839774
H    -0.867940  4.705486  2.923514
H    -1.563478  7.731763  1.458874
H    -0.369146  6.974866  2.365252
H    -2.489873  6.472968  -0.197155
N    -3.784046  -1.223175  0.191679
C    -4.261578  -2.431149  -0.455408
H    -3.993476  -0.327759  -0.230887
H    -5.357230  -2.429848  -0.535332
H    -3.946532  -3.280739  0.159246
H    -3.832266  -2.541581  -1.461354
