35
Energy: -21190.1004412 eV PBE+vdW (tier 2 basis)
C    -0.895836  2.052388  1.984671
C    -0.251769  0.689481  2.135516
O    0.895974  0.536626  2.547571
H    -1.276594  2.211972  0.966439
H    -0.143886  2.811066  2.214973
H    -1.748089  2.170591  2.668919
N    -1.012960  -0.401565  1.781329
C    -2.431294  -0.428974  1.463332
C    -3.400943  -0.089329  2.622146
O    -4.409503  0.570878  2.373994
H    -0.533607  -1.285092  1.932367
H    -2.648571  0.360465  0.728820
C    -2.822920  -1.774374  0.830144
C    -2.185100  -2.015445  -0.540212
C    -2.613943  -3.348159  -1.149445
N    -1.990891  -3.533198  -2.458453
C    -2.259827  -4.645149  -3.253093
N    -3.601782  -5.034687  -3.259624
N    -1.282926  -5.210219  -3.875386
H    -3.918732  -1.784981  0.737223
H    -2.563839  -2.595807  1.520076
H    -1.086490  -1.988676  -0.457449
H    -2.462318  -1.200593  -1.226621
H    -3.707445  -3.357170  -1.263160
H    -2.366528  -4.176795  -0.456757
H    -0.984216  -3.378940  -2.455969
H    -3.829035  -5.709795  -3.981037
H    -4.280738  -4.279805  -3.211841
H    -1.615509  -5.919825  -4.533807
N    -3.140620  -0.526797  3.889512
C    -2.081749  -1.386425  4.402371
H    -3.854263  -0.227144  4.546629
H    -1.955563  -2.290675  3.792191
H    -2.372486  -1.715029  5.406310
H    -1.114230  -0.871725  4.476924
