35
Energy: -21189.8192345 eV PBE+vdW (tier 2 basis)
C    1.338655  1.323304  -0.050692
C    0.763431  2.344363  0.912443
O    0.933161  3.549914  0.753817
H    1.848929  1.868613  -0.848602
H    0.557630  0.692152  -0.494659
H    2.062494  0.668120  0.452818
N    0.034152  1.888368  1.987361
C    -0.237783  0.521986  2.436190
C    1.092726  -0.215754  2.779239
O    1.832261  0.316177  3.604552
H    -0.186938  2.637399  2.635108
H    -0.638545  0.657762  3.452169
C    -1.338205  -0.174342  1.617811
C    -2.673373  0.581739  1.612146
C    -3.339232  0.753175  2.989178
N    -3.471467  -0.466636  3.791135
C    -4.109849  -1.621822  3.342111
N    -5.193507  -1.385043  2.499892
N    -3.790919  -2.838543  3.630394
H    -1.501620  -1.182340  2.025814
H    -1.024370  -0.312811  0.575770
H    -3.367259  0.039562  0.955054
H    -2.536473  1.581483  1.172619
H    -4.328297  1.214208  2.848106
H    -2.779549  1.466296  3.611400
H    -2.670617  -0.677530  4.376080
H    -5.724397  -2.236364  2.343702
H    -5.779968  -0.593871  2.748190
H    -2.906793  -2.879935  4.145239
N    1.434102  -1.432724  2.251377
C    0.882358  -2.247919  1.176912
H    2.309730  -1.753801  2.654655
H    -0.064644  -2.730950  1.452144
H    0.732595  -1.675230  0.253518
H    1.607932  -3.038561  0.958135
