35
Energy: -21190.1307277 eV PBE+vdW (tier 2 basis)
C    -0.051522  -0.112480  0.443457
C    -0.410149  -0.233577  1.909741
O    0.439545  -0.444787  2.773545
H    1.023858  0.073071  0.377745
H    -0.600347  0.678204  -0.080043
H    -0.273418  -1.056872  -0.074020
N    -1.736667  -0.147018  2.270407
C    -2.927946  0.158195  1.473625
C    -3.059799  -0.740411  0.220015
O    -3.182743  -0.271543  -0.908437
H    -1.858778  -0.238166  3.274530
H    -3.774940  -0.124782  2.121706
C    -3.089205  1.642139  1.115564
C    -3.032022  2.592265  2.313681
C    -4.114018  2.376438  3.381838
N    -5.470079  2.308838  2.837070
C    -6.140009  3.475451  2.498977
N    -7.472353  3.227583  2.128478
N    -5.549913  4.617002  2.577250
H    -4.047277  1.755523  0.591156
H    -2.319387  1.926468  0.386086
H    -3.121078  3.622184  1.944788
H    -2.052514  2.522688  2.811931
H    -4.042367  3.188289  4.122665
H    -3.947548  1.429894  3.917912
H    -6.067951  1.597541  3.241879
H    -7.937322  4.033369  1.723852
H    -7.604255  2.396135  1.557445
H    -6.138530  5.367181  2.208211
N    -3.055419  -2.093940  0.423243
C    -2.967536  -2.841569  1.666769
H    -3.127664  -2.619603  -0.442072
H    -1.939660  -2.910070  2.050601
H    -3.342731  -3.855706  1.487904
H    -3.596533  -2.393626  2.447870
