35
Energy: -21190.2713443 eV PBE+vdW (tier 2 basis)
C    1.039512  1.949669  1.206508
C    0.059421  1.644123  2.318261
O    -0.142403  2.458035  3.228055
H    2.035387  2.024154  1.667475
H    0.796912  2.929766  0.778856
H    1.063459  1.199560  0.406682
N    -0.548295  0.422756  2.235222
C    -1.399852  -0.291015  3.198918
C    -2.917515  -0.316945  2.879187
O    -3.491706  -1.406507  2.932593
H    -0.293333  -0.125751  1.422775
H    -1.146393  -1.352131  3.064212
C    -1.128910  0.041023  4.677042
C    0.240368  -0.479241  5.168513
C    0.988778  0.498041  6.093257
N    1.685385  1.567697  5.395106
C    2.916326  1.332655  4.794462
N    3.287224  2.357891  3.912561
N    3.718233  0.332165  4.939867
H    -1.933190  -0.432951  5.256012
H    -1.216365  1.121480  4.834736
H    0.896960  -0.697466  4.312287
H    0.094540  -1.436625  5.690491
H    1.723512  -0.043549  6.705815
H    0.286610  0.958868  6.804481
H    1.071613  2.165126  4.837562
H    4.280359  2.306956  3.704437
H    2.998037  3.289521  4.198245
H    3.307828  -0.403644  5.517634
N    -3.605721  0.819048  2.580695
C    -3.171684  2.202174  2.483353
H    -4.581745  0.620485  2.379672
H    -2.316818  2.402761  3.136487
H    -3.997459  2.853654  2.794281
H    -2.884556  2.474795  1.455238
