35
Energy: -21190.6620438 eV PBE+vdW (tier 2 basis)
C    -2.663877  2.179001  0.142709
C    -1.778505  1.567595  1.207521
O    -0.544454  1.623330  1.138101
H    -2.369928  1.775581  -0.833764
H    -2.486135  3.261842  0.116366
H    -3.733187  1.998538  0.303555
N    -2.426947  0.976280  2.244984
C    -1.745047  0.236706  3.289954
C    -2.573652  -1.033748  3.545874
O    -3.787301  -1.052260  3.336530
H    -3.430888  0.809216  2.202199
H    -0.746877  -0.020779  2.905521
C    -1.618532  1.044942  4.605520
C    -0.789901  2.328999  4.501077
C    0.713700  2.087513  4.277098
N    1.536165  3.281928  4.293669
C    1.576057  4.236142  3.281790
N    1.367832  3.763806  1.995851
N    1.898541  5.444211  3.619682
H    -1.181988  0.385974  5.374582
H    -2.636774  1.284371  4.947496
H    -0.917020  2.898795  5.434664
H    -1.183712  2.971547  3.699485
H    0.877280  1.557149  3.328446
H    1.094430  1.418364  5.066095
H    1.637232  3.741125  5.194145
H    1.214520  4.488209  1.306304
H    0.797871  2.934194  1.829176
H    2.000196  6.041639  2.795652
N    -1.876102  -2.086466  4.047236
C    -2.499396  -3.341549  4.427295
H    -0.872930  -1.988308  4.150138
H    -2.352115  -3.550034  5.495907
H    -2.094021  -4.177282  3.841055
H    -3.571531  -3.252574  4.225090
