35
Energy: -21190.3011952 eV PBE+vdW (tier 2 basis)
C    0.234167  0.212131  -0.019006
C    -0.363648  -0.895938  0.834290
O    -0.013134  -2.066888  0.707366
H    0.803238  0.924485  0.596311
H    -0.528463  0.779898  -0.567202
H    0.917826  -0.253976  -0.733189
N    -1.316136  -0.545506  1.757500
C    -1.779410  0.776086  2.128123
C    -1.724337  0.893457  3.661648
O    -1.906231  -0.089365  4.378010
H    -1.589333  -1.291400  2.396678
H    -1.119415  1.521500  1.666451
C    -3.233399  1.050305  1.672676
C    -3.383000  1.167246  0.158901
C    -4.827651  1.413956  -0.304147
N    -5.504877  2.554565  0.301456
C    -5.124444  3.852244  0.026745
N    -5.839859  4.788718  0.795260
N    -4.187311  4.103315  -0.824345
H    -3.578667  1.981295  2.150227
H    -3.866232  0.240789  2.072349
H    -3.032770  0.242273  -0.324511
H    -2.759913  1.992528  -0.214567
H    -5.449288  0.531414  -0.092939
H    -4.829370  1.566433  -1.391498
H    -5.908593  2.405657  1.218832
H    -5.693365  5.747604  0.497684
H    -6.830623  4.581948  0.900309
H    -4.116482  5.106731  -1.008411
N    -1.526351  2.139411  4.181815
C    -1.231711  3.370191  3.463682
H    -1.531375  2.162581  5.196594
H    -1.173964  4.186583  4.190966
H    -2.017483  3.627617  2.739344
H    -0.267798  3.325012  2.934641
