35
Energy: -21189.7998526 eV PBE+vdW (tier 2 basis)
C    0.004227  -0.111345  -0.042809
C    -0.284071  -0.250273  1.439748
O    0.641280  -0.405620  2.237163
H    -0.512267  -0.864756  -0.648317
H    1.083201  -0.232514  -0.170032
H    -0.286615  0.877211  -0.419035
N    -1.572046  -0.178091  1.928878
C    -2.938930  -0.119427  1.394228
C    -3.768369  -1.412478  1.616477
O    -4.905681  -1.300876  2.073457
H    -1.545030  -0.268960  2.942502
H    -3.475986  0.582539  2.050544
C    -3.128249  0.409375  -0.034287
C    -2.858703  1.914759  -0.155025
C    -2.819149  2.417552  -1.598588
N    -4.084263  2.186518  -2.269234
C    -4.314845  2.350595  -3.624830
N    -3.171507  2.295813  -4.430686
N    -5.536617  2.442289  -4.028822
H    -4.172269  0.204039  -0.305860
H    -2.521424  -0.149424  -0.758909
H    -3.631476  2.466211  0.405924
H    -1.903953  2.178274  0.322948
H    -2.030626  1.865145  -2.135849
H    -2.526902  3.487142  -1.596468
H    -4.926692  2.378420  -1.735088
H    -3.334870  2.609884  -5.380373
H    -2.316964  2.684925  -4.044337
H    -5.593274  2.511513  -5.047045
N    -3.255294  -2.641005  1.315549
C    -2.017472  -3.010824  0.648599
H    -3.920870  -3.382999  1.508566
H    -2.048506  -4.087648  0.452224
H    -1.131771  -2.804171  1.263069
H    -1.905816  -2.507031  -0.321394
