35
Energy: -21190.6819303 eV PBE+vdW (tier 2 basis)
C    -0.173290  0.487004  3.089105
C    0.008342  -0.520457  1.976120
O    1.062377  -1.155982  1.833156
H    0.684146  0.423287  3.763743
H    -1.102283  0.315959  3.648826
H    -0.227325  1.506645  2.679991
N    -1.041118  -0.729475  1.120851
C    -2.201213  0.131343  0.916044
C    -3.346958  -0.096971  1.926269
O    -4.217856  0.755392  2.086304
H    -0.744629  -1.243602  0.273517
H    -1.930572  1.194233  1.025914
C    -2.764921  -0.082522  -0.505345
C    -1.833863  0.285435  -1.683500
C    -1.048867  -0.871942  -2.318591
N    -0.014672  -1.397357  -1.433634
C    0.382628  -2.741664  -1.488119
N    1.461338  -2.971722  -0.642467
N    -0.241764  -3.569149  -2.252106
H    -3.678323  0.523239  -0.559203
H    -3.084410  -1.133571  -0.600123
H    -1.141823  1.089652  -1.380236
H    -2.450085  0.720177  -2.484153
H    -0.615505  -0.539152  -3.277178
H    -1.711911  -1.713806  -2.555501
H    0.764531  -0.765204  -1.263633
H    1.700035  -3.948107  -0.514824
H    1.467005  -2.429292  0.230421
H    0.080901  -4.527067  -2.095559
N    -3.317060  -1.297953  2.561924
C    -4.334029  -1.718176  3.503790
H    -2.531095  -1.904766  2.349892
H    -4.856915  -2.618080  3.150541
H    -5.057401  -0.900821  3.597124
H    -3.899869  -1.926996  4.491564
