35
Energy: -21190.5723275 eV PBE+vdW (tier 2 basis)
C    0.017714  0.125277  -0.217319
C    -0.103574  0.772934  1.149050
O    0.530040  1.771161  1.469432
H    -0.461416  -0.859508  -0.285535
H    1.079197  0.030439  -0.472502
H    -0.439499  0.791044  -0.961414
N    -0.973626  0.154685  2.023798
C    -1.364614  0.790991  3.279096
C    -0.318440  0.628138  4.399569
O    -0.321036  1.382283  5.378633
H    -1.578304  -0.574376  1.659912
H    -1.433033  1.874417  3.111429
C    -2.746285  0.240767  3.695766
C    -3.374542  0.790910  4.984934
C    -3.781146  2.267464  4.960513
N    -2.629285  3.140323  4.912850
C    -2.745221  4.507990  4.778290
N    -1.513579  5.163857  4.846520
N    -3.823411  5.203348  4.615397
H    -2.662990  -0.855395  3.791698
H    -3.434048  0.434767  2.855813
H    -2.707469  0.609676  5.840272
H    -4.284587  0.204317  5.178910
H    -4.409439  2.469217  5.850408
H    -4.419388  2.460306  4.079572
H    -1.762605  2.762481  5.303939
H    -1.596949  6.131377  4.551245
H    -0.736913  4.679903  4.404625
H    -4.658773  4.622116  4.711454
N    0.545604  -0.404093  4.254675
C    1.626014  -0.663095  5.186437
H    0.528084  -0.883443  3.360823
H    1.664238  -1.728761  5.446639
H    1.437389  -0.076395  6.091349
H    2.597559  -0.361537  4.768775
