35
Energy: -21190.4701101 eV PBE+vdW (tier 2 basis)
C    -0.878934  1.374282  -0.317080
C    -0.806473  0.383812  0.824936
O    -0.182623  -0.679611  0.730074
H    0.141929  1.667115  -0.592106
H    -1.458012  2.275905  -0.083572
H    -1.322666  0.878138  -1.189097
N    -1.462421  0.737776  1.967130
C    -1.461187  -0.104412  3.162788
C    -2.568145  -1.187731  3.044959
O    -3.657954  -1.082034  3.606314
H    -2.038885  1.571964  1.970698
H    -0.485030  -0.610338  3.160479
C    -1.620772  0.757943  4.415146
C    -1.519255  -0.001706  5.743250
C    -0.190201  -0.726155  5.960781
N    -0.151671  -1.307310  7.293578
C    0.963275  -1.891339  7.878488
N    2.155747  -1.696914  7.180899
N    0.997589  -2.504616  9.014241
H    -2.604848  1.249425  4.378105
H    -0.854861  1.548715  4.378277
H    -2.350081  -0.720607  5.808104
H    -1.657603  0.717003  6.564612
H    0.642191  -0.011017  5.867580
H    -0.051251  -1.495951  5.174896
H    -1.035662  -1.652961  7.648787
H    2.906964  -2.227945  7.610981
H    2.116598  -1.817558  6.173444
H    0.091152  -2.462729  9.487938
N    -2.199931  -2.232773  2.257307
C    -3.117480  -3.298234  1.901283
H    -1.337735  -2.110916  1.721357
H    -2.610562  -4.270114  1.952109
H    -3.523544  -3.164974  0.886953
H    -3.949610  -3.285567  2.612862
