35
Energy: -21190.2647005 eV PBE+vdW (tier 2 basis)
C    -1.450614  0.214530  -0.332379
C    -0.735944  0.316078  1.001085
O    0.489040  0.258004  1.085630
H    -0.936479  -0.523856  -0.956414
H    -1.375816  1.189164  -0.834238
H    -2.511184  -0.053356  -0.246638
N    -1.563550  0.454614  2.086826
C    -1.121846  0.831002  3.424447
C    -0.707252  2.327771  3.426453
O    -0.577857  2.951968  2.370312
H    -2.535172  0.646595  1.874213
H    -2.039787  0.791495  4.030171
C    -0.143599  -0.237330  4.038081
C    1.234678  0.133297  4.614060
C    2.368630  0.423570  3.616093
N    2.298673  1.694014  2.933875
C    2.575265  2.901211  3.533981
N    2.235147  3.995812  2.738319
N    3.127852  3.108748  4.690739
H    0.004831  -0.997066  3.261026
H    -0.703733  -0.739485  4.840561
H    1.551389  -0.737016  5.212052
H    1.170540  0.966282  5.325152
H    2.388399  -0.354608  2.842011
H    3.329011  0.354583  4.153071
H    1.796412  1.686667  2.050943
H    2.369401  4.866277  3.242551
H    1.324587  3.925755  2.282431
H    3.437367  2.231283  5.114971
N    -0.561638  2.948874  4.626383
C    -0.791257  2.463444  5.973778
H    -0.217519  3.901453  4.537460
H    0.140512  2.463586  6.557355
H    -1.185009  1.443302  5.959418
H    -1.525370  3.100268  6.488240
