35
Energy: -21190.1133074 eV PBE+vdW (tier 2 basis)
C    -0.879621  -1.598360  1.694931
C    -0.859085  -0.382604  2.597383
O    -0.009051  -0.235099  3.472991
H    -1.095295  -1.364357  0.646262
H    -1.652684  -2.303353  2.032557
H    0.094448  -2.088151  1.774263
N    -1.852642  0.562487  2.453163
C    -2.924322  0.684501  1.462554
C    -3.771568  -0.605006  1.324565
O    -3.919648  -1.167573  0.242085
H    -1.736221  1.332388  3.105176
H    -3.602308  1.449108  1.879242
C    -2.466885  1.178708  0.084868
C    -1.683879  2.488528  0.123642
C    -1.313884  2.997984  -1.275836
N    -2.471259  3.372238  -2.088231
C    -2.804783  2.801408  -3.313551
N    -2.416967  1.469472  -3.456960
N    -3.418030  3.386192  -4.287378
H    -3.367861  1.300490  -0.533731
H    -1.864648  0.394422  -0.397824
H    -0.754840  2.360115  0.700770
H    -2.270606  3.265565  0.643524
H    -0.751605  2.227781  -1.821371
H    -0.643037  3.866572  -1.180527
H    -2.747962  4.344832  -2.023560
H    -2.604736  0.865704  -2.660831
H    -2.786494  1.089080  -4.323274
H    -3.503819  4.393261  -4.123095
N    -4.363621  -1.083145  2.458872
C    -4.341908  -0.540734  3.807915
H    -4.891065  -1.935497  2.298025
H    -5.184844  -0.965188  4.364641
H    -4.469901  0.549877  3.802421
H    -3.411945  -0.776592  4.344373
