35
Energy: -21190.1074181 eV PBE+vdW (tier 2 basis)
C    -0.158064  -0.091495  -0.114320
C    -0.009013  -0.281918  1.384779
O    0.972084  -0.819847  1.888814
H    0.624144  0.596701  -0.459500
H    -1.135327  0.303747  -0.418953
H    0.012236  -1.053854  -0.611407
N    -1.051780  0.177685  2.144860
C    -1.027136  0.169454  3.601916
C    -0.760684  -1.203282  4.256353
O    -0.060855  -1.246825  5.266906
H    -1.826271  0.642284  1.685134
H    -0.169396  0.765142  3.949449
C    -2.322433  0.827703  4.120398
C    -2.403122  1.014611  5.643713
C    -3.026454  -0.174102  6.393640
N    -3.036355  -0.018187  7.847430
C    -3.772760  0.968867  8.500087
N    -4.998436  1.260297  7.895074
N    -3.440481  1.601689  9.573100
H    -3.197319  0.254591  3.767087
H    -2.386595  1.814563  3.635303
H    -3.006802  1.906233  5.863542
H    -1.397429  1.203258  6.047825
H    -2.477440  -1.099434  6.182492
H    -4.055297  -0.332925  6.037284
H    -2.124487  -0.160078  8.271541
H    -5.555094  1.855707  8.501505
H    -5.518600  0.451653  7.565809
H    -2.470225  1.405744  9.834639
N    -1.378486  -2.330509  3.789708
C    -2.199945  -2.545786  2.610959
H    -1.069707  -3.157309  4.292261
H    -2.739480  -3.491654  2.739430
H    -1.607979  -2.609134  1.685043
H    -2.949363  -1.755458  2.492985
