35
Energy: -21190.3862901 eV PBE+vdW (tier 2 basis)
C    -0.002425  -0.133238  0.004524
C    -0.016626  -0.053005  1.519366
O    1.019255  0.003856  2.184389
H    0.580827  -1.012576  -0.295413
H    0.512891  0.751113  -0.390671
H    -1.001950  -0.195030  -0.442862
N    -1.253935  -0.044905  2.093643
C    -1.434535  -0.004683  3.532330
C    -2.744229  -0.751236  3.824075
O    -3.695929  -0.638952  3.045672
H    -2.106712  -0.124194  1.546121
H    -0.556930  -0.494720  3.975443
C    -1.498956  1.453754  4.047062
C    -1.510179  1.595698  5.567993
C    -1.532682  3.061309  6.019266
N    -1.520804  3.244939  7.472747
C    -2.548229  2.772585  8.291972
N    -3.818570  2.868598  7.726838
N    -2.425583  2.280209  9.477878
H    -2.391558  1.928975  3.610418
H    -0.620332  1.967999  3.629631
H    -0.619512  1.107208  5.996158
H    -2.391339  1.096885  5.997793
H    -2.414002  3.565243  5.596326
H    -0.659650  3.598745  5.621042
H    -0.609290  3.088093  7.891977
H    -4.536172  2.679779  8.420010
H    -4.000086  3.713598  7.193369
H    -1.441483  2.137204  9.721211
N    -2.842367  -1.512631  4.947967
C    -1.854392  -1.808932  5.971944
H    -3.771215  -1.908510  5.067760
H    -1.922280  -2.868647  6.248932
H    -1.999660  -1.200289  6.876749
H    -0.843606  -1.628142  5.594733
