35
Energy: -21190.5214331 eV PBE+vdW (tier 2 basis)
C    0.042740  0.183483  -0.102465
C    0.003883  0.008993  1.403556
O    1.018401  -0.208359  2.064991
H    0.595784  1.103448  -0.332570
H    -0.950312  0.244749  -0.564312
H    0.598231  -0.653548  -0.541149
N    -1.233457  0.143626  1.972006
C    -1.462916  -0.069958  3.386148
C    -2.685783  -0.986871  3.529605
O    -3.627581  -0.926856  2.738437
H    -2.068307  0.171106  1.393167
H    -0.553338  -0.552853  3.776361
C    -1.711508  1.248525  4.154932
C    -0.539960  2.227335  4.079400
C    -0.774659  3.529870  4.858074
N    -1.892681  4.345771  4.399084
C    -1.784308  5.113094  3.253491
N    -3.007994  5.710358  2.900793
N    -0.666285  5.202292  2.617919
H    -1.930226  0.997839  5.207205
H    -2.624835  1.707691  3.742686
H    -0.325424  2.482674  3.033342
H    0.370061  1.749232  4.474151
H    0.124325  4.154155  4.784865
H    -0.946598  3.313701  5.924335
H    -2.821081  3.980073  4.579382
H    -2.920477  6.401305  2.163130
H    -3.544695  6.071568  3.686057
H    -0.720213  5.900102  1.872474
N    -2.658436  -1.816916  4.608476
C    -3.751709  -2.707849  4.949250
H    -1.815552  -1.836483  5.169984
H    -4.133028  -2.500656  5.958741
H    -3.440177  -3.760262  4.895093
H    -4.552557  -2.538308  4.222034
