35
Energy: -21190.5335418 eV PBE+vdW (tier 2 basis)
C    -0.047084  -1.462434  0.597611
C    -0.250925  -1.398466  2.100957
O    0.483573  -2.008398  2.878115
H    0.948183  -1.875853  0.413648
H    -0.134938  -0.480945  0.113709
H    -0.786226  -2.132001  0.133668
N    -1.281066  -0.618609  2.574833
C    -2.450602  -0.189549  1.819804
C    -2.594276  1.348355  1.713465
O    -3.567051  1.849443  1.150669
H    -1.400552  -0.692949  3.597786
H    -2.333136  -0.530001  0.780909
C    -3.760026  -0.792138  2.361345
C    -3.888054  -2.319287  2.250430
C    -3.185525  -3.165074  3.333903
N    -3.588218  -2.828898  4.690025
C    -2.932713  -1.892533  5.469369
N    -3.760190  -1.287201  6.411523
N    -1.678173  -1.573668  5.438539
H    -4.569316  -0.314069  1.794771
H    -3.896277  -0.473309  3.407434
H    -3.528651  -2.656113  1.263315
H    -4.960563  -2.571160  2.275674
H    -2.094700  -3.073749  3.271870
H    -3.408471  -4.227396  3.156028
H    -4.554579  -3.014235  4.937206
H    -3.260503  -0.594740  6.960378
H    -4.667204  -0.967527  6.084265
H    -1.115013  -2.234481  4.893846
N    -1.575980  2.057039  2.263433
C    -1.525535  3.504217  2.249312
H    -0.829553  1.519110  2.693610
H    -2.431632  3.863636  1.749257
H    -0.646068  3.867053  1.698948
H    -1.494280  3.909118  3.270378
