35
Energy: -21190.3733322 eV PBE+vdW (tier 2 basis)
C    -0.024053  0.465424  0.021554
C    -0.111137  0.841078  1.491555
O    0.469264  1.823980  1.946807
H    1.031470  0.442546  -0.276079
H    -0.505560  1.256517  -0.568433
H    -0.494475  -0.494045  -0.224116
N    -0.924692  0.031475  2.246378
C    -1.090283  0.142418  3.699142
C    -1.313608  1.603773  4.169290
O    -0.842410  2.019107  5.222742
H    -1.164935  -0.871299  1.843313
H    -2.052689  -0.355529  3.907548
C    -0.047580  -0.589255  4.559929
C    1.438704  -0.234909  4.389183
C    2.199287  -0.993664  3.286861
N    2.051388  -2.445794  3.354294
C    1.120060  -3.138663  2.595910
N    0.737829  -4.357201  3.162872
N    0.577723  -2.780264  1.477855
H    -0.192290  -1.671067  4.417717
H    -0.333303  -0.374517  5.598045
H    1.941245  -0.449426  5.346362
H    1.561153  0.843297  4.220803
H    3.268713  -0.744726  3.353838
H    1.883917  -0.666582  2.290013
H    2.190533  -2.824747  4.286914
H    0.289007  -4.955923  2.476073
H    1.462330  -4.846326  3.680091
H    0.943413  -1.874678  1.180907
N    -2.183735  2.320263  3.400854
C    -2.399566  3.736723  3.629460
H    -2.387102  1.951312  2.478773
H    -3.394486  4.023711  3.268592
H    -1.639113  4.353369  3.124930
H    -2.337147  3.927753  4.705712
