35
Energy: -21190.1573861 eV PBE+vdW (tier 2 basis)
C    0.980814  1.393867  1.446528
C    0.101627  0.417147  2.208552
O    0.367127  -0.778562  2.282628
H    0.934134  1.144330  0.378517
H    2.019954  1.261195  1.769215
H    0.694793  2.445651  1.575520
N    -1.002334  0.975561  2.804284
C    -2.036401  0.176575  3.461467
C    -3.432249  0.521945  2.905235
O    -4.062617  -0.306297  2.253758
H    -1.169873  1.962250  2.651493
H    -1.862088  -0.853003  3.123553
C    -1.963050  0.222031  4.998747
C    -0.797348  -0.580475  5.577813
C    -0.620627  -0.378918  7.088788
N    -0.157436  0.949706  7.468095
C    -1.004377  1.954190  7.882321
N    -0.312693  3.154099  8.134607
N    -2.279903  1.770362  7.972417
H    -1.890647  1.260463  5.343529
H    -2.909758  -0.162330  5.409214
H    0.140198  -0.314462  5.063650
H    -0.946343  -1.653732  5.381067
H    0.103540  -1.114028  7.471834
H    -1.569883  -0.538567  7.615984
H    0.721790  1.254531  7.065357
H    -0.883964  3.856842  8.591891
H    0.578868  3.036493  8.610927
H    -2.733443  2.570693  8.418449
N    -3.955806  1.776574  3.116969
C    -3.553109  2.825045  4.045081
H    -4.892096  1.852273  2.729551
H    -2.478231  3.037373  3.987177
H    -3.790597  2.588211  5.093607
H    -4.077483  3.746611  3.767123
