35
Energy: -21190.4080157 eV PBE+vdW (tier 2 basis)
C    -0.361620  0.423286  -0.077359
C    -0.351777  0.442313  1.440092
O    0.542932  0.995888  2.083107
H    0.595297  0.020777  -0.430882
H    -0.438086  1.455656  -0.441905
H    -1.181712  -0.166281  -0.505111
N    -1.400311  -0.189748  2.037834
C    -1.544963  -0.256926  3.480609
C    -2.300378  -1.558386  3.776867
O    -3.199244  -1.934081  3.019549
H    -2.127989  -0.653962  1.501300
H    -0.529592  -0.251397  3.900268
C    -2.309046  0.974691  4.019796
C    -2.355470  1.103049  5.541902
C    -2.940523  2.448463  5.994864
N    -2.138345  3.583320  5.565637
C    -2.593935  4.489910  4.628875
N    -1.673677  5.531564  4.416880
N    -3.751628  4.351813  4.079170
H    -3.328257  0.966882  3.606012
H    -1.802245  1.855529  3.602623
H    -1.338699  0.999438  5.956994
H    -2.964492  0.298825  5.985692
H    -3.035078  2.464026  7.091407
H    -3.944387  2.591908  5.572961
H    -1.431388  3.925382  6.203932
H    -1.913225  6.121239  3.626822
H    -0.703068  5.228985  4.367488
H    -3.898199  5.047405  3.345269
N    -1.981923  -2.274303  4.892379
C    -0.934248  -2.059958  5.875140
H    -2.582646  -3.084860  5.016834
H    -0.137400  -1.435972  5.459470
H    -0.491186  -3.025063  6.152031
H    -1.310514  -1.573880  6.787747
