35
Energy: -21190.4073623 eV PBE+vdW (tier 2 basis)
C    -0.349012  0.912314  -0.359382
C    -0.493362  0.154622  0.945090
O    0.056705  -0.931068  1.135230
H    -0.667048  0.261590  -1.182921
H    0.712583  1.142562  -0.514131
H    -0.922840  1.846282  -0.394789
N    -1.257331  0.770779  1.898844
C    -1.527849  0.166839  3.197252
C    -2.993163  -0.310700  3.212177
O    -3.914999  0.504572  3.277998
H    -1.783053  1.602593  1.651926
H    -0.829928  -0.675612  3.269987
C    -1.278777  1.147359  4.350230
C    0.163910  1.647527  4.412228
C    0.386350  2.645801  5.558409
N    1.708351  3.247085  5.598106
C    2.070542  4.275169  4.733593
N    3.437488  4.567970  4.805278
N    1.324606  4.943956  3.922968
H    -1.548668  0.639215  5.290214
H    -1.982084  1.989520  4.253949
H    0.435435  2.125317  3.459453
H    0.853792  0.796536  4.534927
H    0.213437  2.152778  6.527125
H    -0.352576  3.459991  5.500820
H    2.466646  2.611240  5.826760
H    3.649091  5.408035  4.274264
H    3.811506  4.612016  5.749787
H    0.381151  4.554812  3.865142
N    -3.220620  -1.649622  3.118717
C    -2.253818  -2.734610  2.997618
H    -4.207636  -1.889338  3.136281
H    -1.847166  -3.041452  3.973979
H    -1.425589  -2.455970  2.334405
H    -2.760031  -3.600172  2.555551
