35
Energy: -21189.8285777 eV PBE+vdW (tier 2 basis)
C    -0.320706  -0.203459  -0.253830
C    0.043069  -0.081589  1.214289
O    1.206792  -0.160146  1.598282
H    -1.005749  0.584305  -0.592247
H    -0.799098  -1.173932  -0.445444
H    0.604355  -0.147486  -0.833374
N    -0.972441  0.109274  2.122307
C    -2.419434  0.164663  1.915263
C    -2.919209  -1.144329  1.232797
O    -2.619995  -2.208665  1.768321
H    -0.644930  0.035954  3.079749
H    -2.844470  0.032671  2.922906
C    -2.898332  1.546142  1.436415
C    -2.612084  2.637336  2.471428
C    -2.946246  4.054324  1.979367
N    -4.289986  4.241189  1.422326
C    -5.460701  3.935790  2.115110
N    -5.389157  4.160655  3.487110
N    -6.556680  3.479427  1.608452
H    -3.981971  1.503273  1.261451
H    -2.424713  1.813474  0.479288
H    -1.547274  2.621149  2.749846
H    -3.186896  2.428058  3.386598
H    -2.245965  4.349648  1.184498
H    -2.782563  4.770503  2.798559
H    -4.365274  4.015825  0.436665
H    -6.306827  4.092058  3.916210
H    -4.878895  4.990804  3.773134
H    -6.437029  3.236995  0.620759
N    -3.713197  -1.151411  0.116034
C    -4.112616  -0.122440  -0.832165
H    -3.982404  -2.103656  -0.114027
H    -4.896657  0.539493  -0.437356
H    -4.516850  -0.625764  -1.717161
H    -3.264261  0.488851  -1.163358
