35
Energy: -21190.0225635 eV PBE+vdW (tier 2 basis)
C    -1.015997  1.014314  -0.655058
C    -0.633694  0.897855  0.806637
O    0.527710  0.995836  1.198791
H    -0.097831  1.110552  -1.239544
H    -1.650168  1.894740  -0.832647
H    -1.578485  0.136580  -1.002247
N    -1.654064  0.685300  1.703528
C    -3.080968  0.629957  1.431563
C    -3.785451  1.948768  1.023411
O    -4.814115  1.864444  0.353385
H    -1.329730  0.612753  2.662311
H    -3.236338  0.003855  0.540696
C    -3.873292  -0.054773  2.565516
C    -4.043791  0.692871  3.898157
C    -2.838968  0.665028  4.853369
N    -3.122418  1.203235  6.184648
C    -4.005675  0.572983  7.068078
N    -3.938364  -0.819316  7.038531
N    -4.830418  1.147578  7.873351
H    -4.872908  -0.242903  2.152754
H    -3.420877  -1.043642  2.743798
H    -4.349497  1.735657  3.714652
H    -4.882898  0.224474  4.433142
H    -1.990592  1.248612  4.464449
H    -2.476412  -0.367779  4.955246
H    -3.244148  2.211674  6.196245
H    -3.001194  -1.209457  6.991787
H    -4.487795  -1.218523  7.793918
H    -4.891486  2.153517  7.693093
N    -3.291537  3.172487  1.382488
C    -2.176085  3.567160  2.234023
H    -3.875025  3.919777  1.018114
H    -2.267620  4.642774  2.421861
H    -2.199028  3.063583  3.208381
H    -1.197447  3.384326  1.771936
