35
Energy: -21190.6078149 eV PBE+vdW (tier 2 basis)
C    -0.026614  -1.045858  0.387244
C    -0.282481  -0.658068  1.831564
O    0.629863  -0.502135  2.643052
H    0.597117  -0.273294  -0.079641
H    -0.941652  -1.171300  -0.204431
H    0.545098  -1.981801  0.369957
N    -1.594624  -0.482822  2.166951
C    -2.013683  -0.186265  3.520838
C    -3.446729  -0.710722  3.667521
O    -4.183808  -0.871091  2.681787
H    -2.346759  -0.716653  1.523190
H    -1.353189  -0.744023  4.204810
C    -1.856788  1.319034  3.888002
C    -2.474882  2.345293  2.919340
C    -3.819823  2.947367  3.326123
N    -4.876799  1.954870  3.336307
C    -6.127675  2.238765  3.824361
N    -7.023563  1.155762  3.725158
N    -6.373286  3.376514  4.384734
H    -0.772595  1.481912  3.944260
H    -2.248673  1.476598  4.905158
H    -2.548957  1.906862  1.910452
H    -1.774414  3.185257  2.812541
H    -4.067295  3.780581  2.643900
H    -3.760533  3.391333  4.331045
H    -4.784240  1.165563  2.704201
H    -7.992874  1.441632  3.639232
H    -6.777113  0.441168  3.043531
H    -7.321149  3.396101  4.768246
N    -3.835007  -0.973861  4.933230
C    -5.188171  -1.370396  5.288186
H    -3.179507  -0.775197  5.679822
H    -5.159216  -1.977785  6.199626
H    -5.603408  -1.969994  4.471023
H    -5.840397  -0.499467  5.442591
