35
Energy: -21190.4883745 eV PBE+vdW (tier 2 basis)
C    -0.447367  1.765667  -0.074431
C    -0.563154  0.798572  1.087939
O    -0.156430  -0.361070  1.013823
H    -0.980761  1.345543  -0.936127
H    0.609639  1.852255  -0.354658
H    -0.844332  2.765864  0.138677
N    -1.150278  1.305525  2.215095
C    -1.317354  0.536879  3.445445
C    -2.821120  0.405669  3.747818
O    -3.392924  1.203601  4.506159
H    -1.474308  2.266582  2.211829
H    -0.894091  -0.447722  3.224284
C    -0.526058  1.202209  4.587017
C    -0.728034  0.673347  6.014143
C    -0.531452  -0.829129  6.244602
N    -1.446018  -1.709450  5.506197
C    -2.692521  -2.110915  5.970772
N    -3.384104  -1.144114  6.699759
N    -3.078813  -3.315845  5.699658
H    -0.774429  2.274504  4.596986
H    0.536120  1.129244  4.304800
H    -1.716002  0.983503  6.375451
H    -0.004859  1.190629  6.664620
H    -0.596186  -1.028267  7.327351
H    0.482913  -1.112481  5.928102
H    -0.996458  -2.499904  5.054876
H    -3.374756  -0.205113  6.298131
H    -4.323056  -1.433132  6.952010
H    -4.058235  -3.456677  5.960876
N    -3.510157  -0.580648  3.121120
C    -3.008787  -1.723112  2.367769
H    -4.487580  -0.605402  3.399353
H    -3.724633  -1.966219  1.572420
H    -2.889933  -2.603677  3.018237
H    -2.051907  -1.489469  1.890501
