35
Energy: -21190.5127856 eV PBE+vdW (tier 2 basis)
C    -0.671680  -0.529005  -0.209043
C    -0.517819  -0.583478  1.294546
O    0.502529  -1.032744  1.832556
H    -0.435854  -1.515128  -0.625624
H    0.068491  0.181848  -0.602072
H    -1.671541  -0.221475  -0.537331
N    -1.544229  -0.054871  2.013853
C    -1.600055  -0.119794  3.462194
C    -3.064407  -0.412346  3.826222
O    -3.975076  -0.098248  3.055897
H    -2.433560  0.172581  1.571463
H    -0.934224  -0.940393  3.768132
C    -1.140417  1.178984  4.168782
C    0.350067  1.520414  3.998909
C    0.678259  2.358615  2.751700
N    2.094064  2.658469  2.628125
C    2.960060  2.180692  1.653731
N    2.495751  1.088598  0.930906
N    4.118655  2.680138  1.365790
H    -1.360599  1.071342  5.240958
H    -1.773191  2.008574  3.813094
H    0.947941  0.598110  3.976578
H    0.685428  2.087016  4.881431
H    0.107194  3.302280  2.791007
H    0.356985  1.850395  1.836310
H    2.437578  3.471354  3.123050
H    3.232564  0.728373  0.332898
H    1.997387  0.350314  1.431365
H    4.281337  3.556164  1.870224
N    -3.321185  -0.996359  5.028792
C    -2.384618  -1.424307  6.053632
H    -4.313957  -1.086665  5.224440
H    -2.810357  -2.277432  6.594582
H    -2.162404  -0.628419  6.781534
H    -1.441231  -1.755197  5.605666
