35
Energy: -21190.3981208 eV PBE+vdW (tier 2 basis)
C    -3.995766  1.483285  0.117732
C    -2.801244  0.880040  0.832505
O    -1.779258  0.552813  0.239034
H    -4.881291  1.602541  0.754688
H    -4.251443  0.851464  -0.740871
H    -3.708024  2.466797  -0.276151
N    -2.955028  0.712454  2.192604
C    -1.845299  0.336924  3.061496
C    -2.105002  -0.957203  3.865116
O    -1.426112  -1.238825  4.848981
H    -3.765091  1.141548  2.628816
H    -1.020589  0.098307  2.368544
C    -1.407190  1.481257  3.982588
C    -0.880017  2.699110  3.226223
C    -0.338721  3.799726  4.149266
N    0.811938  3.392200  4.950765
C    2.114445  3.780886  4.687166
N    2.383285  3.998056  3.330117
N    2.928942  3.940391  5.675264
H    -0.632786  1.081927  4.650430
H    -2.251808  1.773511  4.632067
H    -1.670683  3.140129  2.597285
H    -0.089477  2.376196  2.528590
H    -1.135910  4.116212  4.839735
H    -0.071839  4.683056  3.550630
H    0.665707  3.300700  5.949669
H    1.949989  3.345768  2.681745
H    3.367055  4.137690  3.129277
H    3.887928  4.084996  5.350089
N    -3.098788  -1.751102  3.378034
C    -3.400433  -3.054918  3.934122
H    -3.560666  -1.444397  2.529408
H    -3.116647  -3.862888  3.244104
H    -4.470193  -3.145932  4.165960
H    -2.821983  -3.162719  4.857970
