35
Energy: -21190.0247529 eV PBE+vdW (tier 2 basis)
C    -0.239712  -0.006190  -0.190963
C    -0.047805  0.126637  1.304860
O    1.076351  0.261592  1.784971
H    -0.009223  -1.042541  -0.468742
H    0.482076  0.654623  -0.682885
H    -1.249272  0.210351  -0.550558
N    -1.136920  0.063842  2.144684
C    -2.571033  -0.017467  1.908623
C    -2.944931  -1.144880  0.906841
O    -2.234397  -2.132729  0.758150
H    -0.846126  0.103540  3.116881
H    -2.980052  -0.426139  2.849203
C    -3.230914  1.383035  1.767118
C    -2.760172  2.326042  0.652574
C    -3.321871  2.054759  -0.751558
N    -2.925725  3.047858  -1.735297
C    -3.591599  4.256375  -1.819772
N    -3.064341  5.124565  -2.781736
N    -4.651961  4.463056  -1.112739
H    -3.036737  1.886860  2.725851
H    -4.329740  1.279444  1.737218
H    -1.659816  2.340502  0.620872
H    -3.073508  3.343869  0.923990
H    -4.420432  2.078339  -0.717409
H    -3.018801  1.070061  -1.132834
H    -1.954432  3.033770  -2.023464
H    -3.239654  6.106255  -2.602557
H    -2.115362  4.950456  -3.098008
H    -5.097328  5.346982  -1.367282
N    -4.155717  -1.000110  0.295275
C    -4.703240  -2.002406  -0.598775
H    -4.685162  -0.152692  0.453023
H    -5.655651  -2.397677  -0.218944
H    -3.977925  -2.819987  -0.662723
H    -4.867073  -1.587392  -1.603255
