35
Energy: -21190.3715219 eV PBE+vdW (tier 2 basis)
C    1.170090  -0.228929  0.218728
C    0.748845  -0.034559  1.660137
O    1.576268  0.205370  2.540576
H    2.135952  -0.743181  0.192573
H    1.302823  0.764993  -0.231131
H    0.439807  -0.787069  -0.380303
N    -0.595013  -0.146986  1.889753
C    -1.291859  0.338439  3.081527
C    -0.919721  1.827291  3.360662
O    -0.586313  2.553755  2.428645
H    -1.163067  -0.208652  1.053930
H    -2.337779  0.448014  2.748969
C    -1.376387  -0.706313  4.220999
C    -0.118993  -1.360428  4.820135
C    0.634399  -0.590546  5.910039
N    1.446708  0.484080  5.374185
C    1.710528  1.677065  5.999185
N    1.301102  1.748741  7.342339
N    2.232280  2.732908  5.463954
H    -1.986965  -1.522485  3.805155
H    -1.996523  -0.285778  5.030802
H    0.580549  -1.644888  4.021275
H    -0.447421  -2.306053  5.277669
H    1.256595  -1.318770  6.466021
H    -0.088530  -0.185584  6.639775
H    1.615496  0.454281  4.364627
H    1.676366  2.596098  7.760670
H    1.518412  0.929438  7.904437
H    2.364628  2.602595  4.456963
N    -1.172646  2.284110  4.612943
C    -0.983996  3.684322  4.968806
H    -1.248374  1.616075  5.369304
H    -1.655139  3.935577  5.798534
H    -1.233875  4.298664  4.097610
H    0.057482  3.885102  5.260246
