35
Energy: -21190.1791345 eV PBE+vdW (tier 2 basis)
C    0.031578  1.091328  0.112251
C    0.197839  0.904346  1.601505
O    1.261184  1.132872  2.188142
H    0.868700  1.691159  -0.253809
H    -0.919070  1.567998  -0.158325
H    0.067266  0.108781  -0.380975
N    -0.880585  0.445066  2.307570
C    -2.116443  -0.115703  1.783675
C    -3.237113  0.904185  1.476039
O    -3.918039  0.746949  0.462896
H    -0.673584  0.297922  3.291623
H    -1.910961  -0.558154  0.800577
C    -2.631685  -1.230562  2.717425
C    -2.000579  -2.621425  2.534782
C    -0.470473  -2.737976  2.549015
N    0.096260  -2.411359  1.232694
C    1.486432  -2.434126  1.012807
N    2.234572  -1.829444  2.012457
N    2.075054  -2.948393  -0.014341
H    -3.715649  -1.330340  2.565114
H    -2.504220  -0.900024  3.762560
H    -2.375500  -3.061695  1.595391
H    -2.395985  -3.265678  3.334254
H    -0.194000  -3.765159  2.850292
H    -0.029950  -2.071947  3.302100
H    -0.377915  -2.922515  0.491162
H    1.902671  -0.914372  2.324251
H    3.213957  -1.796228  1.743794
H    1.420515  -3.490881  -0.585936
N    -3.472870  1.945560  2.327233
C    -2.854629  2.284521  3.600706
H    -4.229095  2.540078  2.002492
H    -3.482819  3.035845  4.091982
H    -1.845291  2.701222  3.482247
H    -2.802311  1.419137  4.274743
