35
Energy: -21190.1639597 eV PBE+vdW (tier 2 basis)
C    -0.564521  -0.289245  -0.042690
C    0.162456  0.118702  1.223319
O    1.319860  -0.240138  1.451205
H    -0.665512  0.571069  -0.718676
H    -1.572740  -0.676508  0.161200
H    0.026684  -1.063492  -0.538554
N    -0.496624  0.917384  2.118333
C    -1.862911  1.389383  2.114563
C    -2.213609  2.169021  0.825226
O    -1.488060  3.046075  0.370120
H    0.018559  1.055031  2.994432
H    -2.571908  0.542800  2.225100
C    -2.094648  2.367800  3.287512
C    -1.941045  1.820888  4.722787
C    -0.562615  2.000493  5.386096
N    0.472445  1.099170  4.883772
C    0.552689  -0.277007  5.193064
N    -0.366973  -0.710647  6.148512
N    1.325284  -1.122335  4.619503
H    -3.119741  2.749020  3.172409
H    -1.430970  3.232453  3.129684
H    -2.227045  0.759516  4.771878
H    -2.661575  2.353716  5.362033
H    -0.684842  1.917841  6.481376
H    -0.204759  3.024145  5.204681
H    1.376158  1.515508  4.693478
H    -0.210707  -1.689568  6.370483
H    -0.470553  -0.129923  6.975707
H    1.778816  -0.730748  3.786765
N    -3.421214  1.830244  0.284245
C    -3.961498  2.477167  -0.895466
H    -3.925158  1.052503  0.692950
H    -4.954417  2.903034  -0.695989
H    -4.038001  1.775520  -1.738373
H    -3.273652  3.284213  -1.169672
