35
Energy: -21190.5231411 eV PBE+vdW (tier 2 basis)
C    -2.086280  -1.836505  -1.321249
C    -1.487976  -1.886394  0.068722
O    -0.290403  -1.648102  0.270861
H    -1.964491  -0.820512  -1.717679
H    -3.149220  -2.105128  -1.354946
H    -1.522784  -2.512575  -1.975685
N    -2.345843  -2.205516  1.075730
C    -1.973894  -2.206356  2.491429
C    -1.273331  -3.532248  2.914918
O    -1.747479  -4.294657  3.757728
H    -3.298101  -2.457762  0.840331
H    -1.219968  -1.411008  2.600762
C    -3.174085  -1.863077  3.379855
C    -4.409770  -2.756544  3.219046
C    -5.557298  -2.410635  4.181023
N    -6.154763  -1.099857  3.996886
C    -5.796591  0.035805  4.709368
N    -6.456203  1.179244  4.232958
N    -4.970369  0.154989  5.690067
H    -3.440732  -0.811169  3.201746
H    -2.825500  -1.929405  4.419975
H    -4.124247  -3.804324  3.386802
H    -4.812700  -2.695077  2.191241
H    -5.210971  -2.480733  5.222149
H    -6.349191  -3.167965  4.074767
H    -6.560171  -0.920302  3.084198
H    -6.271723  1.967674  4.847386
H    -7.453656  1.053510  4.077373
H    -4.452769  -0.708491  5.864811
N    -0.089779  -3.727362  2.280057
C    0.728962  -4.904071  2.490276
H    0.188667  -3.021675  1.591053
H    0.801285  -5.510286  1.575404
H    0.264700  -5.505574  3.278894
H    1.743699  -4.623440  2.804459
