35
Energy: -21189.846045 eV PBE+vdW (tier 2 basis)
C    -1.244706  -1.070886  -1.046972
C    -0.704853  -1.392146  0.330467
O    0.283919  -2.106523  0.475809
H    -0.505247  -1.405923  -1.778876
H    -1.435093  -0.001031  -1.191449
H    -2.181756  -1.615991  -1.221095
N    -1.343303  -0.888076  1.441851
C    -2.545482  -0.072002  1.648413
C    -3.840551  -0.878083  1.360409
O    -4.239565  -1.631501  2.259508
H    -0.923847  -1.253724  2.291789
H    -2.604533  -0.011935  2.741005
C    -2.398589  1.402228  1.227382
C    -3.611561  2.298522  1.552855
C    -4.362464  1.987074  2.856892
N    -3.472274  1.845172  4.005623
C    -3.848446  1.141819  5.156633
N    -4.573694  -0.018788  4.926685
N    -3.498763  1.637175  6.296589
H    -2.128676  1.519882  0.169193
H    -1.525359  1.761483  1.790270
H    -4.354638  2.258521  0.742257
H    -3.259123  3.341296  1.573924
H    -4.930820  1.055891  2.752247
H    -5.119552  2.776471  3.022065
H    -3.021093  2.709400  4.298984
H    -4.709912  -0.594220  5.748734
H    -4.392987  -0.566828  4.081615
H    -3.692499  0.985400  7.061495
N    -4.546258  -0.814405  0.195972
C    -4.449561  0.036423  -0.976893
H    -5.353703  -1.433314  0.233568
H    -4.356833  -0.568190  -1.890024
H    -3.576980  0.685398  -0.916067
H    -5.344071  0.669481  -1.070536
