35
Energy: -21189.8701888 eV PBE+vdW (tier 2 basis)
C    -0.172191  -1.946379  -0.164849
C    0.227470  -1.043078  0.986366
O    1.403441  -0.879327  1.300420
H    -0.775960  -1.417203  -0.913565
H    -0.750934  -2.808053  0.194980
H    0.743971  -2.307951  -0.638492
N    -0.767777  -0.403188  1.687328
C    -2.223875  -0.478723  1.557248
C    -2.718483  -1.934789  1.811428
O    -2.426236  -2.450050  2.888757
H    -0.403877  0.080039  2.501899
H    -2.589198  0.001920  2.477297
C    -2.773469  0.349813  0.382560
C    -2.385833  1.832658  0.438902
C    -2.887546  2.607179  1.670161
N    -4.314893  2.509281  1.947582
C    -5.249018  3.128600  1.140521
N    -6.567152  2.818171  1.521522
N    -4.879533  3.865912  0.149328
H    -3.871277  0.267082  0.376674
H    -2.430999  -0.053785  -0.578580
H    -2.783884  2.328820  -0.455685
H    -1.290465  1.932001  0.402338
H    -2.653663  3.669994  1.526858
H    -2.364073  2.285772  2.583078
H    -4.636207  1.672683  2.420481
H    -7.265008  3.378124  1.043065
H    -6.726750  2.809199  2.526462
H    -5.677173  4.349252  -0.269591
N    -3.496642  -2.629573  0.922604
C    -3.893893  -2.390753  -0.458266
H    -3.745029  -3.534681  1.311684
H    -4.347379  -3.313952  -0.834688
H    -3.039347  -2.156978  -1.104945
H    -4.638570  -1.589458  -0.553597
