35
Energy: -21190.0978005 eV PBE+vdW (tier 2 basis)
C    0.489310  -0.237536  0.487043
C    0.104155  0.248051  1.873319
O    0.793240  1.044290  2.504837
H    0.792197  0.623867  -0.118842
H    -0.311571  -0.780383  -0.030567
H    1.361018  -0.899158  0.579190
N    -1.077299  -0.256111  2.361572
C    -1.433267  -0.098064  3.777385
C    -2.621647  -0.977190  4.168812
O    -2.621525  -1.577157  5.244567
H    -1.457964  -1.067336  1.885263
H    -0.588795  -0.478881  4.369664
C    -1.736579  1.380652  4.185406
C    -0.855164  1.933349  5.309858
C    -1.015542  1.268515  6.692803
N    -0.483652  -0.087371  6.825608
C    0.831996  -0.384995  6.501796
N    1.787353  0.492348  7.014832
N    1.082944  -1.458076  5.825436
H    -2.795594  1.474012  4.478457
H    -1.606035  2.008341  3.294822
H    -1.090209  3.003730  5.427240
H    0.195125  1.878582  4.987140
H    -2.080095  1.210068  6.963481
H    -0.560729  1.922914  7.455309
H    -1.110201  -0.814049  6.468590
H    1.455745  1.376514  7.383945
H    2.628632  0.583193  6.458376
H    2.090174  -1.636135  5.779139
N    -3.693759  -1.089105  3.314303
C    -4.149454  -0.130175  2.313490
H    -4.416881  -1.677389  3.723234
H    -3.299808  0.413166  1.891037
H    -4.849178  0.604368  2.742708
H    -4.657127  -0.659936  1.497126
