35
Energy: -21190.0843477 eV PBE+vdW (tier 2 basis)
C    0.671142  0.297414  0.768437
C    0.412566  1.680354  1.330100
O    1.316745  2.451789  1.645319
H    0.272798  0.194510  -0.250734
H    0.194516  -0.483097  1.378060
H    1.751399  0.133869  0.751495
N    -0.902106  2.052719  1.490411
C    -2.092957  1.328900  1.071531
C    -2.325343  1.247350  -0.458311
O    -2.740777  0.193707  -0.939063
H    -1.008425  3.001304  1.839196
H    -1.983068  0.270962  1.351264
C    -3.356409  1.864824  1.772226
C    -3.522689  1.453186  3.241777
C    -2.525773  2.074024  4.220896
N    -2.854845  1.674172  5.583333
C    -2.168824  2.162225  6.690946
N    -0.820382  2.433745  6.462971
N    -2.823690  2.344645  7.787023
H    -4.220540  1.483344  1.211154
H    -3.392740  2.963717  1.677940
H    -3.475331  0.356160  3.323627
H    -4.540347  1.740173  3.554423
H    -2.523716  3.176798  4.102440
H    -1.511070  1.730832  3.975782
H    -3.850532  1.655102  5.792896
H    -0.272329  2.568581  7.304367
H    -0.344287  1.862515  5.771290
H    -2.201655  2.594012  8.559997
N    -2.078893  2.333490  -1.248425
C    -1.673071  3.688668  -0.901383
H    -2.263291  2.139842  -2.227927
H    -1.853968  4.328254  -1.772359
H    -0.608538  3.759261  -0.638849
H    -2.270038  4.096274  -0.074934
