35
Energy: -21190.7614081 eV PBE+vdW (tier 2 basis)
C    1.067433  0.392207  0.683695
C    0.233363  1.114208  1.727659
O    0.395659  2.309902  1.980324
H    0.954826  0.907672  -0.278188
H    0.797386  -0.663357  0.558638
H    2.124485  0.461842  0.969526
N    -0.711926  0.350597  2.345153
C    -1.498074  0.833546  3.463839
C    -2.037015  -0.429242  4.177848
O    -1.680192  -1.557667  3.812656
H    -0.702275  -0.668008  2.273667
H    -0.830367  1.363932  4.165772
C    -2.598149  1.823568  3.041295
C    -3.701818  1.217443  2.159091
C    -5.083501  1.831507  2.418536
N    -5.561639  1.561715  3.784812
C    -5.312981  2.416069  4.846722
N    -5.606315  3.745599  4.593224
N    -4.817914  1.932448  5.946529
H    -2.106881  2.660763  2.528795
H    -3.028661  2.247165  3.958310
H    -3.775774  0.129955  2.330044
H    -3.451805  1.329644  1.094001
H    -5.816934  1.427983  1.705120
H    -5.055603  2.919275  2.272961
H    -5.388848  0.602150  4.078532
H    -5.519296  4.379179  5.377776
H    -6.397565  3.935072  3.987309
H    -4.846752  2.613653  6.708901
N    -2.897499  -0.236098  5.200281
C    -3.465693  -1.363388  5.919155
H    -3.287669  0.684782  5.441859
H    -2.711118  -1.867478  6.539570
H    -3.873516  -2.109467  5.223262
H    -4.265986  -0.981632  6.561846
