35
Energy: -21189.9147147 eV PBE+vdW (tier 2 basis)
C    0.110254  -0.551185  -0.982324
C    -0.151220  0.512007  0.066463
O    0.558010  1.516431  0.124118
H    0.929388  -0.187131  -1.607899
H    -0.767948  -0.738604  -1.611128
H    0.411099  -1.505171  -0.531195
N    -1.193055  0.387743  0.961872
C    -2.190279  -0.623118  1.338646
C    -2.020266  -1.058702  2.818081
O    -2.967818  -0.926103  3.592226
H    -1.217004  1.209712  1.562692
H    -3.158988  -0.101556  1.372009
C    -2.377153  -1.819776  0.396101
C    -3.466092  -2.781241  0.881749
C    -3.755926  -3.875842  -0.157775
N    -4.622235  -4.943996  0.304428
C    -4.143955  -5.970692  1.114160
N    -5.172186  -6.790029  1.588709
N    -2.926076  -6.226473  1.450014
H    -1.443026  -2.383609  0.270359
H    -2.644758  -1.432434  -0.599230
H    -4.392854  -2.229271  1.102547
H    -3.162154  -3.253129  1.827376
H    -2.814906  -4.334765  -0.499902
H    -4.215903  -3.431114  -1.053447
H    -5.582096  -4.673802  0.497590
H    -4.792909  -7.603214  2.065037
H    -5.870968  -7.043116  0.895113
H    -2.286685  -5.483950  1.159218
N    -0.835771  -1.588450  3.243562
C    0.413676  -1.802725  2.530163
H    -0.852984  -1.813023  4.233578
H    1.082188  -2.373801  3.182942
H    0.913940  -0.861845  2.263019
H    0.269082  -2.396493  1.618351
