35
Energy: -21190.4250914 eV PBE+vdW (tier 2 basis)
C    -0.866896  2.238723  0.598276
C    -0.214034  1.090959  1.344278
O    0.965898  1.106638  1.680601
H    -0.137585  3.048880  0.521450
H    -1.768166  2.604607  1.108936
H    -1.163787  1.932690  -0.415199
N    -1.014690  0.008925  1.650265
C    -2.407512  -0.207361  1.284762
C    -3.441279  0.381208  2.277528
O    -4.640616  0.347900  2.007831
H    -0.507255  -0.754631  2.090720
H    -2.607609  0.308327  0.334793
C    -2.707198  -1.701146  1.064906
C    -2.576344  -2.574095  2.315571
C    -2.993302  -4.028174  2.039974
N    -2.857965  -4.928996  3.169145
C    -1.624821  -5.441617  3.559125
N    -1.698876  -6.122948  4.779225
N    -0.491164  -5.356594  2.952654
H    -2.044576  -2.072149  0.267558
H    -3.736765  -1.761823  0.685048
H    -3.212222  -2.169840  3.119063
H    -1.545169  -2.573958  2.703999
H    -2.407233  -4.440756  1.204107
H    -4.043838  -4.052262  1.713964
H    -3.505262  -4.766754  3.934585
H    -0.824310  -6.603201  4.971705
H    -2.499970  -6.742462  4.870785
H    -0.534235  -4.734286  2.142914
N    -2.925380  0.902766  3.420065
C    -3.747765  1.492457  4.457530
H    -1.916639  0.873435  3.525728
H    -4.791114  1.429068  4.130012
H    -3.486238  2.547193  4.619736
H    -3.636656  0.951284  5.407369
