35
Energy: -21190.4944072 eV PBE+vdW (tier 2 basis)
C    -0.819896  0.945751  0.232355
C    -0.973878  1.070097  1.736246
O    -1.229400  2.142939  2.282433
H    -0.619915  -0.077731  -0.107021
H    0.000310  1.598625  -0.091428
H    -1.736103  1.310499  -0.247954
N    -0.827751  -0.097477  2.435064
C    -0.775784  -0.130335  3.883344
C    0.374777  -1.072072  4.275748
O    0.724024  -1.994019  3.536862
H    -0.443873  -0.925279  1.983232
H    -0.577951  0.899494  4.221236
C    -2.092437  -0.623478  4.524234
C    -3.301012  0.258583  4.213844
C    -4.563602  -0.170288  4.971028
N    -4.439233  -0.041452  6.421838
C    -4.595764  -1.063704  7.347230
N    -4.367466  -2.346888  6.846939
N    -4.927031  -0.930877  8.588570
H    -1.948790  -0.666000  5.616039
H    -2.276032  -1.655376  4.179309
H    -3.515595  0.238728  3.134955
H    -3.065643  1.306861  4.454283
H    -4.816514  -1.215050  4.745412
H    -5.416491  0.434699  4.623074
H    -4.647135  0.875173  6.800122
H    -4.374699  -3.023707  7.604159
H    -3.560987  -2.451613  6.238223
H    -5.216480  0.028805  8.797199
N    0.926328  -0.831798  5.494751
C    1.965114  -1.664526  6.073341
H    0.598436  -0.027363  6.016221
H    1.633969  -2.110262  7.021434
H    2.882008  -1.086531  6.252074
H    2.183496  -2.464428  5.358604
