35
Energy: -21190.3384003 eV PBE+vdW (tier 2 basis)
C    0.628643  -2.631908  1.497438
C    0.447339  -2.000139  2.864363
O    0.800140  -2.561143  3.903438
H    0.078640  -3.580960  1.471878
H    1.690805  -2.866359  1.355268
H    0.288785  -1.996544  0.670756
N    -0.124262  -0.762021  2.863787
C    -0.430567  -0.054513  4.089740
C    -1.545028  0.944844  3.752427
O    -1.750074  1.292232  2.586143
H    -0.500116  -0.338749  2.017861
H    -0.779687  -0.799771  4.822024
C    0.801547  0.650647  4.717946
C    1.321141  1.911460  4.017229
C    1.924225  1.692006  2.629476
N    2.597034  2.916990  2.186744
C    3.208496  3.026333  0.937901
N    3.753175  1.836633  0.458969
N    3.311975  4.094360  0.221888
H    1.593415  -0.109452  4.780847
H    0.553998  0.909704  5.757612
H    2.100969  2.353982  4.656863
H    0.516273  2.663373  3.947614
H    1.150679  1.380312  1.909758
H    2.655680  0.872242  2.687949
H    2.085328  3.762112  2.424623
H    4.343445  2.011110  -0.348683
H    4.196750  1.240606  1.151154
H    2.760311  4.861814  0.614969
N    -2.273391  1.462776  4.779347
C    -2.201979  1.159768  6.198495
H    -2.944505  2.162277  4.475888
H    -1.499829  1.816408  6.734748
H    -1.896462  0.119892  6.359726
H    -3.197016  1.284139  6.641605
