35
Energy: -21190.5783626 eV PBE+vdW (tier 2 basis)
C    0.559377  0.775848  0.424740
C    0.298757  0.502726  1.890872
O    1.208984  0.519854  2.729801
H    1.007688  1.772564  0.327949
H    -0.340873  0.727994  -0.199911
H    1.293441  0.050178  0.053211
N    -0.993506  0.243172  2.230805
C    -1.419038  0.008393  3.611176
C    -1.242890  -1.489887  3.978505
O    -2.188369  -2.268728  4.077216
H    -1.690590  0.165921  1.498705
H    -0.715815  0.579631  4.234921
C    -2.847147  0.492472  3.844859
C    -3.081564  1.977156  3.545634
C    -2.169077  2.949718  4.306602
N    -2.163061  2.731503  5.751525
C    -3.186049  3.233736  6.537557
N    -2.933879  3.061817  7.908985
N    -4.204174  3.811991  5.999341
H    -3.092048  0.285819  4.895365
H    -3.540355  -0.128840  3.258142
H    -4.124581  2.222524  3.785357
H    -2.954429  2.185728  2.471137
H    -2.489654  3.979436  4.083861
H    -1.129321  2.842665  3.966741
H    -1.251209  2.741203  6.193018
H    -3.738108  3.254468  8.496438
H    -2.499220  2.174939  8.152410
H    -4.909690  4.049005  6.700337
N    0.062292  -1.829465  4.167869
C    0.485829  -3.195235  4.403994
H    0.757454  -1.114580  3.942215
H    1.196026  -3.240702  5.240192
H    0.962951  -3.633635  3.514157
H    -0.401348  -3.787577  4.651933
