35
Energy: -21190.1959303 eV PBE+vdW (tier 2 basis)
C    -1.249518  1.018915  0.163976
C    -1.231471  0.952509  1.677923
O    -0.599027  1.772364  2.342085
H    -0.312782  0.587327  -0.218087
H    -2.090339  0.507476  -0.316425
H    -1.255275  2.076628  -0.118437
N    -1.922167  -0.051051  2.317871
C    -2.582542  -1.239402  1.784231
C    -3.949242  -1.357018  2.499008
O    -4.093883  -2.061964  3.495773
H    -1.814868  -0.013662  3.330410
H    -2.741647  -1.070758  0.711825
C    -1.774955  -2.532539  1.965025
C    -0.368830  -2.512447  1.344285
C    0.754274  -2.077436  2.303838
N    2.081790  -2.161073  1.713683
C    2.570945  -1.158855  0.875277
N    3.608341  -1.616824  0.050262
N    2.192012  0.066149  0.776610
H    -2.367993  -3.343935  1.517898
H    -1.727510  -2.768526  3.038675
H    -0.342169  -1.877253  0.445500
H    -0.127847  -3.529071  0.996186
H    0.737881  -2.717283  3.199436
H    0.602870  -1.051623  2.663849
H    2.323816  -3.096633  1.397230
H    4.087702  -0.830284  -0.379558
H    4.263335  -2.246917  0.506547
H    1.413171  0.294344  1.397474
N    -4.977310  -0.611738  1.995969
C    -4.938548  0.361385  0.916563
H    -5.821152  -0.666240  2.557959
H    -5.952259  0.745919  0.763852
H    -4.616350  -0.091996  -0.031537
H    -4.280236  1.212808  1.143014
