35
Energy: -21190.455722 eV PBE+vdW (tier 2 basis)
C    -0.245847  0.640499  -0.513226
C    -0.279158  0.217110  0.941763
O    0.737660  -0.059940  1.583798
H    -0.234676  -0.257860  -1.146652
H    0.684532  1.187379  -0.698693
H    -1.103361  1.263411  -0.798387
N    -1.523815  0.135157  1.492178
C    -1.730244  -0.285318  2.859465
C    -3.201450  -0.681563  2.991150
O    -4.063389  -0.169141  2.264767
H    -2.351447  0.403782  0.968322
H    -1.069032  -1.147219  3.034667
C    -1.357555  0.776187  3.940745
C    -2.332228  1.950958  4.144822
C    -1.966009  3.274553  3.448491
N    -1.680179  3.211252  2.023205
C    -2.597652  3.250973  0.990258
N    -3.901872  2.920179  1.352101
N    -2.340993  3.567397  -0.240051
H    -0.349459  1.131542  3.685636
H    -1.247577  0.233647  4.890934
H    -2.390005  2.180623  5.220289
H    -3.353846  1.658239  3.863800
H    -1.063110  3.682615  3.925285
H    -2.776349  3.998177  3.629503
H    -0.722432  3.368647  1.742070
H    -4.499665  2.940727  0.530416
H    -4.012220  2.046415  1.868663
H    -1.396223  3.953004  -0.331529
N    -3.546535  -1.568053  3.961121
C    -2.694311  -2.262604  4.911434
H    -4.550414  -1.707309  4.033569
H    -3.157703  -3.220963  5.172744
H    -2.542254  -1.686583  5.836925
H    -1.714317  -2.476640  4.471146
