35
Energy: -21190.4670473 eV PBE+vdW (tier 2 basis)
C    -0.054030  -0.516788  0.049422
C    0.255947  0.362863  1.242401
O    1.320502  0.259499  1.868309
H    -0.304022  0.083227  -0.835843
H    -0.909242  -1.177170  0.256663
H    0.822164  -1.134861  -0.161359
N    -0.679155  1.278623  1.608454
C    -2.068609  1.340105  1.198037
C    -2.234268  2.015944  -0.184089
O    -1.574270  2.992014  -0.517194
H    -0.433090  1.858656  2.419540
H    -2.486543  0.316975  1.149760
C    -2.860597  2.146896  2.244666
C    -3.044024  1.477575  3.619456
C    -1.783165  1.055989  4.387116
N    -0.803007  2.151657  4.459803
C    0.397392  1.949804  5.183156
N    1.121950  0.845611  4.776822
N    0.664505  2.788283  6.125859
H    -3.858048  2.357514  1.832354
H    -2.365344  3.123804  2.349372
H    -3.677892  0.583021  3.512472
H    -3.622914  2.177087  4.244449
H    -1.305611  0.195851  3.902299
H    -2.083716  0.718603  5.395812
H    -1.219130  3.002342  4.841418
H    2.022810  0.751955  5.232038
H    1.168406  0.647449  3.766271
H    1.611187  2.646260  6.490958
N    -3.202670  1.449749  -0.965458
C    -3.578418  1.983935  -2.260894
H    -3.675654  0.622972  -0.620842
H    -4.630400  2.301809  -2.273736
H    -3.420160  1.244308  -3.057877
H    -2.941092  2.853910  -2.452165
