35
Energy: -21190.4444329 eV PBE+vdW (tier 2 basis)
C    -1.507953  -0.443136  -0.721655
C    -1.212911  -0.635341  0.748250
O    -0.078004  -0.559424  1.225835
H    -0.635637  -0.756812  -1.303216
H    -1.687039  0.630690  -0.901262
H    -2.395545  -0.998306  -1.052222
N    -2.309266  -0.838543  1.541865
C    -2.193398  -1.016840  2.973924
C    -3.457337  -1.749028  3.440439
O    -4.479054  -1.760636  2.748697
H    -3.236334  -0.993763  1.153479
H    -1.299007  -1.634174  3.156601
C    -1.975551  0.317277  3.738807
C    -3.180952  1.259241  3.879554
C    -3.833131  1.772685  2.592138
N    -2.870794  2.469566  1.735603
C    -3.255769  3.048066  0.532952
N    -4.478247  3.719170  0.580070
N    -2.495002  2.907005  -0.501725
H    -1.130701  0.817588  3.244200
H    -1.611618  0.083536  4.750065
H    -2.852127  2.126118  4.473526
H    -3.970296  0.762778  4.465875
H    -4.629715  2.472690  2.880279
H    -4.328902  0.944471  2.057498
H    -2.011848  1.946705  1.579837
H    -4.699593  4.179734  1.458075
H    -4.662711  4.305406  -0.225723
H    -2.806649  3.494051  -1.280030
N    -3.428634  -2.358830  4.658601
C    -2.324741  -2.488644  5.593937
H    -4.322013  -2.766460  4.917921
H    -2.433143  -3.428774  6.147589
H    -2.287352  -1.662013  6.320049
H    -1.366938  -2.526701  5.062891
