35
Energy: -21190.4284449 eV PBE+vdW (tier 2 basis)
C    -1.148516  1.958139  1.393856
C    -0.171741  0.805619  1.528886
O    1.040663  0.974723  1.621250
H    -1.628341  1.952938  0.404513
H    -0.588133  2.889568  1.506360
H    -1.946504  1.917027  2.147718
N    -0.704719  -0.466523  1.563787
C    -2.090784  -0.872184  1.370864
C    -2.906638  -0.993135  2.680379
O    -4.090755  -1.331383  2.647099
H    0.004295  -1.195933  1.572769
H    -2.606631  -0.081342  0.807207
C    -2.192737  -2.150242  0.514092
C    -1.541803  -3.425498  1.070632
C    -2.256154  -4.078919  2.271537
N    -3.676359  -4.351702  2.070102
C    -4.122718  -5.200771  1.065735
N    -3.342859  -6.356254  0.910195
N    -5.155417  -4.869509  0.367919
H    -1.742118  -1.918360  -0.461725
H    -3.258343  -2.338051  0.325620
H    -0.485855  -3.256772  1.346645
H    -1.511511  -4.161696  0.253924
H    -2.180992  -3.448323  3.167345
H    -1.728030  -5.010544  2.521587
H    -4.259064  -3.515054  2.120582
H    -3.769191  -7.055163  0.311873
H    -2.990835  -6.759086  1.774994
H    -5.466598  -5.642494  -0.227324
N    -2.236990  -0.686053  3.820471
C    -2.850799  -0.740770  5.132314
H    -1.257810  -0.437330  3.724467
H    -3.906568  -0.998200  4.995101
H    -2.779780  0.229695  5.641704
H    -2.376059  -1.506260  5.762429
