35
Energy: -21190.1680271 eV PBE+vdW (tier 2 basis)
C    0.875032  0.387384  0.249191
C    0.330460  -0.334002  1.467230
O    1.067201  -0.819442  2.326594
H    0.171913  1.114894  -0.174745
H    1.103007  -0.352473  -0.531730
H    1.805863  0.891423  0.526219
N    -1.032991  -0.467644  1.489344
C    -1.826668  -1.055953  2.578098
C    -1.964563  -0.027356  3.737926
O    -2.781388  0.884193  3.580401
H    -1.556079  0.100302  0.832677
H    -2.852268  -1.052972  2.183894
C    -1.502593  -2.524983  2.898525
C    -1.733031  -3.460902  1.695716
C    -0.437097  -3.802472  0.935129
N    -0.632269  -4.422556  -0.363336
C    -0.986968  -3.669194  -1.475296
N    -1.244410  -4.462079  -2.598093
N    -1.096331  -2.386433  -1.561866
H    -2.164074  -2.813604  3.728422
H    -0.474856  -2.638995  3.259471
H    -2.452177  -3.007990  0.995876
H    -2.194171  -4.399879  2.036998
H    0.180744  -4.479209  1.543538
H    0.172995  -2.902229  0.786671
H    -0.992250  -5.371854  -0.358287
H    -1.375548  -3.883582  -3.422856
H    -0.571043  -5.207113  -2.756298
H    -1.034276  -1.951240  -0.638769
N    -1.236691  -0.109096  4.885696
C    -0.139937  -0.983635  5.282617
H    -1.483964  0.640252  5.525753
H    0.544956  -1.150941  4.444032
H    -0.496904  -1.947527  5.675866
H    0.417837  -0.480546  6.080568
