35
Energy: -21190.2513156 eV PBE+vdW (tier 2 basis)
C    0.591786  -1.152005  0.538182
C    0.271403  -0.497056  1.862780
O    1.147973  -0.028654  2.588596
H    1.278508  -1.992823  0.729706
H    1.132996  -0.432742  -0.089406
H    -0.289505  -1.513473  -0.006456
N    -1.062392  -0.454010  2.203389
C    -1.593953  -0.034175  3.508017
C    -1.026443  1.332483  3.982885
O    -0.856965  1.571843  5.173670
H    -1.705756  -0.933921  1.584889
H    -2.660845  0.173030  3.320251
C    -1.544885  -1.089057  4.631064
C    -0.174403  -1.713860  4.938416
C    0.134209  -2.950839  4.075123
N    1.551209  -2.997875  3.695784
C    2.013156  -4.002778  2.855306
N    1.613679  -5.287051  3.231093
N    2.716400  -3.689355  1.816648
H    -2.272048  -1.882369  4.392509
H    -1.920573  -0.575931  5.525505
H    -0.137132  -1.991941  6.000072
H    0.607394  -0.957797  4.797884
H    -0.505324  -2.949879  3.172039
H    -0.129913  -3.864614  4.624984
H    1.881935  -2.093649  3.355162
H    2.090152  -6.035001  2.740388
H    1.553108  -5.449859  4.232350
H    3.117611  -4.520811  1.372756
N    -0.877061  2.263744  2.999261
C    -0.251665  3.546096  3.264797
H    -0.873058  1.921582  2.045271
H    -0.626853  4.295977  2.558144
H    0.845194  3.490240  3.184857
H    -0.506675  3.851049  4.284858
