35
Energy: -21190.2789118 eV PBE+vdW (tier 2 basis)
C    -0.683841  2.028689  1.472322
C    -1.161548  1.620207  2.862090
O    -0.613410  2.060465  3.872209
H    -0.410589  1.162176  0.852977
H    0.195297  2.666119  1.597430
H    -1.457738  2.596799  0.934734
N    -2.206010  0.736624  2.942077
C    -3.028414  0.329333  1.821413
C    -4.131249  1.370088  1.510328
O    -4.713189  1.992865  2.393233
H    -2.589905  0.633655  3.905353
H    -2.377395  0.234371  0.942687
C    -3.683635  -1.058049  2.032611
C    -4.527697  -1.195984  3.315082
C    -3.751480  -1.868894  4.465796
N    -4.239924  -1.556117  5.801375
C    -3.948672  -0.314649  6.339425
N    -4.577696  -0.093038  7.568569
N    -3.188504  0.506691  5.699459
H    -2.881830  -1.813582  2.025300
H    -4.306175  -1.266057  1.149807
H    -5.434268  -1.780990  3.101811
H    -4.868228  -0.203258  3.639957
H    -2.699345  -1.558744  4.438853
H    -3.767572  -2.962514  4.348982
H    -5.153728  -1.924118  6.046074
H    -4.273635  0.751005  8.041299
H    -4.598170  -0.895362  8.192441
H    -2.931176  1.331259  6.243009
N    -4.456255  1.543226  0.188642
C    -3.828867  0.951198  -0.981430
H    -5.197988  2.220864  0.043600
H    -4.336259  1.332047  -1.874318
H    -3.916710  -0.145238  -0.995591
H    -2.764216  1.217963  -1.065516
