35
Energy: -21190.3307622 eV PBE+vdW (tier 2 basis)
C    0.520649  -0.020577  0.732586
C    -0.010900  0.399572  2.088647
O    0.688708  0.951109  2.933769
H    1.543354  0.352898  0.639097
H    -0.091123  0.371862  -0.091100
H    0.535048  -1.116317  0.638669
N    -1.341151  0.142208  2.344009
C    -2.302418  -0.580474  1.519944
C    -3.119213  0.318210  0.555626
O    -3.902223  -0.189220  -0.243918
H    -1.620206  0.380213  3.292864
H    -1.754450  -1.265833  0.855755
C    -3.260077  -1.422503  2.381965
C    -2.699634  -2.750618  2.905351
C    -1.531706  -2.658407  3.900891
N    -1.161198  -3.942809  4.495589
C    -2.027166  -4.651455  5.323054
N    -2.736677  -3.848087  6.223364
N    -2.113869  -5.930328  5.187876
H    -4.138005  -1.635723  1.758355
H    -3.620516  -0.801127  3.221045
H    -2.395890  -3.377718  2.051211
H    -3.520078  -3.290900  3.401103
H    -1.782679  -1.949642  4.704610
H    -0.627089  -2.258686  3.424324
H    -0.727753  -4.592835  3.843757
H    -3.222422  -4.373725  6.941565
H    -2.216252  -3.064621  6.609544
H    -2.657950  -6.352724  5.945115
N    -2.892346  1.653088  0.665309
C    -3.556661  2.633833  -0.169877
H    -2.211525  1.950876  1.355901
H    -2.831206  3.204425  -0.766177
H    -4.146825  3.335694  0.435351
H    -4.228306  2.093392  -0.845621
