35
Energy: -21190.440315 eV PBE+vdW (tier 2 basis)
C    0.009832  0.243030  0.170848
C    -0.155533  0.157647  1.673833
O    0.783683  0.389356  2.439351
H    0.959052  -0.224550  -0.112152
H    0.064716  1.304458  -0.106908
H    -0.808689  -0.223532  -0.391025
N    -1.405241  -0.179018  2.107231
C    -1.863030  -0.072559  3.493447
C    -1.270720  1.213648  4.142315
O    -1.469509  2.295977  3.593082
H    -2.123490  -0.244030  1.396792
H    -2.923252  0.210727  3.412623
C    -1.857318  -1.411874  4.283232
C    -0.761506  -2.464564  4.050121
C    0.692011  -2.098265  4.358050
N    0.860884  -1.512537  5.692532
C    1.985784  -0.726943  6.026393
N    2.537467  -0.027887  4.977743
N    2.473764  -0.601193  7.216309
H    -2.807498  -1.914942  4.047079
H    -1.929418  -1.169392  5.353558
H    -0.791612  -2.799367  3.001834
H    -1.048524  -3.346070  4.647599
H    1.038382  -1.368604  3.623556
H    1.319862  -2.998906  4.234425
H    0.638810  -2.155445  6.449216
H    3.207585  0.667991  5.282273
H    1.953016  0.242738  4.187966
H    2.032905  -1.251504  7.871999
N    -0.659845  1.077462  5.340262
C    -0.047108  2.223137  5.992910
H    -0.341095  0.147228  5.621329
H    0.506634  1.868799  6.868245
H    -0.810767  2.945038  6.310960
H    0.643095  2.742648  5.312607
