35
Energy: -21190.3586777 eV PBE+vdW (tier 2 basis)
C    0.432295  0.189262  0.627067
C    0.302749  0.477197  2.114341
O    1.288092  0.750299  2.803920
H    1.495662  0.202096  0.374554
H    -0.087600  0.947606  0.023446
H    0.009339  -0.788357  0.356386
N    -0.951577  0.426924  2.663761
C    -2.194541  0.326618  1.920791
C    -2.723959  1.603540  1.209465
O    -3.553138  1.452533  0.308895
H    -0.974741  0.715900  3.658923
H    -2.032458  -0.349569  1.070084
C    -3.342690  -0.299840  2.741136
C    -3.671778  0.402914  4.072744
C    -3.037293  -0.309715  5.284432
N    -2.816307  0.522434  6.457028
C    -1.738728  1.379866  6.488522
N    -1.664570  2.129346  7.664286
N    -0.933944  1.447732  5.477619
H    -3.088668  -1.354258  2.932311
H    -4.218168  -0.304678  2.080273
H    -4.761484  0.449537  4.210990
H    -3.327419  1.446361  4.051311
H    -2.057690  -0.718024  5.005333
H    -3.662669  -1.161180  5.589322
H    -3.629344  0.805010  6.992989
H    -0.814428  2.673477  7.759743
H    -1.901177  1.628688  8.516487
H    -0.083012  1.975207  5.678705
N    -2.293236  2.854984  1.542795
C    -1.376926  3.346716  2.567413
H    -2.717689  3.552596  0.938539
H    -1.549035  2.874334  3.541128
H    -1.555690  4.422681  2.679769
H    -0.321389  3.199685  2.298292
