35
Energy: -21190.3141862 eV PBE+vdW (tier 2 basis)
C    -1.789054  -0.009701  3.621206
C    -0.585191  -0.834516  3.213192
O    0.342447  -1.081615  3.979961
H    -1.625075  0.348509  4.640437
H    -2.709046  -0.610415  3.593552
H    -1.939718  0.850423  2.954065
N    -0.566194  -1.314221  1.923102
C    -1.599747  -1.204150  0.909509
C    -2.902486  -2.025306  1.089060
O    -3.894146  -1.635312  0.454948
H    0.266647  -1.855424  1.707886
H    -1.981065  -0.171954  0.910015
C    -1.017346  -1.454724  -0.493538
C    -0.476093  -2.877827  -0.753767
C    -1.086702  -3.536758  -2.005301
N    -2.522293  -3.723331  -1.942977
C    -3.142778  -4.628425  -1.099633
N    -4.493613  -4.341216  -0.914040
N    -2.617212  -5.674675  -0.546552
H    -0.231379  -0.706224  -0.666450
H    -1.826279  -1.224463  -1.199719
H    -0.676350  -3.539608  0.100729
H    0.617350  -2.860491  -0.872475
H    -0.598098  -4.507037  -2.185580
H    -0.876268  -2.924989  -2.894098
H    -3.110486  -2.981549  -2.301996
H    -4.931749  -5.028551  -0.308507
H    -4.682716  -3.377856  -0.626009
H    -1.670265  -5.845213  -0.895408
N    -3.002746  -3.088448  1.931091
C    -2.007094  -3.999353  2.490560
H    -3.943300  -3.475825  1.889615
H    -2.369848  -4.364064  3.459499
H    -1.057408  -3.492078  2.661072
H    -1.863157  -4.859799  1.818581
