35
Energy: -21190.5263632 eV PBE+vdW (tier 2 basis)
C    -1.760592  1.005882  1.159120
C    -1.644070  0.261766  2.474186
O    -2.320447  0.550784  3.463638
H    -0.873712  0.897551  0.522162
H    -1.940668  2.066057  1.364451
H    -2.630126  0.611266  0.612617
N    -0.761896  -0.780734  2.473370
C    -0.624627  -1.713165  3.571504
C    0.559203  -2.629421  3.218023
O    0.985089  -2.722232  2.066147
H    -0.232521  -1.030908  1.640169
H    -0.391828  -1.153606  4.492963
C    -1.924924  -2.521686  3.831896
C    -2.447778  -3.257660  2.598247
C    -3.954378  -3.548100  2.672843
N    -4.527419  -3.802961  1.360784
C    -4.806748  -2.756414  0.487545
N    -5.382640  -3.204230  -0.705811
N    -4.605611  -1.495843  0.665689
H    -2.669946  -1.787743  4.170416
H    -1.758126  -3.213612  4.672181
H    -1.895817  -4.192024  2.419286
H    -2.277103  -2.628915  1.713490
H    -4.466000  -2.698703  3.163866
H    -4.153748  -4.428748  3.298360
H    -5.146452  -4.601422  1.280109
H    -4.931645  -4.018229  -1.114774
H    -5.475377  -2.440955  -1.369702
H    -4.331193  -1.283241  1.628140
N    1.065257  -3.338330  4.263166
C    2.140663  -4.301574  4.118920
H    0.676204  -3.175090  5.184192
H    3.013574  -4.015015  4.721401
H    2.428841  -4.318413  3.062896
H    1.816561  -5.308333  4.417511
