35
Energy: -21190.4482291 eV PBE+vdW (tier 2 basis)
C    3.398757  -1.253337  0.115526
C    3.010730  -0.243004  1.178154
O    3.620410  0.815692  1.334549
H    3.341600  -0.770082  -0.867761
H    2.769214  -2.151473  0.110180
H    4.443432  -1.547631  0.274846
N    1.937751  -0.585741  1.949564
C    1.461125  0.259912  3.026246
C    0.845104  -0.669401  4.080846
O    0.197576  -1.663622  3.749394
H    1.454529  -1.472737  1.837280
H    2.334127  0.797633  3.428665
C    0.433833  1.298333  2.517780
C    0.005201  2.334289  3.556181
C    -0.916201  3.408558  2.959618
N    -1.341988  4.415689  3.922057
C    -0.830369  5.700476  4.025504
N    0.407690  5.882572  3.408535
N    -1.393930  6.708177  4.603468
H    -0.442422  0.754590  2.131089
H    0.903157  1.805109  1.661361
H    0.897043  2.823783  3.984732
H    -0.515962  1.855059  4.399145
H    -1.812995  2.924826  2.542502
H    -0.415828  3.911696  2.119278
H    -2.260904  4.301292  4.328997
H    0.778528  6.802792  3.625021
H    1.092669  5.144628  3.542545
H    -2.354987  6.491624  4.881729
N    1.047998  -0.296634  5.372707
C    0.478785  -1.009337  6.501609
H    1.617658  0.522794  5.546102
H    -0.094143  -1.853315  6.104092
H    -0.191990  -0.361215  7.082553
H    1.265802  -1.392996  7.164903
