35
Energy: -21190.4339481 eV PBE+vdW (tier 2 basis)
C    0.661577  0.467246  2.778431
C    -0.409178  -0.552137  2.443506
O    -0.205371  -1.763440  2.473755
H    1.546773  -0.070347  3.127208
H    0.330298  1.172974  3.552315
H    0.931186  1.058233  1.891263
N    -1.652279  -0.059591  2.110919
C    -2.055140  1.328530  1.912136
C    -2.464994  2.073594  3.203094
O    -2.605217  3.294279  3.192995
H    -2.304831  -0.780569  1.810557
H    -1.206258  1.905203  1.513571
C    -3.206778  1.383499  0.895616
C    -2.770218  1.050831  -0.534808
C    -3.942668  0.673396  -1.446411
N    -4.547395  -0.604862  -1.077641
C    -5.842794  -0.672782  -0.591591
N    -6.308977  -1.994397  -0.509292
N    -6.495463  0.398110  -0.297024
H    -3.652160  2.385625  0.933094
H    -3.994648  0.686368  1.224927
H    -2.047455  0.218512  -0.530847
H    -2.244900  1.916317  -0.969348
H    -3.598051  0.615369  -2.489562
H    -4.734601  1.432968  -1.397382
H    -4.258135  -1.405316  -1.627356
H    -7.163103  -2.092849  0.028561
H    -5.612340  -2.682391  -0.233466
H    -7.402886  0.179973  0.118961
N    -2.661748  1.287085  4.294486
C    -3.068408  1.815297  5.580764
H    -2.485236  0.294196  4.184013
H    -4.032891  1.393835  5.896801
H    -3.172421  2.900642  5.474381
H    -2.318150  1.601462  6.354890
