35
Energy: -21190.2067729 eV PBE+vdW (tier 2 basis)
C    -0.696224  1.205635  -0.605931
C    -0.555028  0.077814  0.395642
O    0.439050  -0.644683  0.449865
H    0.166479  1.175994  -1.275965
H    -0.730619  2.183476  -0.104902
H    -1.620290  1.114477  -1.193243
N    -1.603838  -0.118684  1.262444
C    -2.773642  0.724280  1.457201
C    -2.502813  2.126863  2.052733
O    -3.134647  3.089727  1.619869
H    -1.439176  -0.874950  1.921120
H    -3.217569  0.956513  0.478086
C    -3.838425  -0.011741  2.288004
C    -4.435510  -1.229274  1.578542
C    -5.448038  -1.968186  2.463765
N    -6.092242  -3.105654  1.824453
C    -7.133585  -2.899936  0.932743
N    -7.528296  -4.089501  0.300359
N    -7.611670  -1.718977  0.739283
H    -4.636972  0.709044  2.515422
H    -3.403797  -0.308630  3.259102
H    -3.638175  -1.926181  1.273585
H    -4.947354  -0.903327  0.661610
H    -6.248383  -1.278229  2.761630
H    -4.959293  -2.331199  3.381568
H    -5.483798  -3.883644  1.589603
H    -8.384246  -4.000475  -0.236582
H    -7.547117  -4.907755  0.904347
H    -8.449135  -1.747891  0.153669
N    -1.582205  2.284123  3.051138
C    -0.778959  1.304521  3.769681
H    -1.503101  3.253513  3.342176
H    -1.382146  0.455618  4.118188
H    -0.368696  1.793784  4.660200
H    0.059307  0.920460  3.172268
