35
Energy: -21190.7163365 eV PBE+vdW (tier 2 basis)
C    -0.837928  -0.226779  0.305976
C    -0.369477  -0.415374  1.738078
O    0.557032  -1.170886  2.030189
H    0.035305  -0.026769  -0.327025
H    -1.573095  0.579943  0.196040
H    -1.280064  -1.167740  -0.048240
N    -1.077316  0.305280  2.669279
C    -0.683918  0.324271  4.069152
C    -1.732623  -0.291489  5.020908
O    -1.634321  -0.166218  6.241395
H    -1.727418  1.036390  2.324868
H    0.195302  -0.339291  4.133423
C    -0.290190  1.727932  4.560193
C    0.906910  2.345375  3.807081
C    0.587876  3.656542  3.075299
N    -0.417165  3.508682  2.016414
C    -1.781250  3.600110  2.227007
N    -2.211436  4.729848  2.892463
N    -2.555125  2.676803  1.735885
H    -0.076862  1.639034  5.631553
H    -1.171223  2.384971  4.488499
H    1.307042  1.627012  3.074344
H    1.733659  2.543798  4.505509
H    1.503623  4.066858  2.624633
H    0.232971  4.408749  3.793967
H    -0.220142  2.736794  1.383851
H    -3.071305  4.667995  3.420214
H    -1.527438  5.389007  3.240848
H    -3.540146  2.948811  1.774622
N    -2.728305  -0.985806  4.408569
C    -3.750111  -1.704609  5.139390
H    -2.691043  -1.034538  3.395991
H    -3.607166  -1.491187  6.204481
H    -3.668708  -2.789880  4.981569
H    -4.755946  -1.378638  4.839573
