35
Energy: -21190.6317761 eV PBE+vdW (tier 2 basis)
C    0.292907  0.014508  0.407539
C    0.018533  -0.209948  1.879744
O    0.903134  -0.592009  2.658971
H    0.765975  -0.883850  -0.006116
H    1.013263  0.838922  0.313349
H    -0.603686  0.256317  -0.175313
N    -1.238897  0.071890  2.295837
C    -1.687282  -0.068711  3.667641
C    -3.224863  0.022096  3.607924
O    -3.805399  0.458966  2.611447
H    -1.971866  0.362831  1.649107
H    -1.398548  -1.069006  4.031926
C    -1.084698  0.974838  4.643391
C    -1.209114  2.441393  4.200399
C    0.034876  2.979373  3.478669
N    1.208985  2.958501  4.346436
C    2.510502  2.792773  3.874639
N    2.652496  1.843001  2.867802
N    3.437956  3.526644  4.397155
H    -0.024911  0.730832  4.796000
H    -1.569807  0.831509  5.620258
H    -1.390243  3.069956  5.085821
H    -2.085319  2.585463  3.549004
H    -0.172414  4.003448  3.116730
H    0.256353  2.380132  2.590006
H    1.218231  3.690340  5.053394
H    2.090545  0.989038  2.939484
H    3.619202  1.646196  2.635617
H    4.365916  3.216798  4.095788
N    -3.871113  -0.395203  4.726732
C    -5.312606  -0.326255  4.882026
H    -3.315419  -0.750723  5.495701
H    -5.594262  0.362016  5.691198
H    -5.732338  -1.318409  5.095487
H    -5.730441  0.042758  3.940092
