35
Energy: -21190.4581446 eV PBE+vdW (tier 2 basis)
C    0.173726  -0.344888  0.254950
C    -0.012384  -0.632230  1.731178
O    0.792843  -1.301291  2.380810
H    1.016374  0.349922  0.135696
H    -0.709351  0.100564  -0.218113
H    0.438679  -1.276748  -0.256918
N    -1.104523  -0.037688  2.303216
C    -1.516208  -0.331313  3.662707
C    -3.036150  -0.560278  3.622058
O    -3.721787  -0.085826  2.714926
H    -1.852500  0.336388  1.719137
H    -0.984923  -1.249532  3.957346
C    -1.177759  0.785224  4.680887
C    0.311748  0.895974  5.046077
C    1.198919  1.741002  4.117015
N    0.870323  3.154335  4.082622
C    0.141848  3.773939  3.079632
N    -0.036159  5.142790  3.331352
N    -0.369004  3.257195  2.015679
H    -1.743111  0.582305  5.602297
H    -1.563373  1.741720  4.297259
H    0.752829  -0.111202  5.106789
H    0.388091  1.325653  6.058447
H    1.175939  1.360265  3.089938
H    2.243159  1.633589  4.450240
H    0.900939  3.649370  4.967448
H    -0.476915  5.589351  2.531902
H    0.809044  5.631883  3.616085
H    -0.309990  2.236863  2.031838
N    -3.598331  -1.283945  4.631407
C    -2.952811  -1.921354  5.765296
H    -4.611196  -1.330879  4.571820
H    -3.531452  -2.805722  6.057080
H    -2.875287  -1.254892  6.638896
H    -1.944864  -2.259563  5.500035
