35
Energy: -21190.0693311 eV PBE+vdW (tier 2 basis)
C    -0.145226  1.190956  0.059507
C    -0.105404  0.859803  1.541049
O    0.550645  1.511868  2.347118
H    -0.610803  2.176683  -0.067080
H    -0.695138  0.460207  -0.546883
H    0.883332  1.266455  -0.312977
N    -0.845348  -0.228287  1.922383
C    -0.989532  -0.632973  3.314853
C    0.325392  -0.909828  4.079060
O    0.403252  -0.567567  5.255753
H    -1.385982  -0.722996  1.222579
H    -1.425498  0.200073  3.886789
C    -1.936938  -1.844019  3.384891
C    -2.288354  -2.295705  4.802657
C    -3.292687  -3.455721  4.794390
N    -3.652882  -3.936835  6.122153
C    -4.838796  -3.648764  6.780562
N    -5.469787  -2.481987  6.339922
N    -5.393626  -4.347171  7.713213
H    -1.494095  -2.688189  2.828605
H    -2.863868  -1.570985  2.851217
H    -2.701868  -1.446801  5.369401
H    -1.383428  -2.598638  5.347781
H    -2.868672  -4.299824  4.227185
H    -4.212707  -3.157063  4.269491
H    -3.196306  -4.781409  6.440520
H    -6.268832  -2.276226  6.932895
H    -4.861295  -1.675285  6.227349
H    -4.923910  -5.248653  7.835623
N    1.336299  -1.620075  3.489957
C    1.516151  -2.061576  2.117552
H    2.142523  -1.689832  4.103653
H    2.314219  -2.813334  2.103650
H    1.802692  -1.242874  1.439610
H    0.611676  -2.539333  1.724208
