35
Energy: -21190.7217514 eV PBE+vdW (tier 2 basis)
C    0.192355  -0.050544  1.038985
C    -0.927637  0.182842  2.034768
O    -1.441058  1.293283  2.197926
H    1.032110  0.608013  1.293472
H    -0.157364  0.236569  0.039509
H    0.545853  -1.088456  1.011031
N    -1.330617  -0.912593  2.735985
C    -2.365859  -0.831940  3.747211
C    -2.081994  -1.949384  4.764732
O    -1.640581  -3.040845  4.384857
H    -0.892899  -1.824365  2.628986
H    -2.272972  0.155269  4.220287
C    -3.776087  -0.969264  3.118467
C    -4.919904  -0.550474  4.046042
C    -5.021193  0.978192  4.260466
N    -5.488699  1.352484  5.595765
C    -4.665841  1.122591  6.687373
N    -5.333639  0.837165  7.870443
N    -3.368294  1.115883  6.691326
H    -3.906733  -2.013120  2.797794
H    -3.785212  -0.351804  2.207962
H    -4.795731  -1.036826  5.025103
H    -5.872783  -0.924558  3.643436
H    -5.706909  1.430021  3.532095
H    -4.052547  1.464804  4.080025
H    -6.467802  1.133633  5.757552
H    -6.282365  1.183663  7.959722
H    -4.763667  1.011226  8.691823
H    -3.004285  1.401173  5.779631
N    -2.367233  -1.663708  6.053440
C    -2.179635  -2.647194  7.104582
H    -2.664507  -0.715545  6.324620
H    -1.113601  -2.848015  7.286913
H    -2.656618  -3.597747  6.833192
H    -2.632053  -2.262430  8.024481
