35
Energy: -21190.3247277 eV PBE+vdW (tier 2 basis)
C    0.282083  0.486871  1.430418
C    -0.584623  0.383800  2.664888
O    -0.159697  0.699340  3.784773
H    1.308938  0.237655  1.717851
H    0.286191  1.529154  1.080585
H    -0.045826  -0.153186  0.604327
N    -1.862517  -0.086996  2.536279
C    -2.763903  -0.143589  1.376440
C    -2.465982  -1.396626  0.521147
O    -1.908110  -1.331625  -0.573920
H    -2.361330  -0.093474  3.422812
H    -3.750621  -0.277143  1.843355
C    -2.836624  1.113701  0.497575
C    -2.872227  2.473199  1.212699
C    -3.885102  2.659382  2.366650
N    -3.311199  2.452748  3.683801
C    -3.599474  1.405461  4.514528
N    -2.723934  1.350424  5.612287
N    -4.586931  0.599075  4.255177
H    -3.744977  1.002992  -0.115166
H    -2.005648  1.102825  -0.219887
H    -3.083947  3.228324  0.440997
H    -1.871508  2.725312  1.596787
H    -4.736438  1.971787  2.284186
H    -4.296740  3.679349  2.322449
H    -2.555959  3.060349  3.975103
H    -2.910669  0.561044  6.222780
H    -1.737212  1.361537  5.332695
H    -4.636912  -0.138462  4.961265
N    -2.849505  -2.596505  1.050359
C    -3.389184  -2.871965  2.371902
H    -2.552156  -3.388760  0.488428
H    -3.889321  -3.846955  2.351077
H    -4.137871  -2.123303  2.659130
H    -2.607956  -2.894433  3.147800
