35
Energy: -21190.5013624 eV PBE+vdW (tier 2 basis)
C    0.161312  -1.853423  2.151263
C    0.148958  -0.460474  2.734637
O    1.048788  -0.040398  3.468792
H    -0.173535  -1.881865  1.106619
H    -0.504856  -2.497502  2.742980
H    1.178079  -2.248046  2.226750
N    -0.905107  0.357400  2.409256
C    -2.208076  -0.039795  1.882195
C    -2.362101  0.164968  0.355483
O    -3.402693  -0.165087  -0.209257
H    -0.872057  1.245432  2.905359
H    -2.336074  -1.120351  2.039466
C    -3.336217  0.700672  2.623418
C    -3.781590  0.128657  3.977598
C    -2.722728  -0.102805  5.063558
N    -2.043415  -1.390582  4.867776
C    -1.087803  -1.841059  5.790527
N    -0.140952  -0.886680  6.147868
N    -1.191091  -3.055756  6.214590
H    -4.205806  0.708892  1.952951
H    -3.031257  1.755240  2.743612
H    -4.318989  -0.819445  3.807293
H    -4.535471  0.818440  4.385318
H    -3.212012  -0.066953  6.054235
H    -1.977112  0.704464  5.062025
H    -2.711469  -2.150885  4.742688
H    0.602817  -1.262363  6.726608
H    0.236866  -0.337442  5.371487
H    -0.370408  -3.327750  6.763449
N    -1.285490  0.704578  -0.272426
C    -1.246430  0.944249  -1.700979
H    -0.485301  0.933747  0.308020
H    -1.097166  2.010507  -1.920404
H    -2.208365  0.625696  -2.117125
H    -0.441550  0.368725  -2.179102
