35
Energy: -21190.2632433 eV PBE+vdW (tier 2 basis)
C    -0.411067  -0.326668  4.165997
C    -1.120575  -1.641441  4.409442
O    -0.861360  -2.357745  5.389106
H    0.206379  -0.389476  3.258171
H    0.234548  -0.113417  5.021633
H    -1.111734  0.506684  4.019229
N    -2.061193  -2.032161  3.511655
C    -2.613406  -1.318813  2.374569
C    -3.527466  -0.093292  2.620678
O    -3.798927  0.598035  1.637689
H    -2.392279  -3.003130  3.615749
H    -1.801078  -0.897986  1.760613
C    -3.363592  -2.334722  1.482203
C    -4.694268  -2.902460  2.012457
C    -4.711243  -3.565276  3.397145
N    -3.604798  -4.526754  3.580990
C    -3.481789  -5.161466  4.846356
N    -3.166714  -4.284109  5.875879
N    -3.681662  -6.431316  4.900831
H    -2.659685  -3.153220  1.270709
H    -3.568910  -1.836826  0.526853
H    -5.047252  -3.630897  1.264946
H    -5.453059  -2.105199  2.026156
H    -5.689103  -4.058221  3.541296
H    -4.630232  -2.811848  4.187725
H    -3.663339  -5.278243  2.892143
H    -3.051783  -4.742414  6.774046
H    -2.400108  -3.617167  5.694485
H    -3.428700  -6.809405  5.819494
N    -4.065329  0.221605  3.839709
C    -3.877993  -0.282614  5.195955
H    -4.616969  1.071833  3.758012
H    -2.939812  0.064068  5.654029
H    -3.896394  -1.373898  5.245434
H    -4.708496  0.091236  5.805606
