35
Energy: -21190.3043089 eV PBE+vdW (tier 2 basis)
C    0.273114  -0.976191  0.585222
C    0.282865  -0.470297  2.016413
O    1.326154  -0.244802  2.623766
H    -0.233273  -0.275601  -0.094099
H    -0.234657  -1.946647  0.501375
H    1.311749  -1.087470  0.264087
N    -0.933985  -0.253670  2.618002
C    -2.265743  -0.548018  2.101406
C    -3.244516  0.565639  2.543911
O    -4.279607  0.337741  3.174839
H    -0.851899  0.009021  3.597068
H    -2.208661  -0.454447  1.005112
C    -2.773137  -1.977179  2.412165
C    -2.347018  -2.601801  3.746938
C    -2.892485  -1.948104  5.027622
N    -4.339000  -1.849073  5.098122
C    -5.106065  -2.959073  5.371427
N    -6.479979  -2.717249  5.197146
N    -4.562955  -4.081013  5.714842
H    -2.405325  -2.632562  1.608879
H    -3.868724  -1.973870  2.325065
H    -1.247747  -2.626693  3.813702
H    -2.678290  -3.649542  3.747200
H    -2.495761  -0.928745  5.156062
H    -2.554752  -2.540214  5.887678
H    -4.734429  -1.148106  4.473014
H    -7.071949  -3.420191  5.626346
H    -6.779557  -1.775897  5.439520
H    -5.274137  -4.767738  5.975883
N    -2.928014  1.842665  2.185091
C    -1.833399  2.329412  1.359120
H    -3.605927  2.521180  2.517730
H    -2.092154  3.333051  1.004306
H    -1.687455  1.696049  0.474207
H    -0.882894  2.382947  1.906675
