35
Energy: -21190.2918375 eV PBE+vdW (tier 2 basis)
C    -0.964892  1.021870  3.265367
C    -2.419552  1.070113  3.670187
O    -2.786186  1.617269  4.721120
H    -0.364432  1.034770  4.180547
H    -0.705385  1.923365  2.691557
H    -0.733395  0.132759  2.669724
N    -3.355054  0.466130  2.874348
C    -3.410528  0.174320  1.442872
C    -2.904413  -1.244469  1.124608
O    -1.866211  -1.692736  1.607144
H    -4.281038  0.539318  3.286026
H    -4.486856  0.233236  1.227956
C    -2.715113  1.172930  0.492761
C    -3.006027  2.668475  0.703046
C    -4.480021  3.095965  0.869769
N    -4.925800  3.126980  2.249351
C    -5.813124  2.243077  2.804177
N    -5.858854  2.351864  4.201559
N    -6.509898  1.441503  2.054272
H    -3.029815  0.891333  -0.525073
H    -1.627757  1.014163  0.519625
H    -2.588428  3.197889  -0.167031
H    -2.442116  3.045022  1.570160
H    -5.166901  2.428805  0.332824
H    -4.608584  4.099819  0.435936
H    -4.420386  3.719358  2.896435
H    -6.480923  1.678958  4.637092
H    -4.935582  2.349452  4.649261
H    -7.098008  0.836026  2.630493
N    -3.659332  -1.978510  0.252192
C    -4.873798  -1.591206  -0.450225
H    -3.240078  -2.873693  0.018786
H    -4.678538  -0.905845  -1.290407
H    -5.597045  -1.113326  0.222637
H    -5.343966  -2.494301  -0.854571
