35
Energy: -21190.3533223 eV PBE+vdW (tier 2 basis)
C    -1.711958  -1.194274  -1.292526
C    -2.088718  -0.282512  -0.139058
O    -2.546338  0.841641  -0.312171
H    -0.917763  -0.711762  -1.876130
H    -2.581413  -1.303227  -1.951806
H    -1.373182  -2.190325  -0.981618
N    -1.894056  -0.815220  1.116830
C    -2.025903  0.007590  2.324283
C    -1.364718  -0.675486  3.524922
O    -0.667405  -0.044740  4.319922
H    -1.293677  -1.630543  1.178889
H    -1.476182  0.947070  2.173067
C    -3.507986  0.331947  2.636808
C    -3.722452  1.117805  3.935140
C    -3.115220  2.534282  3.926284
N    -3.250267  3.250445  5.181380
C    -2.417970  3.089675  6.288779
N    -1.194696  2.491761  6.037822
N    -2.666844  3.537144  7.478039
H    -4.068019  -0.615562  2.679446
H    -3.901084  0.892263  1.777591
H    -3.319970  0.561537  4.796243
H    -4.805764  1.203526  4.112924
H    -3.593510  3.131238  3.134104
H    -2.047602  2.506067  3.672155
H    -4.191878  3.530579  5.430152
H    -0.679476  2.343414  6.898327
H    -1.126954  1.713031  5.384900
H    -3.546037  4.060989  7.499373
N    -1.627552  -2.007181  3.665510
C    -1.165527  -2.775489  4.809633
H    -2.329163  -2.419079  3.059276
H    -0.868526  -3.782674  4.493737
H    -1.940408  -2.856122  5.586176
H    -0.301546  -2.258172  5.238306
