35
Energy: -21190.1648734 eV PBE+vdW (tier 2 basis)
C    -1.820644  -0.443902  0.942646
C    -1.221353  -0.497568  2.332141
O    -0.438189  -1.383901  2.663961
H    -1.266637  0.274416  0.322915
H    -2.875540  -0.145940  0.936782
H    -1.712706  -1.435519  0.494424
N    -1.588040  0.468114  3.252150
C    -2.360739  1.710481  3.113857
C    -3.892861  1.504602  3.136763
O    -4.656848  2.464417  3.026595
H    -1.069767  0.358520  4.119463
H    -2.185646  2.232652  4.066361
C    -1.844178  2.678414  2.000900
C    -2.665230  2.890232  0.712796
C    -3.558742  4.147189  0.684532
N    -2.880632  5.392632  0.991061
C    -2.825184  5.935921  2.270221
N    -1.999428  7.071874  2.317060
N    -3.394975  5.526036  3.348320
H    -0.841615  2.316353  1.739647
H    -1.681032  3.658438  2.466278
H    -3.307244  2.025209  0.490485
H    -1.958759  2.956213  -0.130394
H    -4.387156  4.031474  1.390956
H    -4.005693  4.232634  -0.318292
H    -2.110994  5.652088  0.382178
H    -2.089948  7.526321  3.221739
H    -2.149384  7.728637  1.554710
H    -3.872810  4.627885  3.227203
N    -4.315255  0.231807  3.345760
C    -5.714567  -0.114940  3.498392
H    -3.599613  -0.469174  3.505794
H    -5.999167  -0.909568  2.795835
H    -6.306235  0.782262  3.288273
H    -5.933404  -0.451619  4.521612
