35
Energy: -21190.2384372 eV PBE+vdW (tier 2 basis)
C    -0.067292  -0.522190  0.552066
C    -0.056330  -0.231669  2.039436
O    0.788340  0.488480  2.563147
H    0.962038  -0.671413  0.208768
H    -0.468601  0.359826  0.034166
H    -0.674554  -1.393944  0.277553
N    -1.052718  -0.842177  2.765744
C    -1.389851  -0.411626  4.129490
C    -1.388143  1.141081  4.190949
O    -2.031860  1.780021  3.362295
H    -1.818083  -1.228072  2.224955
H    -2.461178  -0.643720  4.235297
C    -0.691783  -1.205019  5.253098
C    0.840239  -1.261575  5.363774
C    1.576158  -2.146129  4.329851
N    0.911847  -3.383262  3.947575
C    0.779037  -4.432601  4.833540
N    -0.002140  -5.477591  4.303180
N    1.306670  -4.380824  6.009838
H    -1.063148  -2.239869  5.193552
H    -1.100034  -0.824446  6.202811
H    1.067545  -1.656892  6.362497
H    1.294171  -0.261148  5.292691
H    2.555312  -2.413806  4.747402
H    1.753641  -1.579405  3.410063
H    0.154792  -3.279264  3.280178
H    0.018403  -6.319476  4.869250
H    0.186788  -5.686262  3.325302
H    1.223107  -5.279549  6.490667
N    -0.750709  1.713629  5.246317
C    -0.645231  3.156327  5.368031
H    -0.090048  1.143657  5.760176
H    -1.569960  3.606973  4.993285
H    0.193232  3.556604  4.777229
H    -0.507456  3.428399  6.420980
