35
Energy: -21190.1443693 eV PBE+vdW (tier 2 basis)
C    0.963448  -2.004145  1.075119
C    0.509603  -0.587361  1.359046
O    1.224537  0.383598  1.122744
H    1.381942  -2.446875  1.990478
H    1.758308  -1.953938  0.325915
H    0.164934  -2.669821  0.729897
N    -0.728375  -0.392734  1.934642
C    -1.766553  -1.350384  2.318672
C    -1.221645  -2.531166  3.160408
O    -1.408989  -3.700463  2.833416
H    -0.925965  0.592760  2.079740
H    -2.431746  -0.785431  2.995059
C    -2.623380  -1.853600  1.149297
C    -3.359109  -0.731410  0.418409
C    -4.228016  -1.268502  -0.730099
N    -4.943295  -0.259176  -1.488847
C    -4.321001  0.516784  -2.461468
N    -5.161615  1.529283  -2.941709
N    -3.128694  0.409671  -2.935971
H    -3.336655  -2.590188  1.546870
H    -1.987600  -2.411156  0.445948
H    -2.642224  0.000992  0.018073
H    -4.005662  -0.182078  1.124695
H    -4.970031  -1.978412  -0.333934
H    -3.607485  -1.844062  -1.434188
H    -5.691020  0.214546  -0.991351
H    -4.732234  1.997138  -3.735140
H    -6.109823  1.226116  -3.149795
H    -2.566216  -0.267767  -2.416771
N    -0.537287  -2.216260  4.300884
C    -0.257881  -0.912448  4.881504
H    -0.198394  -3.036876  4.793068
H    -0.017840  -1.051101  5.941718
H    -1.135591  -0.254630  4.828819
H    0.585602  -0.402495  4.394802
