35
Energy: -21190.3414698 eV PBE+vdW (tier 2 basis)
C    -0.085164  -0.050132  -0.263096
C    -0.073482  -0.195929  1.245657
O    0.862643  -0.728070  1.843336
H    0.833744  0.461385  -0.573897
H    -0.951331  0.502102  -0.647522
H    -0.071098  -1.050946  -0.713083
N    -1.164595  0.319562  1.892954
C    -1.352745  0.175620  3.330270
C    -2.353722  -0.974129  3.576305
O    -3.541178  -0.836641  3.274314
H    -1.970438  0.606077  1.347050
H    -0.360295  -0.064131  3.729296
C    -1.869410  1.471995  3.960730
C    -1.973218  1.388806  5.484478
C    -2.510672  2.686167  6.102971
N    -2.636079  2.640475  7.554329
C    -1.762270  3.228526  8.455207
N    -0.496786  3.507528  7.933001
N    -2.014958  3.545384  9.680947
H    -2.859851  1.698844  3.535121
H    -1.189393  2.286199  3.666982
H    -0.984546  1.158403  5.916302
H    -2.635945  0.559154  5.775342
H    -3.502411  2.902575  5.676906
H    -1.862213  3.532663  5.832407
H    -3.559750  2.463300  7.926767
H    0.122807  3.826192  8.672217
H    -0.078912  2.771999  7.369953
H    -3.009510  3.436945  9.898288
N    -1.872060  -2.129778  4.106014
C    -0.503351  -2.450878  4.495132
H    -2.586904  -2.838800  4.241120
H    -0.413502  -3.540418  4.566049
H    -0.239538  -2.024458  5.475397
H    0.213602  -2.101442  3.741597
