35
Energy: -21190.2142098 eV PBE+vdW (tier 2 basis)
C    -0.688774  0.440138  -0.366077
C    -0.220389  0.510693  1.080853
O    0.961277  0.369618  1.385672
H    0.185134  0.236353  -0.990110
H    -1.143145  1.387556  -0.690443
H    -1.430489  -0.356549  -0.520088
N    -1.175226  0.754103  2.031965
C    -2.611099  0.865852  1.845436
C    -3.118090  1.809705  2.953278
O    -2.699761  1.662075  4.103078
H    -0.853855  0.792943  2.998273
H    -2.796501  1.290000  0.851430
C    -3.328212  -0.504114  1.972931
C    -4.774956  -0.508654  1.465520
C    -4.871751  -0.598897  -0.066759
N    -6.203613  -0.286024  -0.592851
C    -6.576285  1.022367  -0.906864
N    -5.597746  1.734820  -1.607702
N    -7.694228  1.603024  -0.632929
H    -3.285150  -0.802815  3.029649
H    -2.733335  -1.247251  1.419060
H    -5.304704  0.392022  1.811203
H    -5.314163  -1.360763  1.907296
H    -4.584061  -1.609017  -0.397156
H    -4.163540  0.095139  -0.535876
H    -6.951326  -0.780732  -0.113255
H    -5.978296  2.615680  -1.942641
H    -5.142268  1.208263  -2.348980
H    -8.260899  1.036396  0.004461
N    -4.042179  2.764654  2.656518
C    -4.616457  3.175994  1.385772
H    -4.311123  3.299434  3.479246
H    -4.216018  2.584766  0.559472
H    -4.389807  4.232721  1.184380
H    -5.707739  3.043957  1.377256
