35
Energy: -21190.1356972 eV PBE+vdW (tier 2 basis)
C    0.057789  -0.395663  0.541542
C    -0.089475  -0.140321  2.030194
O    0.870921  -0.150314  2.796091
H    -0.277036  0.464808  -0.055250
H    -0.524601  -1.269738  0.219933
H    1.115855  -0.576159  0.336256
N    -1.353087  0.122114  2.502200
C    -2.619955  0.093059  1.780279
C    -3.553988  1.193766  2.340181
O    -4.662165  0.939465  2.805989
H    -1.383800  0.236988  3.512199
H    -2.404856  0.385730  0.740447
C    -3.302750  -1.294809  1.737287
C    -3.124715  -2.199004  2.963273
C    -3.770555  -1.714208  4.272625
N    -3.717218  -2.695364  5.344925
C    -4.601736  -3.767491  5.399982
N    -4.238024  -4.701848  6.378713
N    -5.654228  -3.980043  4.688006
H    -2.898133  -1.833859  0.868077
H    -4.371474  -1.132289  1.540206
H    -2.051571  -2.377525  3.139471
H    -3.554364  -3.181058  2.715979
H    -4.818504  -1.432132  4.105960
H    -3.285677  -0.798885  4.642051
H    -2.785317  -2.911838  5.686818
H    -4.974852  -5.391308  6.498807
H    -3.956199  -4.292780  7.266099
H    -5.748310  -3.296616  3.933615
N    -3.090174  2.478539  2.284497
C    -1.865450  2.993792  1.691965
H    -3.743125  3.147868  2.679536
H    -1.994885  4.066682  1.511546
H    -1.660257  2.521746  0.721878
H    -0.988288  2.849770  2.337848
