35
Energy: -21190.1856622 eV PBE+vdW (tier 2 basis)
C    0.749373  -1.703487  0.030118
C    0.400964  -1.779828  1.503435
O    0.786860  -2.711334  2.209133
H    1.809371  -1.428493  -0.053331
H    0.152121  -0.975191  -0.532380
H    0.624936  -2.696570  -0.416030
N    -0.398476  -0.763113  1.960017
C    -0.619132  -0.429675  3.362633
C    0.673525  0.198238  3.955728
O    1.756285  0.104187  3.389079
H    -0.524746  0.005036  1.311635
H    -1.389683  0.359739  3.348780
C    -1.174152  -1.590747  4.214679
C    -2.536908  -2.122873  3.731179
C    -2.470424  -3.417590  2.913104
N    -1.981491  -4.524797  3.727247
C    -1.343383  -5.645724  3.197138
N    -0.466878  -5.379723  2.153904
N    -1.630248  -6.797988  3.710781
H    -1.273438  -1.222153  5.242964
H    -0.442775  -2.406159  4.249553
H    -3.057683  -1.358601  3.131597
H    -3.182184  -2.304969  4.605085
H    -1.803210  -3.296452  2.054442
H    -3.474229  -3.634833  2.500372
H    -2.637325  -4.839771  4.438912
H    0.113012  -6.170241  1.898832
H    0.052906  -4.497628  2.195812
H    -1.004502  -7.525059  3.353526
N    0.552280  0.895573  5.128552
C    -0.627599  1.202153  5.917452
H    1.445829  1.239535  5.467249
H    -1.516158  1.294467  5.281629
H    -0.482350  2.168575  6.415476
H    -0.833923  0.445320  6.690456
