35
Energy: -21190.3576033 eV PBE+vdW (tier 2 basis)
C    -2.315976  -0.295151  -1.058168
C    -1.582350  0.313785  0.120248
O    -0.572334  0.997458  -0.009927
H    -2.371094  0.444977  -1.863876
H    -3.326312  -0.647581  -0.815924
H    -1.728656  -1.145288  -1.431303
N    -2.137741  0.064835  1.358546
C    -1.398775  0.341494  2.598304
C    -1.019798  1.841105  2.675223
O    0.047714  2.238028  3.141125
H    -2.873713  -0.631344  1.407015
H    -2.123736  0.188176  3.415911
C    -0.240187  -0.655110  2.790379
C    0.423011  -0.706183  4.182358
C    1.805659  -0.030539  4.307137
N    2.817123  -0.506245  3.382356
C    2.968258  -0.113018  2.059281
N    2.554230  1.178958  1.755986
N    3.551308  -0.943908  1.252838
H    0.509145  -0.490449  2.007047
H    -0.675662  -1.642355  2.576531
H    0.541866  -1.763821  4.464239
H    -0.241380  -0.266185  4.945050
H    2.180365  -0.205300  5.327450
H    1.700302  1.054146  4.206453
H    3.127159  -1.466465  3.496402
H    2.371012  1.316762  0.768234
H    1.809756  1.584472  2.324379
H    3.703663  -0.512400  0.338055
N    -2.010795  2.689518  2.293995
C    -1.800594  4.123909  2.222321
H    -2.786387  2.286060  1.780577
H    -2.761605  4.641186  2.323009
H    -1.327503  4.421194  1.273702
H    -1.140485  4.424835  3.042249
