35
Energy: -21190.5248932 eV PBE+vdW (tier 2 basis)
C    -0.059638  -0.090170  -0.011999
C    -0.019264  -0.101557  1.501476
O    1.051041  -0.087203  2.124078
H    0.436704  0.821418  -0.367955
H    -1.074081  -0.127222  -0.427249
H    0.515823  -0.944216  -0.389563
N    -1.225250  -0.128137  2.129658
C    -1.391082  -0.042277  3.581601
C    -1.201247  -1.423346  4.279010
O    -2.097313  -1.973345  4.919713
H    -2.066120  -0.199638  1.568869
H    -0.568898  0.597751  3.939020
C    -2.724089  0.620210  3.941503
C    -3.979231  -0.019413  3.336360
C    -5.251088  0.658886  3.842506
N    -6.438556  0.027588  3.284512
C    -7.626823  0.734446  3.196793
N    -8.701881  -0.089467  2.821422
N    -7.674242  1.993025  3.469750
H    -2.669502  1.680357  3.648232
H    -2.809093  0.596725  5.037036
H    -3.992721  -1.088652  3.593546
H    -3.982151  0.055248  2.235247
H    -5.288166  1.715409  3.548096
H    -5.270318  0.643340  4.947647
H    -6.554164  -0.953197  3.522322
H    -9.540296  0.425489  2.574825
H    -8.474875  -0.791666  2.121246
H    -8.592738  2.383636  3.246758
N    0.051808  -1.921783  4.124722
C    0.456688  -3.205707  4.659992
H    0.704670  -1.369007  3.559875
H    1.333152  -3.098610  5.314005
H    0.705116  -3.914180  3.856138
H    -0.377084  -3.609522  5.244051
