35
Energy: -21190.5853682 eV PBE+vdW (tier 2 basis)
C    -0.115436  0.034516  -0.774594
C    -0.629009  0.209309  0.640157
O    -1.028644  1.304052  1.048325
H    0.286473  -0.964748  -0.981906
H    0.664223  0.782598  -0.962166
H    -0.936641  0.239724  -1.473254
N    -0.603952  -0.914204  1.418646
C    -1.145853  -1.000218  2.773390
C    -0.111639  -1.552177  3.782304
O    -0.460849  -2.134417  4.804087
H    -0.360008  -1.788246  0.962882
H    -1.348812  0.036534  3.082985
C    -2.455268  -1.803648  2.828258
C    -3.635293  -1.204216  2.049968
C    -4.329549  -0.000895  2.695396
N    -3.461058  1.157253  2.753419
C    -3.755823  2.250116  3.529903
N    -2.753719  3.234481  3.492271
N    -4.822430  2.273657  4.259838
H    -2.715890  -1.921482  3.888419
H    -2.250259  -2.821487  2.456131
H    -4.397206  -1.989043  1.934286
H    -3.326425  -0.948453  1.021011
H    -4.642993  -0.238124  3.722638
H    -5.259402  0.221847  2.139813
H    -2.774828  1.281208  2.011011
H    -3.096370  4.176814  3.640329
H    -2.101388  3.175804  2.713883
H    -4.836689  3.108044  4.851157
N    1.192702  -1.305788  3.465005
C    2.286464  -1.634721  4.358389
H    1.378625  -0.762915  2.630033
H    1.884143  -2.270227  5.154409
H    2.720852  -0.733391  4.815227
H    3.076949  -2.179557  3.825346
