35
Energy: -21190.2167936 eV PBE+vdW (tier 2 basis)
C    -0.258157  -0.372579  2.178388
C    -1.175336  -0.075737  3.346613
O    -0.779969  -0.117269  4.511655
H    -0.763061  -0.826109  1.318310
H    0.542605  -1.025427  2.537952
H    0.204436  0.565401  1.837685
N    -2.482475  0.266979  3.087537
C    -3.189330  0.520747  1.828800
C    -3.354842  -0.770342  0.990316
O    -2.715693  -0.979481  -0.041203
H    -3.003956  0.506421  3.928317
H    -4.199026  0.797048  2.153563
C    -2.647052  1.667968  0.959617
C    -2.122977  2.912338  1.693324
C    -2.967899  3.483091  2.849619
N    -4.406285  3.567825  2.590755
C    -5.343092  2.674892  3.084018
N    -5.012843  2.101078  4.320762
N    -6.449939  2.313144  2.523699
H    -3.464439  1.951152  0.278569
H    -1.855112  1.281013  0.305084
H    -1.972243  3.697734  0.935880
H    -1.124012  2.712994  2.110475
H    -2.585233  4.483618  3.104475
H    -2.828987  2.861765  3.739963
H    -4.664101  3.955637  1.689032
H    -4.617036  2.744616  5.001710
H    -5.820313  1.608390  4.693239
H    -6.522148  2.674533  1.568523
N    -4.258691  -1.675249  1.463220
C    -5.088051  -1.585652  2.655766
H    -4.296371  -2.529611  0.916546
H    -5.833227  -2.387295  2.616690
H    -5.632880  -0.631976  2.697805
H    -4.502532  -1.703520  3.579750
