35
Energy: -21190.1180778 eV PBE+vdW (tier 2 basis)
C    -0.770722  1.288671  -0.253891
C    -0.889594  1.613141  1.225692
O    -0.780251  2.756458  1.655123
H    -1.029520  0.253265  -0.508719
H    0.262385  1.482394  -0.570566
H    -1.417400  1.971194  -0.817343
N    -1.139833  0.536090  2.037425
C    -1.169738  0.571127  3.500714
C    -1.783010  1.866616  4.098521
O    -1.197197  2.493519  4.975111
H    -1.171615  -0.379381  1.604724
H    -1.863035  -0.234660  3.800393
C    0.194373  0.258259  4.138519
C    1.354305  1.158454  3.707036
C    2.612014  0.871614  4.539820
N    3.778339  1.667294  4.202618
C    3.934190  2.978057  4.644609
N    5.084889  3.573055  4.105355
N    3.188998  3.655788  5.444505
H    0.437522  -0.794953  3.916761
H    0.061611  0.330264  5.227896
H    1.067669  2.211594  3.814465
H    1.587024  0.998461  2.642048
H    2.893883  -0.189518  4.443843
H    2.395996  1.032999  5.607154
H    4.186910  1.485198  3.290990
H    5.235938  4.485382  4.527014
H    5.918035  2.991646  4.155851
H    2.300820  3.188657  5.641176
N    -3.061299  2.193971  3.736874
C    -3.901535  1.630342  2.698322
H    -3.353291  3.077080  4.144158
H    -4.944933  1.888333  2.915727
H    -3.830903  0.535966  2.684755
H    -3.652338  2.008292  1.693972
