35
Energy: -21190.3873893 eV PBE+vdW (tier 2 basis)
C    -3.073482  1.098895  0.433779
C    -1.941560  0.110641  0.617909
O    -1.001806  0.010370  -0.167198
H    -2.860177  1.691273  -0.459556
H    -3.171986  1.771925  1.297578
H    -4.038876  0.582272  0.306841
N    -2.004151  -0.714837  1.721649
C    -2.988058  -0.690766  2.785364
C    -2.765372  0.316382  3.933029
O    -3.753419  0.879807  4.425172
H    -1.240892  -1.383617  1.768052
H    -3.923384  -0.338318  2.341780
C    -3.235215  -2.112921  3.338446
C    -4.214793  -2.917367  2.469902
C    -5.693367  -2.761834  2.893520
N    -6.164035  -1.407477  3.123329
C    -6.247505  -0.442608  2.132286
N    -6.280373  0.848775  2.646332
N    -6.313715  -0.636104  0.853578
H    -3.615543  -2.036806  4.368273
H    -2.267730  -2.634340  3.412274
H    -3.974707  -3.989880  2.519089
H    -4.085395  -2.624057  1.417552
H    -5.857280  -3.306231  3.834318
H    -6.335923  -3.254904  2.146759
H    -6.093336  -1.052090  4.069586
H    -6.299502  1.541118  1.904274
H    -5.577584  1.044663  3.364955
H    -6.407153  -1.629620  0.628854
N    -1.519475  0.570502  4.411323
C    -0.238560  -0.022093  4.050211
H    -1.522369  1.262688  5.154545
H    -0.286395  -1.119005  4.040638
H    0.492013  0.261940  4.815338
H    0.126166  0.328229  3.075447
