35
Energy: -21190.5891169 eV PBE+vdW (tier 2 basis)
C    -0.174411  -1.250507  0.296605
C    -0.553026  -0.696888  1.656808
O    -0.509808  -1.385936  2.675969
H    0.846272  -1.648158  0.351389
H    -0.228948  -0.513326  -0.513882
H    -0.840469  -2.090046  0.061213
N    -0.937884  0.616021  1.666798
C    -1.352321  1.319266  2.880808
C    -2.854411  1.629202  2.724903
O    -3.223916  2.671434  2.159026
H    -1.010999  1.115732  0.787329
H    -1.178123  0.610039  3.698396
C    -0.503836  2.582959  3.087588
C    -0.464065  3.165775  4.507637
C    -1.768152  3.755170  5.049568
N    -2.717556  2.705787  5.415956
C    -4.092224  2.905163  5.513365
N    -4.618150  3.777202  4.565656
N    -4.726850  2.269135  6.444457
H    -0.845496  3.352917  2.378668
H    0.524206  2.314266  2.804490
H    0.290303  3.967445  4.515655
H    -0.091314  2.402381  5.212067
H    -2.231219  4.398549  4.292500
H    -1.542915  4.401519  5.918136
H    -2.416199  2.128246  6.197901
H    -4.219403  3.689989  3.625080
H    -5.631489  3.803159  4.558887
H    -5.739340  2.379756  6.343821
N    -3.745598  0.684655  3.112541
C    -3.529380  -0.447923  4.005247
H    -4.708382  0.980106  2.975131
H    -4.316265  -1.188831  3.821850
H    -3.579905  -0.140269  5.061248
H    -2.567247  -0.929362  3.800530
