35
Energy: -21190.2468344 eV PBE+vdW (tier 2 basis)
C    -1.782487  -1.516794  0.691117
C    -1.011228  -0.660053  1.682169
O    0.183766  -0.415934  1.522262
H    -1.296354  -2.498203  0.628357
H    -1.710295  -1.052939  -0.300310
H    -2.840533  -1.659713  0.942734
N    -1.754279  -0.208191  2.739994
C    -1.347562  0.605790  3.894989
C    -1.799411  2.083677  3.739524
O    -2.671206  2.506925  4.518002
H    -2.742299  -0.431614  2.716025
H    -2.001144  0.268263  4.712383
C    0.104709  0.379268  4.362054
C    0.353034  0.680862  5.849602
C    0.083748  2.114417  6.328269
N    0.712160  3.096164  5.451551
C    0.333059  4.430927  5.328904
N    -0.963748  4.721226  5.723828
N    1.085016  5.382088  4.873523
H    0.809518  0.940713  3.741914
H    0.339855  -0.679673  4.190446
H    1.404885  0.424144  6.056963
H    -0.246464  0.002350  6.477401
H    0.431747  2.213552  7.373085
H    -0.994320  2.302670  6.345042
H    1.708657  2.965036  5.309872
H    -1.206581  5.675304  5.477448
H    -1.691922  4.043276  5.487514
H    2.049431  5.063517  4.742351
N    -1.304258  2.883249  2.765505
C    -0.109934  2.744784  1.945085
H    -1.689035  3.823045  2.829967
H    0.739378  3.268878  2.410057
H    -0.299045  3.191513  0.960938
H    0.149645  1.692717  1.793886
