35
Energy: -21190.1352282 eV PBE+vdW (tier 2 basis)
C    -0.190560  -0.055649  0.338241
C    -0.358174  0.059840  1.842934
O    0.602838  0.109710  2.605789
H    0.879773  -0.117670  0.126461
H    -0.602679  0.819048  -0.185267
H    -0.688925  -0.948439  -0.063066
N    -1.641038  0.124591  2.331753
C    -2.896705  0.015294  1.600750
C    -3.948890  0.987051  2.192688
O    -5.062901  0.605417  2.544585
H    -1.679832  0.153686  3.347842
H    -2.706998  0.379326  0.578467
C    -3.434805  -1.430399  1.479183
C    -3.222176  -2.345260  2.691495
C    -4.004019  -1.973079  3.951027
N    -3.704392  -2.909973  5.020743
C    -4.199801  -2.704478  6.303979
N    -3.906803  -3.772363  7.161407
N    -4.861382  -1.692712  6.748238
H    -2.930025  -1.896738  0.620511
H    -4.502636  -1.368763  1.228735
H    -2.150374  -2.396910  2.937989
H    -3.512519  -3.364270  2.386672
H    -5.083670  -1.920302  3.722430
H    -3.722888  -0.968693  4.301299
H    -3.659268  -3.886665  4.743014
H    -4.167786  -3.543200  8.116286
H    -2.949982  -4.110833  7.099105
H    -5.138556  -1.061981  5.992413
N    -3.591548  2.302206  2.293913
C    -2.396692  2.980365  1.813435
H    -4.327511  2.873550  2.696981
H    -2.622102  4.048825  1.722846
H    -2.104947  2.622464  0.817160
H    -1.538934  2.859613  2.488912
