35
Energy: -21190.4266263 eV PBE+vdW (tier 2 basis)
C    -0.452013  1.394848  1.219188
C    0.340048  0.780045  2.358443
O    1.376880  1.296983  2.765058
H    -1.120977  2.164569  1.629310
H    -1.059251  0.682878  0.649576
H    0.255299  1.895041  0.550172
N    -0.123356  -0.390209  2.929409
C    -1.424739  -1.042230  2.770755
C    -1.631450  -1.717714  1.392893
O    -2.758081  -1.966855  0.966747
H    0.393127  -0.646124  3.773181
H    -1.375637  -1.897472  3.460248
C    -2.652216  -0.183514  3.153736
C    -2.547581  0.513700  4.516139
C    -2.949748  -0.325555  5.749167
N    -2.423610  -1.682360  5.845034
C    -1.072721  -1.964227  5.934088
N    -0.785139  -3.318623  5.725840
N    -0.094045  -1.144504  6.128519
H    -3.537134  -0.833378  3.103824
H    -2.811663  0.573494  2.374424
H    -3.211215  1.391633  4.518228
H    -1.532854  0.918567  4.641746
H    -4.043165  -0.430563  5.771435
H    -2.678073  0.223365  6.664538
H    -2.979485  -2.393795  5.383149
H    -1.435334  -3.969122  6.158681
H    0.178218  -3.522728  5.976720
H    -0.413079  -0.175151  6.175052
N    -0.482545  -2.062537  0.752915
C    -0.467002  -2.756621  -0.518014
H    0.388128  -1.780817  1.191536
H    0.055528  -3.720170  -0.438157
H    0.022140  -2.153362  -1.295967
H    -1.506936  -2.938833  -0.809905
