35
Energy: -21189.8171164 eV PBE+vdW (tier 2 basis)
C    -0.770268  -0.030807  -0.532743
C    -0.104034  -0.132409  0.824990
O    1.108645  -0.288133  0.936136
H    0.016106  -0.042095  -1.291562
H    -1.354566  0.892286  -0.637718
H    -1.438898  -0.885750  -0.702317
N    -0.887948  -0.042869  1.954004
C    -2.342802  0.025078  2.128388
C    -3.006577  -1.308852  1.667219
O    -2.733005  -2.318395  2.313098
H    -0.352945  -0.253550  2.790802
H    -2.471342  -0.060257  3.217274
C    -2.948664  1.386166  1.746280
C    -4.319338  1.618353  2.390093
C    -4.981622  2.903335  1.899762
N    -6.282581  3.085627  2.517557
C    -7.131462  4.111137  2.104863
N    -8.266362  4.211998  2.914408
N    -6.977213  4.922854  1.117345
H    -3.011998  1.520656  0.659317
H    -2.242678  2.151987  2.100163
H    -4.196104  1.659586  3.485717
H    -4.997889  0.773318  2.195344
H    -5.128870  2.843871  0.809386
H    -4.308318  3.764436  2.081137
H    -6.308576  2.908479  3.518335
H    -8.928362  4.878232  2.527200
H    -8.704389  3.325082  3.148399
H    -6.046304  4.844546  0.702405
N    -3.859433  -1.407778  0.597168
C    -4.382275  -0.453535  -0.370877
H    -4.180652  -2.366926  0.499158
H    -4.935798  -1.021349  -1.126270
H    -3.588295  0.092897  -0.892773
H    -5.080898  0.268689  0.074336
