35
Energy: -21190.5978821 eV PBE+vdW (tier 2 basis)
C    -2.025331  -0.343035  0.202548
C    -1.024507  -0.286247  1.337923
O    0.177568  -0.513743  1.145259
H    -1.665656  0.287648  -0.618937
H    -3.037638  -0.028994  0.483795
H    -2.067223  -1.374482  -0.171024
N    -1.534051  0.030588  2.559895
C    -0.842003  -0.006584  3.857633
C    0.285504  1.019218  4.095549
O    0.389928  1.538072  5.219670
H    -2.525034  0.233189  2.597545
H    -1.610425  0.307389  4.573590
C    -0.347474  -1.427825  4.249837
C    -1.314195  -2.206904  5.146248
C    -1.674679  -1.484016  6.471308
N    -0.617030  -0.678139  7.055659
C    0.535168  -1.265348  7.535361
N    1.550203  -0.331891  7.782139
N    0.576738  -2.536601  7.771352
H    0.613197  -1.332696  4.774195
H    -0.130329  -1.989767  3.332622
H    -0.842682  -3.168227  5.387867
H    -2.248694  -2.434512  4.607185
H    -1.988809  -2.235445  7.207246
H    -2.530934  -0.809675  6.321889
H    -0.483344  0.244831  6.642242
H    2.474226  -0.739939  7.861466
H    1.538070  0.494233  7.185860
H    1.477942  -2.803671  8.173742
N    1.138416  1.245777  3.080670
C    2.291875  2.113907  3.224891
H    1.031722  0.648996  2.248410
H    3.149160  1.585728  3.670638
H    2.036786  2.956407  3.877254
H    2.584953  2.491330  2.239017
