35
Energy: -21190.5653041 eV PBE+vdW (tier 2 basis)
C    0.409481  0.364326  -0.347875
C    0.120107  0.505644  1.136855
O    0.967775  0.264843  1.993896
H    0.649302  -0.685755  -0.557919
H    1.297123  0.959575  -0.593525
H    -0.421644  0.673623  -0.994252
N    -1.147699  0.914699  1.447593
C    -1.619478  1.040979  2.826198
C    -3.105063  0.625117  2.856265
O    -3.441052  -0.485443  3.269363
H    -1.809062  1.095410  0.701618
H    -1.094563  0.270559  3.406091
C    -1.259236  2.421152  3.412609
C    -1.759610  2.658808  4.849924
C    -3.050720  3.481410  4.960045
N    -2.912454  4.848572  4.462991
C    -3.374960  5.277885  3.248815
N    -3.301285  6.664667  3.083845
N    -3.866615  4.449931  2.377433
H    -1.619890  3.216387  2.744516
H    -0.162659  2.475064  3.388004
H    -0.978054  3.174914  5.427513
H    -1.922703  1.695861  5.360599
H    -3.358335  3.539899  6.014251
H    -3.874768  3.007770  4.413996
H    -2.711731  5.564910  5.147927
H    -3.383338  6.970847  2.120791
H    -2.530181  7.127157  3.557454
H    -4.141620  4.937283  1.523456
N    -3.987621  1.521753  2.335938
C    -5.409289  1.220455  2.337214
H    -3.748728  2.525575  2.263538
H    -5.948759  2.113817  2.004429
H    -5.762391  0.935522  3.339796
H    -5.636592  0.385659  1.660741
