35
Energy: -21189.8787836 eV PBE+vdW (tier 2 basis)
C    0.135510  1.468475  0.094292
C    0.196408  0.642869  1.362397
O    1.260178  0.409840  1.929850
H    -0.504165  1.014804  -0.672962
H    1.154152  1.551366  -0.294114
H    -0.232232  2.482615  0.310057
N    -0.980876  0.178537  1.913886
C    -2.350980  0.158154  1.392253
C    -2.461049  -0.893932  0.246457
O    -2.209397  -2.061795  0.537016
H    -0.797873  -0.448343  2.691276
H    -2.922971  -0.342685  2.187589
C    -2.978360  1.550795  1.226288
C    -2.882676  2.397356  2.495334
C    -3.567573  3.776130  2.367071
N    -3.350991  4.494277  1.117110
C    -2.095081  4.900791  0.689733
N    -2.094312  5.304540  -0.653808
N    -0.988912  4.921505  1.349368
H    -4.035788  1.413649  0.945824
H    -2.505854  2.103350  0.407000
H    -1.823470  2.517004  2.757922
H    -3.345137  1.872157  3.346567
H    -3.256017  4.419449  3.204167
H    -4.656226  3.658764  2.461584
H    -3.982575  4.242408  0.364359
H    -1.205128  5.738911  -0.887039
H    -2.877000  5.899639  -0.914762
H    -1.085957  4.504243  2.276655
N    -2.814039  -0.583546  -1.041855
C    -3.203952  0.650507  -1.709777
H    -2.834633  -1.426513  -1.608938
H    -3.308668  0.427563  -2.776961
H    -2.449451  1.441267  -1.614011
H    -4.168953  1.039507  -1.354419
