35
Energy: -21190.3874526 eV PBE+vdW (tier 2 basis)
C    -0.629653  1.165206  2.421444
C    0.084989  -0.114141  2.812952
O    1.281912  -0.112246  3.097299
H    0.133494  1.934905  2.277857
H    -1.310814  1.488982  3.219751
H    -1.217529  1.053565  1.502865
N    -0.629269  -1.289281  2.887927
C    -1.989805  -1.650469  2.456923
C    -2.039467  -1.782201  0.910385
O    -1.551635  -2.785647  0.383671
H    -0.010767  -2.077327  3.057878
H    -2.094738  -2.695093  2.782450
C    -3.093299  -0.857755  3.177114
C    -4.502066  -1.472261  3.026890
C    -5.436739  -0.760702  2.039792
N    -5.739047  0.619317  2.414369
C    -5.149296  1.706799  1.823506
N    -5.733541  2.922204  2.185830
N    -4.168887  1.565990  0.985463
H    -3.112555  0.192015  2.859621
H    -2.809702  -0.845427  4.238793
H    -4.995468  -1.484335  4.010136
H    -4.425129  -2.527106  2.716723
H    -6.389048  -1.307639  1.985748
H    -5.014022  -0.755210  1.027899
H    -6.631471  0.784147  2.861119
H    -6.109075  2.972003  3.128660
H    -5.175009  3.737455  1.959685
H    -3.814388  2.470344  0.671445
N    -2.580841  -0.764375  0.201007
C    -2.629587  -0.819412  -1.248820
H    -3.064037  0.034264  0.642677
H    -3.251561  0.010691  -1.601845
H    -3.058417  -1.770794  -1.592487
H    -1.625829  -0.732523  -1.689429
