35
Energy: -21190.2600862 eV PBE+vdW (tier 2 basis)
C    1.239663  1.173984  0.407885
C    0.943631  1.020675  1.888560
O    1.808907  1.121898  2.752469
H    1.546362  2.210534  0.217411
H    0.390417  0.932547  -0.243643
H    2.088301  0.530300  0.148246
N    -0.362058  0.750430  2.206343
C    -0.827897  0.678551  3.583267
C    -0.141615  -0.372694  4.478679
O    0.046304  -0.097938  5.667157
H    -1.049427  0.692790  1.464089
H    -0.571358  1.622105  4.086125
C    -2.359223  0.486092  3.581241
C    -3.014548  0.422025  4.964874
C    -2.920461  1.732459  5.769613
N    -3.468544  1.653928  7.109413
C    -2.794785  1.138792  8.219874
N    -1.424290  1.024323  8.086426
N    -3.348399  0.863567  9.357519
H    -2.600575  -0.435614  3.026982
H    -2.794320  1.320914  3.005379
H    -2.575214  -0.395021  5.555080
H    -4.077183  0.166106  4.831240
H    -3.449743  2.533104  5.227150
H    -1.877537  2.064267  5.855006
H    -4.474183  1.545113  7.170660
H    -1.011984  0.588842  8.903802
H    -1.013188  0.711834  7.206513
H    -4.341795  1.110880  9.354636
N    0.164468  -1.611831  4.005698
C    0.077440  -2.169886  2.666464
H    0.629064  -2.176091  4.711153
H    0.145437  -3.260730  2.749364
H    0.889079  -1.822201  2.010188
H    -0.882471  -1.936518  2.192738
