35
Energy: -21190.2292183 eV PBE+vdW (tier 2 basis)
C    -0.189377  -0.454499  0.474123
C    0.074109  -0.124388  1.936261
O    1.079273  -0.524747  2.518217
H    0.607667  -1.120026  0.132938
H    -0.180345  0.453566  -0.146024
H    -1.158593  -0.950411  0.324722
N    -0.847838  0.662805  2.573774
C    -2.120059  1.148920  2.072247
C    -2.405266  2.472400  2.806994
O    -2.150940  2.597168  4.001894
H    -0.650566  0.889986  3.547937
H    -2.030669  1.340851  0.991288
C    -3.264734  0.134830  2.313413
C    -4.599266  0.511550  1.667599
C    -5.672126  -0.590260  1.745823
N    -6.140525  -0.929774  3.080966
C    -5.439022  -1.694814  4.009057
N    -4.796629  -2.820292  3.499623
N    -5.524814  -1.365338  5.253025
H    -3.381073  0.006658  3.399385
H    -2.922816  -0.834159  1.916818
H    -4.444387  0.750606  0.599666
H    -5.002135  1.424938  2.133288
H    -5.308349  -1.500058  1.242848
H    -6.550262  -0.273775  1.163497
H    -6.610122  -0.172776  3.572098
H    -4.642803  -2.873329  2.499651
H    -4.010498  -3.151132  4.044895
H    -5.105301  -2.074603  5.859361
N    -2.971222  3.450465  2.046557
C    -3.369166  4.737443  2.588166
H    -3.126582  3.262807  1.063679
H    -3.121646  4.735766  3.654643
H    -4.449483  4.900722  2.471482
H    -2.828570  5.558165  2.097522
