35
Energy: -21190.647432 eV PBE+vdW (tier 2 basis)
C    -2.761637  1.452109  1.121686
C    -2.195208  0.868282  2.396723
O    -2.259850  1.471968  3.475058
H    -2.429351  2.491997  1.026942
H    -3.857022  1.458401  1.206647
H    -2.482840  0.892977  0.220540
N    -1.653934  -0.375176  2.285844
C    -1.034249  -1.068645  3.397316
C    0.304502  -1.633798  2.896385
O    0.445178  -1.987463  1.725528
H    -1.472145  -0.779220  1.370123
H    -0.873193  -0.316998  4.183752
C    -1.904943  -2.233530  3.937526
C    -3.326251  -1.846537  4.358295
C    -3.392331  -0.882972  5.554644
N    -4.736937  -0.554199  6.008492
C    -5.660394  0.215320  5.300600
N    -5.140114  0.983700  4.273492
N    -6.933472  0.253638  5.527874
H    -1.370259  -2.689501  4.787397
H    -1.955307  -3.006057  3.155115
H    -3.872304  -2.768152  4.613716
H    -3.860756  -1.399340  3.508020
H    -2.859349  0.048258  5.317014
H    -2.863938  -1.322658  6.415649
H    -5.181909  -1.257252  6.587066
H    -5.795353  1.695124  3.970747
H    -4.168773  1.288730  4.302587
H    -7.200051  -0.409199  6.260342
N    1.272369  -1.749403  3.844414
C    2.575188  -2.332305  3.579131
H    1.078212  -1.385594  4.769749
H    2.760143  -3.199640  4.227533
H    3.377298  -1.596703  3.729025
H    2.583982  -2.658165  2.534028
