35
Energy: -21190.6601292 eV PBE+vdW (tier 2 basis)
C    0.200540  0.611071  0.150070
C    0.060587  0.174647  1.591859
O    1.042877  0.075180  2.337647
H    1.194322  1.046284  0.016454
H    -0.569184  1.333398  -0.149740
H    0.113315  -0.258800  -0.517961
N    -1.198789  -0.102799  2.052991
C    -2.359354  -0.429284  1.223367
C    -3.225957  0.787654  0.828584
O    -4.083308  0.679534  -0.045420
H    -1.213776  -0.525225  2.993751
H    -2.032153  -0.868994  0.267863
C    -3.244608  -1.453207  1.955201
C    -2.665729  -2.871142  2.103646
C    -1.318407  -3.022725  2.823428
N    -1.302097  -2.273455  4.092691
C    -0.180139  -2.391989  4.947931
N    1.027431  -2.130717  4.331001
N    -0.405780  -2.735035  6.170236
H    -4.186182  -1.519683  1.394659
H    -3.501741  -1.039058  2.943377
H    -2.564008  -3.330381  1.108182
H    -3.419986  -3.475156  2.633583
H    -0.498954  -2.656867  2.191798
H    -1.123973  -4.097057  2.990590
H    -2.114997  -2.497260  4.668842
H    1.822924  -2.111788  4.958525
H    1.048568  -1.377005  3.631023
H    0.442698  -2.662075  6.739591
N    -2.974317  1.925172  1.526714
C    -3.708116  3.156863  1.318011
H    -2.228292  1.882162  2.213995
H    -3.037642  3.972145  1.012399
H    -4.241736  3.460970  2.229286
H    -4.438289  2.977091  0.521437
