35
Energy: -21189.98916 eV PBE+vdW (tier 2 basis)
C    0.292619  0.144915  0.057816
C    0.107157  0.490770  1.526900
O    0.940122  1.158978  2.136939
H    1.223554  -0.425548  -0.050156
H    0.415077  1.076803  -0.507943
H    -0.530220  -0.433778  -0.379988
N    -1.051092  0.018390  2.081679
C    -1.514528  0.043903  3.477176
C    -2.652384  1.045898  3.791551
O    -3.527537  0.684931  4.580090
H    -1.651856  -0.506855  1.457585
H    -2.043600  -0.911084  3.597007
C    -0.408848  0.032161  4.564076
C    0.141739  1.370377  5.084408
C    -0.633058  1.969581  6.261009
N    -0.499009  1.136922  7.446576
C    -1.233653  1.400968  8.598533
N    -0.839813  0.588828  9.671144
N    -2.169969  2.267534  8.769074
H    0.411395  -0.584770  4.175649
H    -0.832841  -0.514591  5.418709
H    0.209534  2.106629  4.276562
H    1.186729  1.214170  5.398168
H    -1.703853  2.040890  6.022948
H    -0.272379  3.000225  6.442832
H    0.449130  0.820121  7.633576
H    -0.722286  -0.391822  9.428652
H    -1.474942  0.709143  10.455378
H    -2.270638  2.877174  7.954764
N    -2.693159  2.290127  3.233199
C    -1.795042  2.971491  2.313834
H    -3.526063  2.794149  3.524595
H    -1.886384  4.051447  2.479565
H    -2.039788  2.763002  1.260445
H    -0.750057  2.696129  2.487843
