35
Energy: -21190.0462447 eV PBE+vdW (tier 2 basis)
C    -0.230715  0.243069  -0.176511
C    -0.213512  -0.245381  1.263631
O    0.659492  -1.013687  1.665578
H    -0.286844  -0.629796  -0.838586
H    0.719754  0.749879  -0.384172
H    -1.057817  0.923273  -0.414372
N    -1.235921  0.234556  2.036690
C    -1.558142  -0.030788  3.446547
C    -1.129330  1.148926  4.364080
O    -2.019028  1.855652  4.848563
H    -1.846467  0.910546  1.593066
H    -2.652005  0.062653  3.499769
C    -1.232632  -1.457690  3.926551
C    -1.831127  -1.788458  5.304465
C    -0.956777  -1.358065  6.481843
N    -1.574828  -1.734521  7.745999
C    -0.828127  -1.676740  8.910309
N    -1.553759  -2.017435  10.059554
N    0.435161  -1.417406  8.864985
H    -0.156175  -1.657368  3.920799
H    -1.661159  -2.137340  3.175992
H    -1.979655  -2.876106  5.371996
H    -2.832915  -1.332739  5.393641
H    -0.751870  -0.275547  6.456457
H    0.018861  -1.859184  6.439326
H    -2.549357  -1.464271  7.837936
H    -1.230064  -1.573112  10.910613
H    -2.565991  -2.030404  9.982790
H    0.864764  -1.543939  9.784697
N    0.183255  1.426345  4.593540
C    1.381457  0.646583  4.318105
H    0.287008  2.212540  5.230186
H    1.684977  0.053425  5.194959
H    2.201746  1.328771  4.060484
H    1.229525  -0.025938  3.468090
