35
Energy: -21190.89649 eV PBE+vdW (tier 2 basis)
C    -3.670955  0.159949  0.229944
C    -2.604715  0.765978  1.121238
O    -1.642962  1.384961  0.650939
H    -4.467433  -0.350462  0.784180
H    -3.193713  -0.553335  -0.453628
H    -4.113408  0.954109  -0.384135
N    -2.794295  0.594404  2.458767
C    -1.791482  0.947267  3.444254
C    -1.686735  -0.218456  4.446933
O    -2.621954  -1.016669  4.582247
H    -3.473496  -0.087194  2.797510
H    -0.839838  1.053342  2.908519
C    -2.117295  2.252147  4.204600
C    -2.020489  3.545121  3.387000
C    -0.672201  3.769731  2.673680
N    0.491822  3.425701  3.492757
C    1.274743  2.309392  3.292085
N    1.630583  2.046789  1.981645
N    1.670748  1.622024  4.328461
H    -1.437541  2.310981  5.067034
H    -3.130689  2.160885  4.623455
H    -2.226534  4.388001  4.065899
H    -2.806865  3.574077  2.617592
H    -0.605716  4.819222  2.348192
H    -0.660992  3.145974  1.770931
H    0.416957  3.632555  4.484604
H    1.131112  2.543225  1.251468
H    1.785467  1.070894  1.759314
H    2.411817  0.967453  4.062292
N    -0.536175  -0.241313  5.154325
C    -0.290723  -1.209786  6.204924
H    0.204061  0.451097  4.938796
H    -1.220393  -1.754600  6.399988
H    0.035812  -0.704087  7.123537
H    0.484475  -1.933376  5.911653
