35
Energy: -21190.3876796 eV PBE+vdW (tier 2 basis)
C    -0.286198  1.742554  0.505024
C    -0.016615  0.668736  1.539552
O    1.100840  0.446601  1.994066
H    0.644268  2.288159  0.330201
H    -1.066872  2.443286  0.831246
H    -0.622663  1.299496  -0.443377
N    -1.104788  -0.064923  1.972841
C    -2.476434  -0.002685  1.483933
C    -3.292553  1.186618  2.037482
O    -4.298756  1.580151  1.447934
H    -0.851638  -0.833576  2.589261
H    -2.474864  0.138120  0.393520
C    -3.169116  -1.344267  1.815581
C    -4.616429  -1.506679  1.341365
C    -4.777325  -1.501527  -0.178584
N    -6.168568  -1.720145  -0.537518
C    -6.534392  -1.951638  -1.861392
N    -7.923038  -1.984597  -2.024893
N    -5.769687  -2.126102  -2.883217
H    -3.137232  -1.481313  2.908899
H    -2.547576  -2.143574  1.380163
H    -5.239890  -0.710099  1.773336
H    -5.000222  -2.461791  1.729687
H    -4.181358  -2.319429  -0.613748
H    -4.396118  -0.552410  -0.598109
H    -6.826146  -1.132494  -0.030772
H    -8.167803  -2.282535  -2.964715
H    -8.421800  -2.509969  -1.311874
H    -4.791677  -1.930109  -2.659625
N    -2.835306  1.709830  3.205136
C    -3.478863  2.821852  3.876404
H    -1.952776  1.350379  3.554277
H    -2.816829  3.697984  3.920194
H    -3.772884  2.549313  4.899193
H    -4.375509  3.081919  3.303586
