35
Energy: -21190.1487377 eV PBE+vdW (tier 2 basis)
C    0.305167  1.304356  1.300340
C    0.190176  0.196190  2.327632
O    1.046543  -0.004101  3.187233
H    1.270157  1.797831  1.439066
H    -0.499053  2.044666  1.419326
H    0.239130  0.916854  0.274251
N    -0.935945  -0.589271  2.270383
C    -2.087677  -0.437793  1.398979
C    -3.037581  0.757637  1.663581
O    -3.729015  1.157430  0.726966
H    -0.957085  -1.309111  2.986720
H    -1.731766  -0.234798  0.378814
C    -2.898436  -1.746496  1.319415
C    -3.610528  -2.161968  2.610017
C    -4.374914  -3.492931  2.504903
N    -3.549654  -4.663428  2.279938
C    -3.292555  -5.215458  1.031132
N    -2.371387  -6.268229  1.107436
N    -3.766100  -4.879907  -0.118430
H    -2.216905  -2.541392  0.983604
H    -3.642273  -1.608390  0.522618
H    -4.331399  -1.383283  2.907758
H    -2.894183  -2.251198  3.445632
H    -5.116607  -3.442052  1.694738
H    -4.948962  -3.645562  3.431896
H    -2.850249  -4.860204  2.988290
H    -2.544175  -6.930443  1.859689
H    -2.292720  -6.733008  0.207173
H    -4.320041  -4.022511  -0.075508
N    -3.115584  1.360042  2.888748
C    -2.509552  1.045395  4.177780
H    -3.776747  2.130862  2.871388
H    -2.638294  -0.009019  4.450459
H    -3.023665  1.643359  4.938638
H    -1.439920  1.288560  4.219116
