35
Energy: -21190.2661665 eV PBE+vdW (tier 2 basis)
C    -1.187880  1.338819  0.557236
C    -0.929094  0.059990  1.330923
O    -0.117960  -0.773058  0.929075
H    -2.168453  1.787298  0.761275
H    -1.095748  1.133236  -0.513769
H    -0.409269  2.064169  0.832410
N    -1.680075  -0.069423  2.473091
C    -1.413916  -0.985882  3.585300
C    0.026286  -0.724144  4.129360
O    0.732523  0.144954  3.615972
H    -2.200081  0.762664  2.723787
H    -2.062555  -0.616675  4.398438
C    -1.941769  -2.423457  3.317116
C    -1.382689  -3.300187  2.185915
C    -0.015053  -3.941029  2.421480
N    1.035247  -2.950360  2.516587
C    2.189067  -3.179791  3.212088
N    3.007360  -2.046937  3.351911
N    2.417658  -4.335873  3.755226
H    -3.014738  -2.279827  3.116885
H    -1.894507  -2.989222  4.256645
H    -1.374071  -2.741905  1.241114
H    -2.099479  -4.124852  2.046968
H    0.187173  -4.661250  1.607414
H    0.000525  -4.531922  3.349087
H    0.934904  -2.125237  1.925129
H    4.001569  -2.232906  3.294369
H    2.720582  -1.210464  2.848951
H    3.262566  -4.292917  4.330176
N    0.444858  -1.357470  5.261848
C    -0.127919  -2.470817  5.999211
H    1.430523  -1.170035  5.430560
H    0.027250  -3.437976  5.498273
H    -1.198443  -2.318495  6.184108
H    0.364693  -2.515290  6.977501
