35
Energy: -21189.9159324 eV PBE+vdW (tier 2 basis)
C    -0.347729  0.195561  -0.109722
C    -0.186118  0.211251  1.401924
O    0.922008  0.289895  1.928181
H    0.200838  -0.666508  -0.509208
H    0.121568  1.097997  -0.520759
H    -1.387950  0.144700  -0.454592
N    -1.361431  0.153958  2.102320
C    -1.587712  0.020945  3.547954
C    -2.058843  1.297776  4.284786
O    -2.867158  1.156819  5.205771
H    -2.204224  0.101120  1.542893
H    -2.486911  -0.605494  3.620119
C    -0.485035  -0.738922  4.333242
C    0.641280  0.077486  4.989596
C    0.334285  0.465504  6.445566
N    1.341651  1.337467  7.044767
C    2.375733  0.919900  7.867626
N    2.713477  -0.427970  7.732012
N    3.016417  1.639624  8.728364
H    -0.063049  -1.485755  3.650195
H    -1.010094  -1.303310  5.118721
H    0.874657  0.976159  4.407733
H    1.564715  -0.520309  4.956535
H    0.231518  -0.442942  7.059125
H    -0.632356  0.983962  6.499308
H    1.064655  2.298279  7.197491
H    3.555615  -0.633179  8.261363
H    2.759577  -0.776502  6.778790
H    2.579790  2.558481  8.843715
N    -1.599572  2.537545  3.952020
C    -0.628250  2.981478  2.962736
H    -2.049416  3.256067  4.512317
H    -0.204368  3.933739  3.302197
H    -1.084395  3.140985  1.973447
H    0.196890  2.269614  2.856830
