35
Energy: -21190.6032544 eV PBE+vdW (tier 2 basis)
C    1.495185  0.079561  1.763675
C    0.422429  -0.878971  2.265597
O    0.707087  -2.006452  2.663080
H    2.457319  -0.432121  1.849274
H    1.522655  1.006602  2.353637
H    1.328360  0.358879  0.713917
N    -0.877624  -0.445355  2.235538
C    -1.371639  0.890888  1.952373
C    -2.043795  1.480930  3.203762
O    -2.863710  0.832475  3.857176
H    -1.538294  -1.073606  2.691208
H    -0.509531  1.515600  1.703151
C    -2.369747  0.889292  0.764756
C    -1.691028  1.044491  -0.605250
C    -1.587379  2.508032  -1.080065
N    -1.051183  3.469613  -0.118288
C    0.237002  3.472822  0.373037
N    1.229061  3.152071  -0.529865
N    0.425294  3.823880  1.611571
H    -3.112813  1.690162  0.908222
H    -2.937657  -0.049163  0.809111
H    -2.254174  0.497611  -1.376732
H    -0.693844  0.577897  -0.577529
H    -2.591400  2.873936  -1.337441
H    -1.014367  2.562883  -2.019235
H    -1.704625  3.785477  0.591916
H    0.975878  2.787380  -1.439052
H    2.105121  2.814137  -0.155673
H    1.416703  3.950409  1.824963
N    -1.685543  2.762353  3.465676
C    -2.245919  3.494483  4.586340
H    -0.924323  3.193256  2.914594
H    -3.314409  3.267130  4.682741
H    -2.113927  4.568577  4.413624
H    -1.760187  3.226441  5.537199
