35
Energy: -21190.1237515 eV PBE+vdW (tier 2 basis)
C    0.013496  0.075516  0.460672
C    -0.278352  0.391819  1.913815
O    0.554008  0.900230  2.662399
H    1.063562  0.307396  0.266784
H    -0.617880  0.674207  -0.211568
H    -0.174891  -0.981310  0.226205
N    -1.538041  0.090755  2.375387
C    -2.674936  -0.387476  1.609447
C    -3.356082  0.603720  0.629701
O    -3.977987  0.127276  -0.320334
H    -1.681614  0.357704  3.344899
H    -2.329798  -1.182376  0.933177
C    -3.735783  -1.025836  2.526646
C    -4.401172  -0.078789  3.528298
C    -5.525655  -0.768448  4.313867
N    -6.189329  0.081875  5.301560
C    -6.886472  1.240378  4.948900
N    -7.552928  1.155676  3.728312
N    -6.961402  2.331620  5.630999
H    -3.261723  -1.868088  3.055204
H    -4.502627  -1.454732  1.865705
H    -4.833152  0.786143  3.003201
H    -3.669235  0.315853  4.253207
H    -5.134721  -1.643151  4.854412
H    -6.272659  -1.162240  3.609101
H    -5.656672  0.210320  6.156153
H    -8.172539  1.949909  3.600260
H    -8.006361  0.268334  3.531969
H    -6.322436  2.317931  6.430686
N    -3.268333  1.956179  0.797253
C    -2.718821  2.776349  1.872172
H    -3.771271  2.445653  0.063010
H    -3.077215  2.461753  2.859894
H    -3.068177  3.802571  1.714665
H    -1.621403  2.787310  1.880890
