35
Energy: -21189.96714 eV PBE+vdW (tier 2 basis)
C    -0.300045  -1.766005  0.429334
C    -0.006474  -0.751497  1.518635
O    1.162843  -0.509373  1.850228
H    0.529992  -2.478984  0.410714
H    -0.326908  -1.271403  -0.552308
H    -1.242638  -2.303887  0.580550
N    -1.042166  -0.123085  2.143824
C    -2.350710  0.212109  1.587279
C    -3.301890  -1.021719  1.628934
O    -3.578233  -1.487431  2.731149
H    -0.754619  0.474540  2.943304
H    -2.808244  0.839345  2.368157
C    -2.281044  1.086445  0.318147
C    -1.756915  2.524982  0.509472
C    -0.234296  2.777118  0.584456
N    0.430880  2.479945  1.857282
C    -0.126782  2.903276  3.051287
N    -0.441373  4.258814  3.088614
N    -0.354165  2.035445  3.985562
H    -3.305033  1.176354  -0.074972
H    -1.694211  0.592569  -0.470164
H    -2.236113  2.982165  1.389944
H    -2.115278  3.109733  -0.352709
H    -0.061211  3.831798  0.318503
H    0.289048  2.185870  -0.180529
H    0.785102  1.520557  1.937219
H    -0.739598  4.612165  3.990167
H    0.203880  4.874831  2.603574
H    -0.615957  2.469341  4.874207
N    -3.864757  -1.583024  0.507986
C    -3.704054  -1.352457  -0.919405
H    -4.489582  -2.338551  0.774482
H    -2.651446  -1.266634  -1.210259
H    -4.117210  -2.220057  -1.446041
H    -4.239995  -0.459003  -1.272280
