35
Energy: -21189.9987673 eV PBE+vdW (tier 2 basis)
C    -0.075809  -0.079723  0.092912
C    -0.072542  0.181795  1.589454
O    0.928314  0.559399  2.188764
H    0.581078  -0.934552  -0.113674
H    0.352248  0.791137  -0.417268
H    -1.069097  -0.289372  -0.323586
N    -1.273654  -0.019783  2.220036
C    -1.462271  0.059058  3.669285
C    -0.769856  1.296083  4.304835
O    -0.023004  1.181863  5.269630
H    -2.045697  -0.376648  1.670229
H    -2.545543  0.210739  3.811669
C    -1.027839  -1.238337  4.377065
C    -1.619441  -1.460612  5.774394
C    -3.133091  -1.735155  5.776762
N    -3.706035  -2.067429  7.071531
C    -3.437745  -3.233529  7.774278
N    -3.203860  -4.365029  6.987798
N    -3.527424  -3.207148  9.061233
H    0.067859  -1.232377  4.437617
H    -1.313335  -2.077476  3.721073
H    -1.395741  -0.598636  6.417563
H    -1.105468  -2.318826  6.233958
H    -3.376779  -2.536807  5.057685
H    -3.686080  -0.856567  5.412136
H    -3.812489  -1.293253  7.720502
H    -2.721937  -5.111684  7.473716
H    -2.845426  -4.217881  6.050292
H    -3.422724  -4.141453  9.463847
N    -1.115941  2.530945  3.825627
C    -1.934448  2.887988  2.682915
H    -0.579909  3.272192  4.266102
H    -2.272938  3.923635  2.807066
H    -2.830377  2.257495  2.624300
H    -1.393804  2.811664  1.726278
