35
Energy: -21190.2729722 eV PBE+vdW (tier 2 basis)
C    -0.000428  -0.052104  0.014725
C    0.075897  0.087832  1.527361
O    1.148231  0.238158  2.107132
H    1.022704  -0.042143  -0.369578
H    -0.551900  0.785774  -0.436386
H    -0.491808  -0.982438  -0.298295
N    -1.100853  0.038438  2.232568
C    -2.458126  -0.033413  1.731515
C    -3.283965  1.060578  2.434197
O    -3.035269  1.385471  3.593451
H    -1.020224  0.271122  3.222083
H    -2.441540  0.135260  0.647339
C    -3.125209  -1.401398  2.019855
C    -2.459549  -2.572033  1.300656
C    -3.073449  -3.925487  1.694216
N    -2.554676  -5.064689  0.958958
C    -2.956532  -5.338317  -0.344434
N    -2.189096  -6.347293  -0.934550
N    -3.904383  -4.788052  -1.023566
H    -4.189820  -1.346894  1.738180
H    -3.103998  -1.556412  3.110547
H    -1.384449  -2.588495  1.536734
H    -2.544248  -2.442941  0.209996
H    -4.166015  -3.905327  1.558239
H    -2.906743  -4.111574  2.765672
H    -1.588455  -5.305995  1.158399
H    -2.590445  -6.628531  -1.824496
H    -1.998105  -7.144492  -0.333250
H    -4.305999  -3.985619  -0.534105
N    -4.324619  1.602324  1.738824
C    -4.693830  1.364285  0.352231
H    -4.852957  2.289890  2.266747
H    -3.899716  1.662613  -0.348243
H    -5.579685  1.965776  0.124184
H    -4.952094  0.312167  0.163978
