35
Energy: -21190.3256032 eV PBE+vdW (tier 2 basis)
C    -2.641263  1.535264  0.276133
C    -1.505899  0.796512  0.952189
O    -0.349683  1.218039  0.974475
H    -3.198933  0.888087  -0.416030
H    -2.218063  2.386866  -0.262642
H    -3.360826  1.906840  1.020821
N    -1.818601  -0.396686  1.560708
C    -3.137518  -0.973957  1.748931
C    -4.024955  -0.370038  2.860024
O    -5.248795  -0.394298  2.714273
H    -1.020030  -0.836260  2.010055
H    -3.729779  -0.780495  0.842109
C    -3.051071  -2.498424  1.940108
C    -2.473340  -3.264079  0.742121
C    -3.177781  -2.981735  -0.594593
N    -4.623310  -3.117095  -0.527153
C    -5.473318  -2.058463  -0.770581
N    -6.822352  -2.423027  -0.658112
N    -5.012955  -0.894747  -1.090368
H    -4.070923  -2.850956  2.143916
H    -2.455552  -2.729016  2.839697
H    -2.524052  -4.340605  0.971617
H    -1.405293  -3.031990  0.608033
H    -2.771937  -3.651389  -1.368790
H    -2.980092  -1.956531  -0.931138
H    -5.020896  -4.041903  -0.632984
H    -7.449262  -1.625053  -0.668867
H    -7.023016  -3.027045  0.136047
H    -5.761564  -0.200256  -1.117934
N    -3.470230  0.179419  3.982038
C    -2.092418  0.187883  4.455778
H    -4.179192  0.539004  4.613595
H    -1.635071  -0.810099  4.408887
H    -2.102171  0.488018  5.509701
H    -1.457053  0.893785  3.904735
