35
Energy: -21190.2422668 eV PBE+vdW (tier 2 basis)
C    -0.235840  0.249759  -0.315610
C    -0.584143  1.041701  0.934175
O    -0.571226  2.271370  0.947211
H    -0.292568  -0.837615  -0.187298
H    0.775460  0.526668  -0.640614
H    -0.921750  0.550106  -1.117702
N    -0.940296  0.284023  2.015709
C    -1.245020  0.814349  3.344753
C    -1.909481  2.216213  3.328188
O    -1.449395  3.146087  3.984232
H    -0.734975  -0.713562  1.974018
H    -2.016748  0.140728  3.759515
C    -0.063482  0.770194  4.329192
C    1.236962  1.486770  3.926846
C    2.225197  0.683821  3.062236
N    2.544375  -0.639233  3.597152
C    1.895001  -1.788253  3.174397
N    1.851295  -2.796575  4.138321
N    1.326885  -2.002858  2.031198
H    0.145693  -0.286541  4.557303
H    -0.429861  1.218840  5.261732
H    1.759814  1.769622  4.854876
H    1.006881  2.431742  3.417039
H    3.158459  1.256942  2.959444
H    1.843626  0.552880  2.043706
H    2.772167  -0.629511  4.587519
H    1.655952  -3.701570  3.721228
H    2.634418  -2.829373  4.783495
H    1.454789  -1.197695  1.416356
N    -3.120541  2.332345  2.700235
C    -3.783396  1.398210  1.810647
H    -3.451587  3.292339  2.695803
H    -4.852511  1.640983  1.780079
H    -3.688517  0.370824  2.180999
H    -3.388026  1.433297  0.782815
