35
Energy: -21190.1438971 eV PBE+vdW (tier 2 basis)
C    -0.541729  1.913148  3.613818
C    -0.167868  0.739122  2.730738
O    0.605446  -0.144613  3.095357
H    0.038594  1.841954  4.536946
H    -1.613310  1.901753  3.859836
H    -0.331984  2.875034  3.125788
N    -0.743089  0.691639  1.483339
C    -1.754329  1.578864  0.936536
C    -3.188319  1.482515  1.517823
O    -3.909863  2.476275  1.425018
H    -0.476098  -0.130484  0.949101
H    -1.475109  2.615501  1.173032
C    -1.804361  1.478481  -0.600573
C    -2.276357  0.133670  -1.157217
C    -2.279332  0.106459  -2.691833
N    -2.693551  -1.171619  -3.269411
C    -1.971672  -2.340814  -3.039182
N    -0.584840  -2.173163  -3.104554
N    -2.612178  -3.427144  -2.772946
H    -0.797457  1.712327  -0.981838
H    -2.472023  2.278677  -0.950364
H    -1.630680  -0.689682  -0.811863
H    -3.293066  -0.088395  -0.796639
H    -1.279312  0.369388  -3.067513
H    -2.960180  0.875662  -3.084097
H    -3.683805  -1.375129  -3.152360
H    -0.065053  -3.043531  -3.115736
H    -0.254934  -1.518361  -3.808654
H    -1.990955  -4.240860  -2.774603
N    -3.645033  0.344310  2.119204
C    -3.067687  -0.988890  2.262809
H    -4.598418  0.465616  2.447813
H    -3.865631  -1.657714  2.603674
H    -2.255586  -1.023972  3.000301
H    -2.697376  -1.386911  1.310591
