35
Energy: -21190.7017539 eV PBE+vdW (tier 2 basis)
C    -0.332346  0.911520  -0.082994
C    -0.597216  0.295290  1.272559
O    0.267123  0.281972  2.162570
H    0.530348  0.407801  -0.536552
H    -0.060041  1.965348  0.054696
H    -1.186679  0.846520  -0.766764
N    -1.829314  -0.237116  1.457187
C    -2.216872  -0.891376  2.691849
C    -3.440825  -1.757417  2.364370
O    -4.180581  -1.480817  1.418306
H    -2.542488  -0.233363  0.729935
H    -1.378469  -1.530217  3.009431
C    -2.525280  0.143891  3.807743
C    -2.428457  -0.366740  5.253433
C    -1.163556  -1.169156  5.583505
N    0.037694  -0.496804  5.137100
C    1.283968  -1.097970  5.320817
N    2.259063  -0.562816  4.490858
N    1.602757  -2.005441  6.184031
H    -3.522579  0.570806  3.627326
H    -1.814255  0.970035  3.670669
H    -3.300176  -0.990734  5.502380
H    -2.479430  0.509320  5.916359
H    -1.234205  -2.195952  5.155504
H    -1.122829  -1.312239  6.673973
H    -0.042058  -0.039816  4.226487
H    3.119117  -1.098414  4.510094
H    1.957475  -0.269914  3.564467
H    0.813506  -2.241252  6.788592
N    -3.647360  -2.800190  3.208729
C    -4.787487  -3.692682  3.101971
H    -2.949348  -2.980905  3.922111
H    -5.424432  -3.323359  2.292103
H    -5.364231  -3.706435  4.036562
H    -4.468730  -4.716908  2.864667
