35
Energy: -21190.4663062 eV PBE+vdW (tier 2 basis)
C    0.750743  0.523785  2.799723
C    0.439108  -0.936743  2.543149
O    1.299751  -1.818688  2.614875
H    0.183022  0.894126  3.664418
H    1.820299  0.612471  3.007104
H    0.494704  1.151183  1.934133
N    -0.855669  -1.252512  2.232108
C    -1.894474  -0.344688  1.773236
C    -2.546484  0.433206  2.938464
O    -3.007859  -0.125438  3.928130
H    -1.013282  -2.250027  2.128212
H    -1.439374  0.376891  1.074737
C    -3.006955  -1.114090  1.040706
C    -2.595155  -2.022156  -0.129032
C    -1.829755  -1.369017  -1.297024
N    -0.398612  -1.251516  -1.102614
C    0.297952  -0.105495  -0.786318
N    1.623388  -0.362722  -0.447919
N    -0.132374  1.119228  -0.794688
H    -3.727938  -0.365501  0.677150
H    -3.546869  -1.716661  1.787620
H    -3.521522  -2.457495  -0.535153
H    -2.006307  -2.881734  0.229653
H    -2.239004  -0.370163  -1.508354
H    -2.005008  -1.960589  -2.208508
H    0.147972  -2.101702  -1.169443
H    2.110352  0.490555  -0.193141
H    1.775627  -1.110925  0.227393
H    -1.053854  1.186916  -1.234569
N    -2.589658  1.782251  2.732261
C    -3.175399  2.704125  3.685947
H    -2.099242  2.153536  1.925971
H    -3.658459  2.107019  4.466761
H    -3.925910  3.345590  3.204732
H    -2.410157  3.341687  4.151877
