35
Energy: -21190.5426895 eV PBE+vdW (tier 2 basis)
C    -1.496693  0.989301  -0.094874
C    -0.884588  0.703854  1.262098
O    -0.040533  1.445107  1.772992
H    -2.117812  1.891912  -0.022951
H    -2.108425  0.163048  -0.477356
H    -0.690702  1.201693  -0.806772
N    -1.361582  -0.414884  1.885012
C    -0.781583  -0.873230  3.135933
C    0.427372  -1.785610  2.844831
O    0.310765  -2.822045  2.173837
H    -1.901690  -1.110473  1.358163
H    -0.438035  0.036023  3.641882
C    -1.811739  -1.547874  4.070034
C    -2.338641  -2.962870  3.766842
C    -3.234662  -3.145936  2.537947
N    -2.477485  -3.002535  1.292839
C    -2.987036  -3.338123  0.039526
N    -4.377175  -3.340018  -0.042957
N    -2.293853  -3.629569  -1.007869
H    -2.660475  -0.849531  4.148382
H    -1.352063  -1.580109  5.070227
H    -2.935616  -3.270001  4.638684
H    -1.501731  -3.674125  3.707252
H    -4.047057  -2.397914  2.574383
H    -3.713850  -4.138395  2.593906
H    -1.475482  -3.199914  1.404339
H    -4.689918  -3.385582  -1.007545
H    -4.870967  -2.647247  0.510020
H    -1.298739  -3.705440  -0.780918
N    1.626865  -1.416813  3.357601
C    1.973290  -0.167103  4.027430
H    2.378830  -2.058789  3.124003
H    1.601441  -0.137562  5.062312
H    1.584504  0.695852  3.470339
H    3.065213  -0.091777  4.062690
