35
Energy: -21191.0142446 eV PBE+vdW (tier 2 basis)
C    0.106077  0.940375  0.515413
C    -0.885777  -0.018355  1.138739
O    -1.963537  0.380864  1.608183
H    1.017312  0.451418  0.151201
H    0.377204  1.700635  1.258423
H    -0.380716  1.459517  -0.319708
N    -0.526860  -1.326034  1.142197
C    -1.357717  -2.348020  1.752935
C    -0.424241  -3.361452  2.430233
O    0.638537  -3.688535  1.888961
H    0.389250  -1.631621  0.822372
H    -1.953966  -1.839505  2.510808
C    -2.291101  -3.012345  0.710050
C    -3.434799  -3.849378  1.298408
C    -4.687625  -3.050488  1.722894
N    -4.477050  -1.861788  2.538883
C    -3.833613  -1.883758  3.756204
N    -3.363650  -0.646548  4.154114
N    -3.642357  -2.926840  4.515546
H    -1.668535  -3.635881  0.051492
H    -2.701820  -2.205470  0.083118
H    -3.061461  -4.452279  2.138269
H    -3.772934  -4.576145  0.544373
H    -5.389134  -3.729153  2.235067
H    -5.213389  -2.701990  0.823362
H    -4.432703  -0.978642  2.042062
H    -2.841997  -0.687544  5.022613
H    -2.937357  -0.069123  3.424773
H    -4.176158  -3.728682  4.171268
N    -0.872594  -3.837464  3.614391
C    -0.143866  -4.835378  4.373667
H    -1.761507  -3.477875  4.001064
H    -0.795001  -5.685385  4.618640
H    0.244991  -4.414371  5.312022
H    0.698091  -5.184761  3.766962
