35
Energy: -21190.3882964 eV PBE+vdW (tier 2 basis)
C    -0.178319  1.234213  0.652724
C    -0.108552  0.227276  1.787494
O    0.884236  0.122136  2.503589
H    0.829554  1.620771  0.480587
H    -0.833564  2.073380  0.926692
H    -0.563828  0.795268  -0.278085
N    -1.202142  -0.583110  1.974322
C    -2.510817  -0.440116  1.376102
C    -3.204358  0.881270  1.795400
O    -2.916507  1.481682  2.830362
H    -1.156720  -1.202891  2.788320
H    -2.399061  -0.418528  0.278042
C    -3.385217  -1.677780  1.717563
C    -4.214831  -1.684385  3.017301
C    -3.518010  -1.309779  4.334258
N    -2.202809  -1.928383  4.495135
C    -1.224869  -1.361345  5.333281
N    -1.178133  0.024233  5.321643
N    -0.483067  -2.173763  6.004390
H    -2.706515  -2.542533  1.702849
H    -4.089204  -1.837368  0.887876
H    -4.645564  -2.694982  3.102131
H    -5.076757  -1.006868  2.910113
H    -4.191039  -1.571749  5.171184
H    -3.389068  -0.225242  4.374426
H    -2.224176  -2.929998  4.680281
H    -0.295691  0.405321  5.642702
H    -1.522911  0.500871  4.487790
H    0.278776  -1.680294  6.476472
N    -4.167704  1.303104  0.931358
C    -4.979536  2.484423  1.160827
H    -4.316116  0.767848  0.083769
H    -4.839176  3.224008  0.360723
H    -4.659864  2.924284  2.111034
H    -6.045901  2.227723  1.225600
