35
Energy: -21190.3827793 eV PBE+vdW (tier 2 basis)
C    0.131741  0.817166  0.129327
C    -0.100721  0.739088  1.628582
O    0.468389  1.480967  2.419400
H    1.161385  0.499187  -0.080718
H    0.040972  1.862698  -0.186440
H    -0.557144  0.201076  -0.462121
N    -1.006436  -0.222194  2.025173
C    -1.192565  -0.597546  3.435678
C    -2.022462  -1.889416  3.498061
O    -1.654918  -2.885501  4.125428
H    -1.262612  -0.916216  1.331342
H    -0.214045  -0.827916  3.877780
C    -1.857955  0.550016  4.233351
C    -2.226609  0.256758  5.694434
C    -1.055071  0.023428  6.662240
N    -0.464437  -1.293721  6.541151
C    0.861487  -1.528855  6.207332
N    1.054944  -2.817936  5.713002
N    1.872529  -0.737285  6.345781
H    -2.767068  0.858107  3.691020
H    -1.169140  1.403605  4.187735
H    -2.922278  -0.598127  5.759354
H    -2.795005  1.123634  6.065140
H    -1.410064  0.193085  7.693477
H    -0.269074  0.770771  6.475802
H    -1.102965  -2.047939  6.310637
H    2.005861  -2.948039  5.384327
H    0.339994  -3.137284  5.059388
H    1.617370  0.118554  6.843462
N    -3.201992  -1.846236  2.816519
C    -4.151302  -2.944773  2.808242
H    -3.473864  -0.963636  2.396774
H    -4.505266  -3.140773  1.788251
H    -5.017875  -2.734352  3.451819
H    -3.639534  -3.832968  3.191958
