35
Energy: -21190.4521863 eV PBE+vdW (tier 2 basis)
C    -0.055412  0.785191  -0.143312
C    0.168631  0.259023  1.261200
O    1.288405  0.127683  1.748388
H    0.912656  1.086701  -0.550919
H    -0.742991  1.641893  -0.157251
H    -0.486945  0.007957  -0.790316
N    -0.956001  -0.060218  1.991074
C    -2.348523  -0.046890  1.559201
C    -3.055172  1.322502  1.697872
O    -4.159900  1.501450  1.188829
H    -0.746167  -0.476501  2.895482
H    -2.395864  -0.277580  0.483892
C    -3.154092  -1.114636  2.313461
C    -2.785159  -2.548201  1.927111
C    -3.570594  -3.603780  2.715213
N    -5.013240  -3.514625  2.522297
C    -5.840599  -3.023216  3.515849
N    -7.199024  -3.151015  3.182105
N    -5.351975  -2.547598  4.609736
H    -4.215321  -0.934442  2.100930
H    -3.032077  -0.967063  3.399317
H    -1.711169  -2.733227  2.091855
H    -2.961738  -2.688115  0.847353
H    -3.377234  -3.493877  3.791465
H    -3.237519  -4.608210  2.416138
H    -5.434651  -4.202709  1.910911
H    -7.815930  -2.639805  3.804372
H    -7.414606  -2.954482  2.207276
H    -6.084962  -2.150640  5.200686
N    -2.378177  2.260810  2.410423
C    -2.898838  3.590473  2.654742
H    -1.462793  2.000566  2.762028
H    -2.239157  4.360626  2.231052
H    -3.016996  3.779202  3.730880
H    -3.879901  3.655501  2.171736
