35
Energy: -21190.4209977 eV PBE+vdW (tier 2 basis)
C    -0.160685  -0.339257  -0.290530
C    -0.009462  -0.180553  1.207136
O    1.057514  -0.369582  1.786619
H    0.834549  -0.267429  -0.737959
H    -0.825478  0.407915  -0.741398
H    -0.556361  -1.341457  -0.513306
N    -1.128250  0.201653  1.922125
C    -2.521491  0.139130  1.493813
C    -3.160954  1.508367  1.170663
O    -4.329464  1.571292  0.794091
H    -0.956313  0.209442  2.926059
H    -2.562699  -0.414479  0.545988
C    -3.383538  -0.603260  2.534254
C    -2.910902  -2.027237  2.846113
C    -2.953678  -2.980831  1.644553
N    -2.373660  -4.291243  1.922142
C    -1.137160  -4.712826  1.446329
N    -0.240225  -3.673952  1.181354
N    -0.772840  -5.930173  1.223567
H    -4.415374  -0.601370  2.157215
H    -3.399040  -0.010319  3.463543
H    -3.533536  -2.440991  3.653358
H    -1.884358  -2.011856  3.245727
H    -2.413662  -2.549318  0.790581
H    -3.996426  -3.115335  1.317834
H    -3.027383  -5.047405  2.080571
H    0.666704  -4.054352  0.925229
H    -0.150873  -2.966452  1.907197
H    -1.562169  -6.577745  1.302456
N    -2.343222  2.581800  1.325077
C    -2.767525  3.939429  1.047314
H    -1.390572  2.392623  1.619308
H    -3.819245  3.902358  0.743186
H    -2.176066  4.382944  0.234181
H    -2.674299  4.573850  1.939407
