35
Energy: -21190.4320953 eV PBE+vdW (tier 2 basis)
C    0.055027  0.094910  -0.057945
C    0.058081  0.000475  1.456985
O    1.093664  -0.175751  2.098460
H    0.737343  0.897602  -0.363504
H    -0.936842  0.284882  -0.485696
H    0.449732  -0.842909  -0.468630
N    -1.166136  0.146514  2.049292
C    -1.377379  -0.086904  3.464734
C    -2.633487  -0.957586  3.600082
O    -3.518087  -0.931800  2.740695
H    -2.015353  0.101106  1.489127
H    -0.482657  -0.606294  3.839131
C    -1.569279  1.225319  4.260295
C    -0.294830  2.060779  4.359660
C    -0.524198  3.369298  5.125687
N    0.690027  4.132083  5.372027
C    1.513911  3.803600  6.433044
N    2.680905  4.576458  6.498816
N    1.144405  2.923239  7.302095
H    -1.922956  0.984546  5.275451
H    -2.379928  1.796023  3.778643
H    0.090338  2.280927  3.352131
H    0.484184  1.482576  4.876807
H    -0.958543  3.153868  6.110669
H    -1.229442  4.016349  4.581221
H    1.145936  4.516131  4.551948
H    3.460206  4.114277  6.952825
H    2.961553  5.061575  5.651860
H    1.802319  2.884580  8.083572
N    -2.745380  -1.718225  4.723525
C    -1.752963  -1.915133  5.770397
H    -3.616359  -2.235980  4.780694
H    -2.130757  -2.674979  6.462120
H    -1.563933  -0.998749  6.347776
H    -0.797000  -2.275049  5.365265
