35
Energy: -21190.1091712 eV PBE+vdW (tier 2 basis)
C    -1.880698  -0.502185  -0.190782
C    -0.966947  -0.175627  0.981091
O    0.242113  -0.018939  0.822327
H    -1.732914  0.254427  -0.970688
H    -2.946553  -0.551081  0.064719
H    -1.573760  -1.468314  -0.611102
N    -1.609188  -0.075240  2.187526
C    -1.067630  0.128879  3.539603
C    -1.367707  1.542295  4.101408
O    -2.011509  1.634741  5.151129
H    -2.614735  -0.196293  2.160014
H    -1.696160  -0.493793  4.192040
C    0.379114  -0.361566  3.751804
C    0.795158  -0.392808  5.232713
C    1.405549  0.923812  5.740204
N    1.759414  0.907267  7.152224
C    2.910499  0.276981  7.586004
N    2.992136  0.230051  8.989174
N    3.757582  -0.212131  6.745010
H    1.096488  0.225714  3.166859
H    0.428219  -1.377814  3.336634
H    1.551174  -1.177073  5.371095
H    -0.067399  -0.661583  5.864086
H    0.717069  1.765190  5.589943
H    2.326542  1.133963  5.180603
H    0.977607  0.868638  7.798172
H    3.900949  -0.064665  9.330153
H    2.673652  1.073821  9.460026
H    4.604944  -0.532361  7.219105
N    -0.918979  2.656613  3.460702
C    -0.148444  2.804958  2.238092
H    -1.212896  3.507229  3.933206
H    0.323143  1.862237  1.945718
H    0.643746  3.549698  2.391220
H    -0.781184  3.136603  1.400109
