35
Energy: -21190.0873451 eV PBE+vdW (tier 2 basis)
C    0.042408  -0.075169  0.010071
C    0.050501  -0.134880  1.522807
O    1.091374  -0.295562  2.155942
H    1.030560  -0.390743  -0.335448
H    -0.131170  0.954861  -0.333280
H    -0.727630  -0.728043  -0.415364
N    -1.129340  0.046212  2.221891
C    -2.529211  0.123819  1.823733
C    -3.093109  -1.241480  1.362946
O    -2.433733  -2.028173  0.690246
H    -0.964809  -0.047993  3.219522
H    -3.052842  0.425835  2.742634
C    -2.856813  1.193683  0.759207
C    -2.416890  2.601996  1.155561
C    -2.679391  3.626244  0.040256
N    -2.401880  5.004776  0.400629
C    -3.283909  5.747126  1.179952
N    -2.737689  6.971633  1.576007
N    -4.478900  5.438988  1.552957
H    -3.946454  1.178417  0.596073
H    -2.411884  0.902370  -0.202320
H    -1.344805  2.604400  1.403317
H    -2.943801  2.916447  2.070249
H    -3.727212  3.570820  -0.293878
H    -2.069961  3.379479  -0.842406
H    -1.422192  5.223776  0.555397
H    -3.443460  7.552902  2.018848
H    -2.234747  7.470150  0.846611
H    -4.715392  4.474260  1.311972
N    -4.389244  -1.513067  1.707769
C    -5.286525  -0.738648  2.550894
H    -4.717020  -2.407343  1.356219
H    -6.250981  -1.255417  2.592119
H    -5.471863  0.268761  2.150838
H    -4.916311  -0.644685  3.582865
