35
Energy: -21190.1761657 eV PBE+vdW (tier 2 basis)
C    -0.132714  -1.786644  -0.946212
C    0.253328  -1.327127  0.444244
O    1.404925  -1.420437  0.863992
H    0.787224  -1.891741  -1.527418
H    -0.824132  -1.108280  -1.458219
H    -0.624950  -2.768276  -0.894504
N    -0.729442  -0.826583  1.271694
C    -2.142384  -0.532882  1.020189
C    -2.892829  -1.738096  0.400139
O    -3.449190  -1.666532  -0.693956
H    -0.353888  -0.535294  2.169643
H    -2.579444  -0.384703  2.022294
C    -2.376554  0.759622  0.224798
C    -3.792159  1.319538  0.377883
C    -4.013456  2.630960  -0.395368
N    -3.169406  3.749307  -0.005685
C    -3.358943  4.446192  1.179979
N    -2.312618  5.339197  1.445229
N    -4.336738  4.357707  2.015365
H    -2.162978  0.576247  -0.838521
H    -1.641449  1.492071  0.590358
H    -4.006263  1.484806  1.446326
H    -4.522336  0.584434  0.010403
H    -5.062956  2.946141  -0.297342
H    -3.847317  2.456528  -1.468678
H    -2.207115  3.709477  -0.324166
H    -2.549057  5.935240  2.233633
H    -2.006015  5.882228  0.641895
H    -4.971429  3.592842  1.777701
N    -2.919723  -2.889346  1.133915
C    -2.326197  -3.163891  2.432705
H    -3.404349  -3.646945  0.662965
H    -2.805653  -4.056070  2.850417
H    -2.503199  -2.338520  3.134992
H    -1.242866  -3.340837  2.373378
