35
Energy: -21189.9282474 eV PBE+vdW (tier 2 basis)
C    0.151827  0.019718  0.176091
C    0.110092  -0.122696  1.681109
O    1.133160  -0.264080  2.345589
H    1.195485  -0.063391  -0.137211
H    -0.232471  0.998656  -0.142057
H    -0.437870  -0.767205  -0.308116
N    -1.103569  -0.035578  2.344680
C    -2.489022  -0.104748  1.898982
C    -2.866082  -1.515727  1.382023
O    -2.041698  -2.277362  0.889684
H    -0.964778  -0.219178  3.334309
H    -3.061597  0.059731  2.822152
C    -2.920509  1.026515  0.910667
C    -3.202982  0.629613  -0.542068
C    -3.367044  1.867572  -1.437825
N    -3.624545  1.586704  -2.837520
C    -2.612303  1.194307  -3.709807
N    -3.116560  0.820819  -4.961224
N    -1.343343  1.142090  -3.499023
H    -2.129188  1.788916  0.942696
H    -3.814881  1.518536  1.322057
H    -4.120926  0.023774  -0.604370
H    -2.399137  -0.001677  -0.941494
H    -2.462481  2.493315  -1.380772
H    -4.190839  2.495979  -1.064713
H    -4.531699  1.179267  -3.042998
H    -2.355957  0.656884  -5.614924
H    -3.814150  1.454953  -5.342504
H    -1.106777  1.296737  -2.516899
N    -4.181050  -1.881003  1.509315
C    -5.301541  -1.097221  1.997872
H    -4.379283  -2.789206  1.100087
H    -5.057395  -0.589184  2.940133
H    -6.139291  -1.772889  2.201366
H    -5.644684  -0.339565  1.274688
