35
Energy: -21190.6146149 eV PBE+vdW (tier 2 basis)
C    -0.081427  1.335303  -0.178269
C    -0.006997  1.463055  1.328358
O    1.045075  1.762307  1.909935
H    0.886669  1.617301  -0.599611
H    -0.867028  1.974849  -0.603673
H    -0.309546  0.300190  -0.470581
N    -1.147856  1.245329  2.044757
C    -2.469501  0.856027  1.588586
C    -3.360625  2.026338  1.101173
O    -4.446775  1.800021  0.572840
H    -1.017678  1.246992  3.073227
H    -2.390314  0.185368  0.719656
C    -3.216348  0.078897  2.694919
C    -3.480282  0.823631  4.025316
C    -2.458128  0.594368  5.150908
N    -1.169611  1.232516  4.896479
C    0.037324  0.704906  5.430294
N    1.127384  1.438661  4.995327
N    0.175680  -0.310608  6.206302
H    -2.663585  -0.852177  2.893239
H    -4.178757  -0.210080  2.254514
H    -4.450387  0.484149  4.416074
H    -3.607297  1.904155  3.845541
H    -2.273866  -0.485545  5.244073
H    -2.891962  0.926627  6.110206
H    -1.190505  2.248969  4.965670
H    2.000353  1.036333  5.322656
H    1.143898  1.669076  3.993745
H    -0.722530  -0.644904  6.562146
N    -2.859938  3.271632  1.320054
C    -3.551957  4.479562  0.917161
H    -1.938987  3.327336  1.742359
H    -3.737372  5.136204  1.778309
H    -4.512004  4.181342  0.481944
H    -2.976669  5.037750  0.165220
