35
Energy: -21190.315436 eV PBE+vdW (tier 2 basis)
C    -2.158694  -2.537159  1.425107
C    -1.893546  -1.532224  2.529446
O    -1.295354  -0.480106  2.338897
H    -2.488199  -2.000219  0.528789
H    -2.902917  -3.299192  1.688140
H    -1.213759  -3.039551  1.177774
N    -2.392299  -1.870022  3.771339
C    -2.002828  -1.141455  4.984224
C    -2.325108  0.366254  4.846017
O    -1.581291  1.242969  5.284632
H    -2.742626  -2.813696  3.894203
H    -2.675693  -1.511573  5.776373
C    -0.553681  -1.438669  5.412844
C    -0.222493  -1.133411  6.889821
C    0.666518  0.097702  7.152806
N    1.960203  0.059366  6.496739
C    2.297998  0.619611  5.267873
N    1.402503  1.541862  4.759399
N    3.404323  0.394503  4.630316
H    0.140683  -0.923469  4.736698
H    -0.405121  -2.512741  5.231146
H    0.282854  -2.011070  7.322770
H    -1.150633  -1.010568  7.473230
H    0.829406  0.176950  8.240189
H    0.145245  1.012208  6.854148
H    2.590633  -0.678078  6.788045
H    1.639795  1.798444  3.807912
H    0.403663  1.410727  4.916824
H    4.016598  -0.228237  5.164421
N    -3.542629  0.637672  4.308117
C    -3.961240  1.997153  4.017395
H    -4.010635  -0.125093  3.831381
H    -3.586135  2.657853  4.805647
H    -5.055898  2.046635  3.994559
H    -3.562110  2.350239  3.054118
