35
Energy: -21190.1042904 eV PBE+vdW (tier 2 basis)
C    -1.395842  -2.069010  2.641386
C    -0.201087  -1.152716  2.467897
O    0.913500  -1.567789  2.154788
H    -1.852834  -1.960406  3.634709
H    -1.056041  -3.099204  2.510274
H    -2.177593  -1.849910  1.899854
N    -0.414261  0.190136  2.666231
C    -1.671194  0.865022  2.939874
C    -2.699347  0.964417  1.784263
O    -3.881437  1.135789  2.081106
H    0.419680  0.752532  2.523804
H    -2.221170  0.288311  3.697182
C    -1.433622  2.261172  3.546114
C    -0.813457  3.293245  2.599291
C    -0.629041  4.677839  3.242522
N    -1.872392  5.314646  3.672502
C    -2.434994  5.151808  4.939333
N    -1.500277  5.048834  5.971870
N    -3.690730  5.099811  5.223788
H    -0.805752  2.142976  4.442325
H    -2.409259  2.623342  3.894827
H    -1.443906  3.400427  1.700491
H    0.178343  2.967046  2.240972
H    -0.122909  5.343978  2.527150
H    0.028207  4.591778  4.116534
H    -2.581390  5.373205  2.947137
H    -1.972594  5.064141  6.871394
H    -0.735140  5.716982  5.928824
H    -4.265173  5.019540  4.379886
N    -2.322981  0.863302  0.472984
C    -1.016773  0.777257  -0.171024
H    -3.129684  0.933383  -0.140163
H    -0.545936  -0.207580  -0.055605
H    -0.321427  1.541222  0.197247
H    -1.164217  0.959827  -1.241431
