35
Energy: -21190.1471926 eV PBE+vdW (tier 2 basis)
C    0.390507  1.146377  0.313599
C    -0.074986  0.153512  1.365444
O    0.489747  -0.924806  1.531158
H    0.648786  2.121653  0.746899
H    -0.377405  1.316754  -0.452413
H    1.278934  0.725606  -0.164087
N    -1.153049  0.500152  2.146313
C    -2.050251  1.649103  2.035736
C    -2.279782  2.200724  3.464417
O    -3.296479  1.932841  4.100306
H    -1.433731  -0.236266  2.791384
H    -1.535280  2.409981  1.433031
C    -3.395844  1.298214  1.386540
C    -3.286974  0.771174  -0.041784
C    -4.629500  0.277932  -0.604593
N    -5.217563  -0.831903  0.141273
C    -5.161210  -2.164415  -0.248289
N    -4.078330  -2.476185  -1.072606
N    -6.000636  -3.093198  0.063690
H    -4.032496  2.196756  1.411528
H    -3.898294  0.556075  2.023020
H    -2.560429  -0.056109  -0.077956
H    -2.901412  1.553853  -0.716680
H    -4.499738  -0.025328  -1.653190
H    -5.352348  1.108081  -0.598971
H    -6.022050  -0.611911  0.713877
H    -3.181108  -2.097307  -0.781538
H    -4.036454  -3.479156  -1.229108
H    -6.825229  -2.710460  0.534663
N    -1.289642  2.975372  3.999847
C    0.014860  3.288755  3.442303
H    -1.468580  3.234884  4.965008
H    0.660489  2.402021  3.358833
H    0.507420  4.010933  4.101728
H    -0.070040  3.758558  2.452365
