35
Energy: -21189.9217451 eV PBE+vdW (tier 2 basis)
C    -0.035304  0.392300  -0.123390
C    0.110116  0.115516  1.356336
O    1.216016  0.000202  1.889655
H    0.910199  0.120341  -0.601063
H    -0.199833  1.468093  -0.301656
H    -0.851355  -0.178884  -0.580990
N    -1.021898  0.002167  2.127894
C    -2.422204  0.310159  1.832824
C    -2.999577  -0.717293  0.811518
O    -3.025114  -1.897719  1.153186
H    -0.806333  -0.278013  3.078881
H    -2.957526  -0.001925  2.742524
C    -2.705449  1.810304  1.655858
C    -2.465560  2.673448  2.906852
C    -0.999958  2.979695  3.290940
N    -0.109771  3.339673  2.187980
C    -0.428058  4.258997  1.205474
N    -1.091069  5.392518  1.680792
N    -0.134561  3.995530  -0.027033
H    -3.766915  1.919082  1.387451
H    -2.131421  2.228951  0.820059
H    -2.956051  2.217994  3.783739
H    -2.976055  3.631969  2.737309
H    -0.529000  2.115932  3.773826
H    -1.006658  3.777393  4.052130
H    0.438522  2.572187  1.812728
H    -1.179685  6.142048  1.004530
H    -0.798358  5.721746  2.596601
H    -0.267629  4.813515  -0.627638
N    -3.505416  -0.356425  -0.410146
C    -3.538277  0.897612  -1.151559
H    -3.878692  -1.171812  -0.887895
H    -3.748587  0.657384  -2.199656
H    -2.578519  1.424298  -1.122412
H    -4.325195  1.579378  -0.797805
