35
Energy: -21190.5772389 eV PBE+vdW (tier 2 basis)
C    0.865728  -0.587986  0.020409
C    0.297034  -0.422803  1.414949
O    0.592735  0.529148  2.140796
H    1.953064  -0.456262  0.063179
H    0.461784  0.207136  -0.619993
H    0.628742  -1.560700  -0.427255
N    -0.587565  -1.397223  1.788358
C    -1.203439  -1.413561  3.104150
C    -0.516552  -2.488630  3.965494
O    -0.673088  -3.705156  3.771535
H    -0.675934  -2.215535  1.192465
H    -0.956117  -0.430412  3.517950
C    -2.760002  -1.532228  3.101491
C    -3.478950  -2.119260  1.874394
C    -3.485240  -3.647384  1.716412
N    -2.186251  -4.239304  1.445389
C    -1.636614  -4.178274  0.190159
N    -0.245899  -4.430264  0.198411
N    -2.333800  -3.841307  -0.845539
H    -3.137470  -0.508290  3.230445
H    -3.063283  -2.083578  4.005416
H    -3.090494  -1.665767  0.950672
H    -4.530763  -1.798722  1.940421
H    -4.153073  -3.914411  0.887861
H    -3.875305  -4.118663  2.631338
H    -1.545105  -4.230538  2.248403
H    0.110221  -4.747194  -0.697829
H    0.073430  -5.030172  0.956767
H    -1.772619  -3.889226  -1.698857
N    0.303381  -2.057555  4.955772
C    0.653941  -0.691857  5.334176
H    0.719580  -2.817874  5.486143
H    1.573848  -0.729203  5.927966
H    -0.128211  -0.220506  5.948255
H    0.844217  -0.071275  4.449534
