35
Energy: -21190.1905109 eV PBE+vdW (tier 2 basis)
C    -0.391679  0.236643  -0.091504
C    -0.273743  -0.113965  1.378698
O    0.820806  -0.313228  1.902008
H    0.406612  -0.266966  -0.645276
H    -0.243426  1.321254  -0.190923
H    -1.363700  -0.023301  -0.529736
N    -1.478011  -0.203880  2.037716
C    -1.659212  -0.125148  3.489284
C    -1.053420  1.219399  4.004651
O    -0.505655  1.990097  3.217908
H    -2.267454  0.129696  1.497286
H    -2.747084  0.008025  3.618576
C    -1.365845  -1.470321  4.209171
C    0.033333  -2.106291  4.228366
C    1.062258  -1.500695  5.186337
N    1.482458  -0.166836  4.795155
C    1.815651  0.851806  5.653504
N    1.901615  0.477581  7.007428
N    1.983679  2.099952  5.355551
H    -2.037570  -2.189960  3.716729
H    -1.730235  -1.393093  5.242420
H    0.452227  -2.142825  3.215844
H    -0.105821  -3.152564  4.544207
H    1.923649  -2.195319  5.237703
H    0.636871  -1.451870  6.200544
H    1.437669  0.042492  3.797215
H    2.285121  1.255122  7.538742
H    2.418288  -0.380978  7.182763
H    1.755160  2.274586  4.372531
N    -1.234355  1.584906  5.305441
C    -1.810094  0.861356  6.423389
H    -0.656445  2.391125  5.539244
H    -2.080385  1.589651  7.197194
H    -1.111750  0.138070  6.872023
H    -2.732276  0.344270  6.130665
