35
Energy: -21190.3195299 eV PBE+vdW (tier 2 basis)
C    0.639198  1.929264  0.780148
C    0.303577  0.695862  1.605214
O    1.179409  0.009849  2.125064
H    0.305797  1.826009  -0.261575
H    1.724687  2.056082  0.794851
H    0.169294  2.834608  1.190846
N    -1.022528  0.381505  1.753619
C    -2.181550  1.091470  1.255821
C    -3.349719  0.766115  2.210997
O    -3.340811  -0.235977  2.921653
H    -1.233101  -0.400850  2.373849
H    -1.994043  2.177010  1.294410
C    -2.553842  0.721863  -0.204403
C    -2.978831  -0.731419  -0.407255
C    -3.083530  -1.108067  -1.891962
N    -1.798008  -1.093036  -2.575203
C    -0.953863  -2.204329  -2.560846
N    0.178898  -2.008827  -3.359031
N    -1.111970  -3.320240  -1.941986
H    -1.675938  0.927561  -0.834207
H    -3.351768  1.400269  -0.551410
H    -3.950537  -0.921525  0.073737
H    -2.254190  -1.399112  0.081241
H    -3.738103  -0.393823  -2.412746
H    -3.566552  -2.096314  -1.991300
H    -1.761314  -0.562694  -3.438423
H    0.835636  -2.774762  -3.236961
H    0.627132  -1.104402  -3.236931
H    -2.030946  -3.388902  -1.499359
N    -4.389318  1.644572  2.161770
C    -5.605568  1.470862  2.935392
H    -4.297633  2.465878  1.576063
H    -5.748640  2.299279  3.642686
H    -5.506683  0.537617  3.499095
H    -6.485899  1.403581  2.281440
