35
Energy: -21190.0892981 eV PBE+vdW (tier 2 basis)
C    -0.150902  1.783458  0.306738
C    -0.076384  0.609705  1.267164
O    0.989071  0.165569  1.684597
H    0.285010  2.664705  0.793965
H    -1.169260  2.027590  -0.021470
H    0.465380  1.560057  -0.572724
N    -1.281792  0.069672  1.630926
C    -1.391804  -1.002894  2.606150
C    -0.983753  -2.433357  2.175119
O    -0.729311  -3.237343  3.069466
H    -2.130152  0.477498  1.258030
H    -0.666348  -0.789304  3.403933
C    -2.799401  -1.037067  3.225238
C    -3.940938  -1.368520  2.260103
C    -5.305819  -1.452426  2.958449
N    -5.392232  -2.552728  3.913306
C    -5.827149  -2.411494  5.223490
N    -5.414893  -1.222098  5.839133
N    -6.561416  -3.339239  5.736156
H    -2.983921  -0.059992  3.703044
H    -2.776358  -1.796388  4.019248
H    -3.735147  -2.327137  1.757756
H    -4.026714  -0.610207  1.462326
H    -6.096472  -1.557465  2.196887
H    -5.512995  -0.515578  3.493703
H    -5.727939  -3.434218  3.536784
H    -5.625532  -1.189494  6.830491
H    -4.456602  -0.942142  5.645660
H    -6.681978  -3.208327  6.743750
N    -0.944316  -2.821506  0.865252
C    -1.192662  -2.104644  -0.375536
H    -0.617921  -3.779703  0.782476
H    -1.246066  -2.844456  -1.182580
H    -0.392299  -1.391619  -0.620299
H    -2.150796  -1.571858  -0.357580
