35
Energy: -21190.3706275 eV PBE+vdW (tier 2 basis)
C    -0.768300  -1.897539  0.625379
C    -0.648715  -1.562906  2.101632
O    0.375536  -1.762841  2.742926
H    -1.783313  -1.784982  0.223646
H    -0.431018  -2.928750  0.468264
H    -0.090388  -1.243345  0.061771
N    -1.780106  -1.026826  2.677887
C    -1.778606  -0.482469  4.033636
C    -2.015554  -1.540957  5.133910
O    -1.743992  -1.290128  6.305278
H    -2.544965  -0.759566  2.067488
H    -0.770890  -0.091273  4.237357
C    -2.816844  0.653597  4.103985
C    -2.853819  1.436469  5.416141
C    -3.872704  2.583024  5.385613
N    -5.248833  2.143895  5.182388
C    -6.045717  1.718838  6.243690
N    -7.371541  1.498728  5.846082
N    -5.714701  1.536425  7.472652
H    -3.819184  0.238465  3.906136
H    -2.590803  1.348100  3.276090
H    -1.861283  1.863830  5.626283
H    -3.070655  0.758226  6.250917
H    -3.633219  3.269726  4.560366
H    -3.786346  3.173592  6.315195
H    -5.762448  2.645699  4.466508
H    -7.469857  0.986548  4.973350
H    -7.900622  1.068221  6.599325
H    -4.758136  1.842346  7.663326
N    -2.574600  -2.708046  4.714493
C    -2.819374  -3.819001  5.612574
H    -2.640166  -2.848397  3.712671
H    -2.723722  -3.445121  6.637530
H    -2.089065  -4.628320  5.464996
H    -3.831049  -4.220261  5.467518
