35
Energy: -21190.3641841 eV PBE+vdW (tier 2 basis)
C    -0.478568  -2.148386  0.945972
C    0.281887  -0.923622  1.426478
O    1.469215  -0.985049  1.735629
H    -1.177134  -1.934620  0.125766
H    -1.056921  -2.581702  1.774154
H    0.253284  -2.890806  0.616329
N    -0.406620  0.258563  1.516702
C    -1.795316  0.538117  1.214696
C    -1.888081  2.055468  0.959975
O    -1.000065  2.818335  1.366403
H    0.139768  1.074801  1.793157
H    -2.078564  0.030120  0.278092
C    -2.783259  0.045686  2.311930
C    -2.467453  0.424132  3.764795
C    -2.533041  1.918662  4.112519
N    -3.748619  2.536084  3.588783
C    -3.912467  3.890999  3.301611
N    -2.744336  4.606275  3.098741
N    -5.051164  4.499815  3.203525
H    -2.809211  -1.051321  2.246487
H    -3.795222  0.385760  2.055402
H    -1.469537  0.053481  4.041732
H    -3.178776  -0.126313  4.402027
H    -1.668604  2.434800  3.685876
H    -2.453783  2.035065  5.208387
H    -4.611046  2.114124  3.919131
H    -1.974574  4.145230  2.611700
H    -2.942492  5.543304  2.764466
H    -5.823558  3.896957  3.500918
N    -2.953768  2.536223  0.273738
C    -4.167187  1.851650  -0.134804
H    -2.976283  3.552600  0.248210
H    -4.591563  2.371082  -1.001516
H    -4.919809  1.840313  0.668644
H    -3.952082  0.820744  -0.437318
