35
Energy: -21190.0994658 eV PBE+vdW (tier 2 basis)
C    -0.076242  -0.410499  2.869985
C    -1.200847  -0.839767  3.786711
O    -1.014356  -1.619374  4.718420
H    0.195238  0.638538  3.052441
H    -0.352380  -0.527807  1.816257
H    0.789875  -1.037330  3.098673
N    -2.468059  -0.311746  3.610302
C    -3.077343  0.487797  2.556075
C    -3.284099  -0.305493  1.244351
O    -2.496075  -1.167156  0.867599
H    -3.116732  -0.739854  4.264054
H    -4.073022  0.735284  2.954134
C    -2.365393  1.822655  2.238009
C    -2.083858  2.722092  3.442893
C    -3.311620  3.118793  4.283710
N    -4.492009  3.555719  3.545695
C    -4.497961  4.693117  2.766498
N    -5.704040  4.830787  2.046277
N    -3.471108  5.470000  2.718311
H    -2.989472  2.370697  1.516255
H    -1.426280  1.616060  1.709000
H    -1.608133  3.638637  3.071885
H    -1.370229  2.235805  4.124594
H    -3.017716  3.929261  4.964507
H    -3.634633  2.276291  4.911528
H    -5.141923  2.834170  3.260218
H    -5.781745  5.727778  1.577244
H    -6.540007  4.637235  2.594398
H    -3.673848  6.320997  2.189212
N    -4.382111  0.024558  0.493986
C    -5.446601  0.969334  0.790789
H    -4.440253  -0.500290  -0.373013
H    -6.186492  0.917025  -0.014859
H    -5.094560  2.010480  0.844568
H    -5.970051  0.721130  1.727579
