35
Energy: -21190.3279419 eV PBE+vdW (tier 2 basis)
C    0.636108  1.396162  1.759172
C    -0.039084  0.077176  2.081638
O    0.590096  -0.957205  2.283284
H    1.716437  1.250443  1.835760
H    0.324535  2.196579  2.444209
H    0.394389  1.724181  0.737913
N    -1.416506  0.084707  2.155542
C    -2.331079  1.186625  1.888536
C    -2.655549  2.076196  3.114022
O    -3.318523  3.101282  2.970158
H    -1.818059  -0.836292  2.318115
H    -1.860434  1.871764  1.167073
C    -3.637509  0.663872  1.273283
C    -3.472709  0.134813  -0.153599
C    -4.730906  -0.553103  -0.689402
N    -4.990379  -1.783110  0.039251
C    -6.156302  -2.530389  -0.035366
N    -7.302247  -1.815147  -0.390314
N    -6.103424  -3.771306  0.315205
H    -4.359872  1.491254  1.286574
H    -4.051196  -0.125175  1.922432
H    -2.628367  -0.572690  -0.209916
H    -3.216264  0.966250  -0.828006
H    -4.617944  -0.722472  -1.778415
H    -5.583712  0.130160  -0.550761
H    -4.191794  -2.399756  0.162928
H    -8.087521  -2.402207  -0.645201
H    -7.186049  -1.029440  -1.021629
H    -7.025845  -4.210997  0.286044
N    -2.162818  1.639674  4.301768
C    -2.374587  2.347349  5.548868
H    -1.617999  0.783965  4.290103
H    -1.420248  2.658750  5.995696
H    -2.916692  1.722397  6.271846
H    -2.973032  3.237616  5.327458
