35
Energy: -21190.4501428 eV PBE+vdW (tier 2 basis)
C    -1.590176  1.258988  0.643354
C    -0.998001  0.542509  1.840053
O    0.206340  0.257338  1.883258
H    -1.453951  0.626446  -0.243045
H    -1.028219  2.185222  0.472982
H    -2.655393  1.497858  0.747383
N    -1.871700  0.248287  2.842005
C    -1.604726  -0.533191  4.061822
C    -0.711914  0.181064  5.106741
O    -1.085633  0.253131  6.280595
H    -2.824417  0.569288  2.724151
H    -2.573240  -0.603657  4.572609
C    -1.138877  -1.970335  3.735368
C    -1.007817  -2.890711  4.959356
C    0.357849  -2.827660  5.662993
N    0.471695  -3.714608  6.820847
C    0.419975  -5.103748  6.726670
N    0.981705  -5.619674  5.557321
N    -0.073047  -5.920317  7.595158
H    -0.191097  -1.934640  3.179299
H    -1.885144  -2.388083  3.043574
H    -1.168789  -3.929325  4.637498
H    -1.797421  -2.662322  5.692862
H    0.567602  -1.815084  6.027688
H    1.152256  -3.064791  4.940042
H    -0.010267  -3.368253  7.644607
H    1.074428  -6.628834  5.624822
H    1.839194  -5.169261  5.250706
H    -0.575823  -5.418407  8.332338
N    0.475160  0.644282  4.651426
C    1.436317  1.290594  5.522753
H    0.683785  0.502230  3.655590
H    1.945270  2.097258  4.981759
H    2.195396  0.582194  5.890977
H    0.909122  1.705087  6.389020
