35
Energy: -21190.2065102 eV PBE+vdW (tier 2 basis)
C    -0.225270  1.629274  1.064550
C    -0.005308  0.330206  1.810420
O    1.005509  0.103978  2.471660
H    -1.002603  2.231518  1.555564
H    -0.556880  1.467828  0.030250
H    0.714121  2.187666  1.070232
N    -1.003077  -0.615633  1.729142
C    -2.288142  -0.526794  1.049485
C    -3.252766  0.560982  1.588630
O    -3.765578  1.345028  0.787875
H    -0.796265  -1.461490  2.253348
H    -2.131752  -0.207338  0.008147
C    -2.938302  -1.921102  1.034126
C    -4.348432  -1.947537  0.444201
C    -4.996596  -3.339970  0.478908
N    -5.062989  -3.970819  1.803185
C    -5.630725  -3.348371  2.913998
N    -6.739507  -2.560933  2.627375
N    -5.221393  -3.433597  4.136785
H    -2.968137  -2.305817  2.065625
H    -2.272960  -2.592055  0.465723
H    -4.331525  -1.596519  -0.599120
H    -4.995607  -1.246976  0.990113
H    -4.442546  -4.039822  -0.163332
H    -6.007186  -3.277531  0.048236
H    -4.233127  -4.498058  2.051345
H    -7.227675  -2.284568  3.473137
H    -7.358651  -2.906438  1.901103
H    -4.333214  -3.939359  4.196838
N    -3.516785  0.646582  2.923750
C    -3.181092  -0.259322  4.016269
H    -4.195550  1.375693  3.124177
H    -3.313758  0.281372  4.960151
H    -2.131075  -0.564409  3.962114
H    -3.826044  -1.151443  4.043685
