35
Energy: -21190.5833794 eV PBE+vdW (tier 2 basis)
C    0.171727  1.473386  0.425238
C    -0.008545  0.808307  1.776255
O    0.966709  0.563077  2.496316
H    -0.766406  1.684083  -0.102090
H    0.791326  0.819800  -0.201855
H    0.724701  2.409990  0.565157
N    -1.296783  0.529799  2.120583
C    -1.840598  -0.221847  3.269040
C    -1.553839  0.297777  4.698647
O    -2.413252  0.078530  5.565151
H    -1.996677  0.818618  1.448424
H    -2.925614  -0.082180  3.179992
C    -1.595862  -1.748632  3.206447
C    -0.185826  -2.262080  3.556881
C    -0.218022  -3.441871  4.544361
N    -0.774910  -3.107704  5.842781
C    -0.146935  -2.272361  6.754515
N    -1.049056  -1.699154  7.653738
N    1.120064  -2.037524  6.864504
H    -1.899735  -2.097710  2.208676
H    -2.324880  -2.171350  3.914123
H    0.419732  -1.465765  4.005299
H    0.351795  -2.564380  2.647043
H    0.800379  -3.837963  4.677846
H    -0.813031  -4.273733  4.139028
H    -1.779020  -3.180925  5.953878
H    -0.548168  -1.125272  8.326839
H    -1.784490  -1.159762  7.187185
H    1.667118  -2.622499  6.227214
N    -0.376320  0.910298  4.915247
C    0.063421  1.337727  6.232381
H    0.308536  0.874374  4.147948
H    0.592236  2.295428  6.150079
H    0.734234  0.588375  6.680362
H    -0.814257  1.464523  6.874449
