35
Energy: -21190.3535619 eV PBE+vdW (tier 2 basis)
C    0.095652  2.147335  0.547824
C    0.100974  0.740802  1.124462
O    1.094506  0.264160  1.665349
H    1.093117  2.571067  0.688967
H    -0.636572  2.787248  1.061793
H    -0.149335  2.157406  -0.522869
N    -1.062035  0.017957  1.029661
C    -2.332614  0.420886  0.461915
C    -3.424538  -0.400213  1.170671
O    -3.183817  -1.510968  1.651108
H    -1.061226  -0.884345  1.503652
H    -2.500157  1.488102  0.678935
C    -2.446202  0.233578  -1.081682
C    -2.709759  -1.188817  -1.591099
C    -1.574792  -2.206817  -1.363688
N    -1.875486  -3.544072  -1.833552
C    -2.771504  -4.412783  -1.224126
N    -2.927914  -4.252212  0.148001
N    -3.299185  -5.340307  -1.956260
H    -1.520844  0.628741  -1.527773
H    -3.257343  0.888007  -1.438705
H    -2.905097  -1.132563  -2.673460
H    -3.637223  -1.582241  -1.145888
H    -1.298292  -2.262115  -0.303437
H    -0.664002  -1.866070  -1.878587
H    -1.874367  -3.689717  -2.838249
H    -3.716030  -4.755681  0.534860
H    -2.807973  -3.333588  0.570251
H    -3.865327  -5.978855  -1.392668
N    -4.658229  0.162573  1.174111
C    -5.836544  -0.507070  1.697743
H    -4.762501  1.087157  0.773062
H    -6.317115  0.100014  2.475883
H    -5.512230  -1.456167  2.135442
H    -6.564585  -0.710616  0.900461
