35
Energy: -21190.4591688 eV PBE+vdW (tier 2 basis)
C    -0.695631  -0.160118  0.328524
C    -0.373154  0.069558  1.791685
O    0.777026  0.371182  2.145477
H    -1.727007  -0.480440  0.141395
H    -0.013630  -0.925224  -0.062869
H    -0.498344  0.767694  -0.223195
N    -1.419444  -0.079744  2.646510
C    -1.494341  -0.008343  4.121143
C    -0.993303  1.279362  4.825063
O    -1.575403  1.635421  5.852457
H    -2.292695  -0.350422  2.209370
H    -2.573053  0.039181  4.317561
C    -1.003104  -1.268597  4.874911
C    0.500145  -1.592289  4.879809
C    1.005643  -2.523432  3.765316
N    0.380370  -3.836149  3.742952
C    -0.664576  -4.190192  2.906500
N    -1.156981  -5.471465  3.182783
N    -1.211450  -3.497806  1.963396
H    -1.572941  -2.133668  4.504367
H    -1.334576  -1.108463  5.910553
H    0.736968  -2.072402  5.843062
H    1.099738  -0.670621  4.854788
H    2.091069  -2.659040  3.890144
H    0.882830  -2.065626  2.777407
H    0.442949  -4.372961  4.601975
H    -1.820924  -5.758026  2.469181
H    -0.441799  -6.176993  3.339303
H    -0.845229  -2.545084  1.960169
N    0.069887  1.923094  4.299151
C    0.616768  3.109492  4.930002
H    0.550696  1.480093  3.504271
H    1.299024  3.600527  4.227802
H    1.166742  2.867630  5.852517
H    -0.190408  3.802382  5.197797
