35
Energy: -21190.6413881 eV PBE+vdW (tier 2 basis)
C    -1.317131  -1.952983  0.028298
C    -0.751686  -1.300076  1.271099
O    0.456356  -1.065041  1.391227
H    -1.086211  -1.320319  -0.837995
H    -2.400066  -2.117793  0.072769
H    -0.810593  -2.913780  -0.125219
N    -1.656381  -0.977844  2.233521
C    -1.276558  -0.470546  3.538272
C    -2.170210  -1.181969  4.568219
O    -3.293441  -1.584686  4.262928
H    -2.616771  -1.312820  2.178423
H    -0.219184  -0.733117  3.693049
C    -1.468103  1.061514  3.656509
C    -0.579931  1.895530  2.727695
C    0.905031  1.910459  3.130774
N    1.739528  2.777704  2.320461
C    2.357781  2.431368  1.117978
N    2.478115  1.077871  0.870494
N    2.895209  3.275155  0.295154
H    -1.284766  1.355899  4.703443
H    -2.528037  1.278676  3.456543
H    -0.952719  2.932199  2.735947
H    -0.677037  1.546826  1.689120
H    1.329443  0.898594  3.094425
H    0.988366  2.239911  4.180958
H    1.526931  3.766897  2.380699
H    1.728131  0.433699  1.119971
H    2.873510  0.907364  -0.047141
H    2.837948  4.231477  0.655714
N    -1.642541  -1.284988  5.816126
C    -2.366808  -1.854249  6.938388
H    -0.693276  -0.961551  5.960668
H    -3.355358  -2.153847  6.576022
H    -2.488208  -1.118978  7.745641
H    -1.849583  -2.738304  7.335195
