35
Energy: -21190.6406884 eV PBE+vdW (tier 2 basis)
C    -1.450084  -1.272954  -0.198562
C    -1.043646  -0.454280  1.013720
O    0.004082  0.190335  1.054966
H    -2.397674  -1.808023  -0.059790
H    -0.652052  -1.991521  -0.423733
H    -1.535104  -0.603338  -1.063957
N    -1.933881  -0.493024  2.052865
C    -1.691415  0.249126  3.281537
C    -2.144124  -0.536851  4.531387
O    -2.558207  0.024513  5.545387
H    -2.787824  -1.065983  1.960692
H    -0.591668  0.314832  3.363644
C    -2.185652  1.710486  3.294509
C    -3.576603  2.054241  2.741077
C    -4.796181  1.299872  3.300877
N    -5.083965  0.093812  2.515436
C    -5.020474  -1.202974  2.968942
N    -5.517030  -1.409718  4.235904
N    -4.471321  -2.095226  2.192757
H    -1.454537  2.298292  2.721964
H    -2.118684  2.043074  4.339530
H    -3.579888  1.945097  1.643014
H    -3.729041  3.129106  2.921028
H    -5.674006  1.964852  3.275806
H    -4.625507  1.012579  4.346863
H    -4.780301  0.144614  1.547378
H    -5.522605  -2.355070  4.591683
H    -6.245265  -0.799444  4.585460
H    -4.631814  -3.046156  2.532454
N    -1.980867  -1.885186  4.439021
C    -2.366048  -2.795864  5.493253
H    -1.694598  -2.255871  3.539885
H    -3.103908  -3.528138  5.131255
H    -2.811290  -2.201714  6.298811
H    -1.500982  -3.344383  5.893006
