35
Energy: -21190.2154661 eV PBE+vdW (tier 2 basis)
C    0.016707  -0.898024  0.573274
C    -0.738463  -0.647257  1.862641
O    -1.048753  -1.558375  2.632072
H    0.031815  -0.036061  -0.104897
H    -0.429959  -1.757446  0.061258
H    1.052128  -1.164189  0.827295
N    -1.034223  0.660363  2.129982
C    -1.592010  1.085023  3.418352
C    -2.084234  2.533575  3.236105
O    -1.451900  3.499603  3.658924
H    -0.617080  1.373485  1.541613
H    -2.456954  0.431576  3.607634
C    -0.630985  0.931524  4.617063
C    0.842781  1.199989  4.321149
C    1.771664  0.831527  5.482665
N    1.588432  -0.519924  6.047639
C    2.117539  -1.674257  5.449592
N    1.798773  -1.826480  4.103152
N    2.830764  -2.575679  6.038094
H    -0.734703  -0.091094  5.001493
H    -0.982443  1.606994  5.410573
H    0.997447  2.264143  4.089684
H    1.161701  0.635247  3.434803
H    1.589344  1.523475  6.317583
H    2.816916  0.985154  5.160427
H    1.775180  -0.532917  7.044876
H    2.131374  -2.727090  3.769167
H    0.818097  -1.677808  3.862883
H    3.123280  -2.262920  6.968517
N    -3.252026  2.692729  2.543674
C    -4.157562  1.658793  2.064903
H    -3.544852  3.661784  2.465125
H    -4.862260  2.113077  1.359843
H    -4.738928  1.197635  2.878356
H    -3.611662  0.871121  1.531488
