35
Energy: -21190.4368746 eV PBE+vdW (tier 2 basis)
C    -0.611986  1.305412  -0.167513
C    0.044131  0.224591  0.668719
O    1.260852  0.068241  0.715306
H    0.176618  1.909108  -0.623312
H    -1.267196  1.950199  0.433820
H    -1.231503  0.866180  -0.962520
N    -0.795915  -0.590192  1.400321
C    -2.255018  -0.616480  1.382422
C    -2.907251  0.539337  2.174213
O    -4.060174  0.897423  1.934274
H    -0.316509  -1.365480  1.852181
H    -2.625416  -0.508151  0.351237
C    -2.724503  -1.974699  1.943060
C    -4.209044  -2.275456  1.732124
C    -4.669833  -3.574069  2.407237
N    -4.633057  -3.540918  3.862602
C    -3.585919  -4.077524  4.584377
N    -3.719554  -3.837977  5.963475
N    -2.608804  -4.684258  3.998856
H    -2.478068  -2.018279  3.015139
H    -2.125182  -2.763162  1.462263
H    -4.419059  -2.358051  0.653258
H    -4.820452  -1.433131  2.089431
H    -4.038387  -4.418682  2.103811
H    -5.701152  -3.794235  2.091690
H    -5.125751  -2.775024  4.309408
H    -3.058624  -4.360204  6.528764
H    -4.667712  -3.930133  6.320915
H    -1.985073  -5.121283  4.680481
N    -2.131640  1.073801  3.154901
C    -2.583638  2.139050  4.025958
H    -1.176955  0.735846  3.219963
H    -1.949564  3.031059  3.925727
H    -2.581700  1.821002  5.078067
H    -3.607849  2.394663  3.733194
