35
Energy: -21190.631998 eV PBE+vdW (tier 2 basis)
C    -2.642925  1.742230  0.707629
C    -1.822244  1.498817  1.958025
O    -0.588297  1.586172  1.943315
H    -2.338299  1.014916  -0.055467
H    -2.406625  2.740593  0.319844
H    -3.725822  1.662666  0.861011
N    -2.532209  1.182680  3.076828
C    -1.982793  0.821655  4.396039
C    -1.388821  2.033681  5.158575
O    -1.821868  2.329265  6.283382
H    -3.541644  1.200447  3.003997
H    -2.856074  0.535339  4.996271
C    -1.015314  -0.384785  4.320216
C    -0.946075  -1.257720  5.582801
C    -0.478679  -0.582039  6.877544
N    0.779141  0.132426  6.687027
C    1.279168  1.046773  7.612543
N    0.314418  1.802265  8.265719
N    2.562239  1.096059  7.775917
H    -0.011584  -0.036470  4.049516
H    -1.356210  -1.019847  3.489525
H    -0.274214  -2.101536  5.354818
H    -1.931877  -1.709074  5.780849
H    -0.398621  -1.353968  7.666824
H    -1.236533  0.131233  7.218606
H    1.549733  -0.443907  6.354944
H    0.696072  2.571945  8.802862
H    -0.508085  2.067661  7.713530
H    2.825517  1.880586  8.378168
N    -0.391365  2.683019  4.532447
C    0.358323  3.760522  5.148414
H    -0.124574  2.336833  3.603334
H    1.260331  3.380805  5.652330
H    -0.273084  4.259955  5.891370
H    0.658105  4.484496  4.381744
