35
Energy: -21190.1390982 eV PBE+vdW (tier 2 basis)
C    -0.949592  0.809260  0.153722
C    -0.755908  0.526328  1.635228
O    0.331396  0.166495  2.080974
H    -0.764279  -0.117686  -0.403625
H    -0.193954  1.537247  -0.165432
H    -1.945373  1.186358  -0.110438
N    -1.873436  0.722961  2.402290
C    -2.122711  0.420800  3.819886
C    -2.173898  1.642351  4.761869
O    -3.013559  1.625881  5.673155
H    -2.696695  1.030136  1.898113
H    -3.174889  0.105270  3.838140
C    -1.343917  -0.776130  4.426454
C    0.030152  -0.558427  5.074761
C    -0.002310  -0.023192  6.512730
N    -0.755466  -0.897826  7.405590
C    -1.436616  -0.447583  8.533584
N    -2.051260  0.791163  8.391097
N    -1.423143  -1.199438  9.586232
H    -1.263420  -1.530262  3.632735
H    -2.002802  -1.202701  5.197158
H    0.665341  0.083297  4.452541
H    0.539210  -1.535609  5.086048
H    -0.450966  0.974403  6.556229
H    1.039431  0.101286  6.863536
H    -0.289756  -1.772663  7.635322
H    -2.675076  1.024820  9.154331
H    -2.444689  1.021119  7.474324
H    -2.067604  -0.846100  10.298519
N    -1.343349  2.705642  4.614222
C    -0.215150  2.925673  3.721195
H    -1.538334  3.428987  5.301262
H    0.518135  3.554765  4.239334
H    -0.517577  3.436945  2.794691
H    0.277691  1.985491  3.455881
