35
Energy: -21190.1144204 eV PBE+vdW (tier 2 basis)
C    -0.394757  2.081177  -0.297479
C    -0.407085  2.159841  1.209316
O    -0.188987  3.235430  1.780394
H    0.534269  2.549060  -0.644795
H    -1.229937  2.693326  -0.665690
H    -0.483872  1.080218  -0.725189
N    -0.647937  1.046132  1.978100
C    -1.255453  -0.254439  1.668157
C    -0.616121  -0.961638  0.449954
O    -1.290531  -1.360410  -0.496739
H    -0.651471  1.296354  2.964957
H    -0.986622  -0.892492  2.528069
C    -2.797912  -0.249778  1.596098
C    -3.441735  0.777071  0.651741
C    -3.688032  2.149765  1.297165
N    -3.804162  3.194825  0.282407
C    -3.755673  4.553580  0.607090
N    -2.814243  4.892806  1.570046
N    -4.579104  5.345331  0.002825
H    -3.180429  -0.099911  2.618979
H    -3.095720  -1.263730  1.298759
H    -4.399811  0.371168  0.295179
H    -2.828144  0.898860  -0.248920
H    -2.862422  2.417382  1.963565
H    -4.588047  2.099367  1.941326
H    -4.574751  3.055953  -0.369002
H    -2.679169  5.890649  1.679934
H    -1.935460  4.370968  1.595146
H    -4.362302  6.325960  0.201487
N    0.733830  -1.169552  0.492353
C    1.693267  -0.827987  1.529897
H    1.083029  -1.632033  -0.341271
H    2.574628  -1.468254  1.410280
H    2.013166  0.222670  1.483040
H    1.283079  -1.016522  2.530187
