35
Energy: -21190.3140024 eV PBE+vdW (tier 2 basis)
C    -0.217314  -0.398524  2.429601
C    -0.606455  -0.752065  3.854817
O    0.191622  -1.323563  4.607550
H    0.873245  -0.320087  2.391083
H    -0.667652  0.538055  2.075625
H    -0.520278  -1.198166  1.739127
N    -1.853087  -0.407734  4.291743
C    -3.029088  -0.262570  3.444128
C    -4.149726  0.438110  4.244112
O    -5.258626  -0.070310  4.409354
H    -2.041380  -0.619110  5.298322
H    -2.778411  0.423138  2.613802
C    -3.511229  -1.571298  2.777961
C    -3.950447  -2.769468  3.640745
C    -2.880437  -3.639821  4.330740
N    -2.261447  -3.097006  5.545708
C    -3.025560  -2.460349  6.504670
N    -4.106646  -3.178834  6.988630
N    -2.666928  -1.280404  6.909800
H    -2.717143  -1.896815  2.086799
H    -4.366504  -1.294684  2.143557
H    -4.500652  -3.446190  2.967259
H    -4.688559  -2.427301  4.377880
H    -3.337241  -4.618844  4.556673
H    -2.053203  -3.859539  3.640649
H    -1.376197  -2.607530  5.391649
H    -4.920988  -2.641850  7.260037
H    -4.318395  -4.062963  6.541527
H    -3.201803  -0.973766  7.725641
N    -3.865600  1.678167  4.740047
C    -2.637883  2.451347  4.647687
H    -4.624521  2.060143  5.295524
H    -1.892450  2.151500  5.397781
H    -2.182501  2.349921  3.654931
H    -2.883082  3.510252  4.792365
