35
Energy: -21190.0996076 eV PBE+vdW (tier 2 basis)
C    0.729837  -0.010705  0.359105
C    0.210040  0.100616  1.782333
O    0.941489  0.496724  2.691886
H    1.080691  0.978123  0.037714
H    -0.005923  -0.380780  -0.365349
H    1.598653  -0.680331  0.357428
N    -1.101367  -0.247118  1.938191
C    -1.938353  -0.353128  3.143803
C    -3.009973  0.748732  3.330429
O    -4.068051  0.422409  3.869158
H    -1.570047  -0.541240  1.089449
H    -2.564660  -1.236683  2.959002
C    -1.191933  -0.628849  4.468941
C    -0.707796  0.587884  5.258814
C    0.324394  0.202246  6.331752
N    1.045924  1.341075  6.865790
C    2.286623  1.768527  6.427725
N    2.684403  1.257468  5.195109
N    2.971023  2.547869  7.202509
H    -0.343781  -1.290963  4.241860
H    -1.885972  -1.211901  5.091136
H    -1.556156  1.107301  5.728848
H    -0.227383  1.305850  4.585328
H    1.042583  -0.513943  5.899720
H    -0.169249  -0.319962  7.164639
H    0.858785  1.636790  7.815574
H    3.506614  1.704864  4.809899
H    1.984173  1.044841  4.486211
H    3.828440  2.862997  6.743393
N    -2.801969  2.032766  2.920339
C    -1.628588  2.698969  2.373879
H    -3.613506  2.613215  3.111588
H    -1.701005  3.766452  2.611185
H    -1.560028  2.594863  1.280160
H    -0.701312  2.326948  2.821007
