35
Energy: -21190.2998853 eV PBE+vdW (tier 2 basis)
C    0.642524  0.890970  -0.242219
C    0.736302  0.276981  1.140928
O    1.779119  -0.207969  1.572460
H    1.616771  0.769255  -0.722804
H    0.410854  1.964146  -0.185978
H    -0.127900  0.414503  -0.866353
N    -0.405537  0.253836  1.912884
C    -1.674390  0.924037  1.676007
C    -1.762035  2.171375  2.577249
O    -1.662728  2.050036  3.797942
H    -0.236294  -0.044006  2.872222
H    -1.714797  1.186704  0.614963
C    -2.853185  -0.009108  2.031053
C    -2.980455  -1.231698  1.110347
C    -4.034572  -1.084870  -0.003517
N    -3.945307  0.113261  -0.826734
C    -2.930457  0.320479  -1.742104
N    -2.910883  1.635916  -2.237277
N    -2.030085  -0.508669  -2.144490
H    -3.784507  0.581407  2.028871
H    -2.711231  -0.318386  3.075707
H    -3.262149  -2.117306  1.698713
H    -1.992852  -1.463158  0.684396
H    -5.038791  -1.077636  0.444006
H    -4.003583  -1.963319  -0.666041
H    -4.348841  0.954150  -0.428986
H    -2.253568  1.702904  -3.010602
H    -3.825504  1.995106  -2.502558
H    -2.069759  -1.393668  -1.635000
N    -1.986783  3.391307  2.003215
C    -1.944521  3.782246  0.602632
H    -1.982922  4.140896  2.691002
H    -2.603154  4.647148  0.454272
H    -2.301569  2.983833  -0.056630
H    -0.930500  4.065160  0.277248
