35
Energy: -21190.1050049 eV PBE+vdW (tier 2 basis)
C    -0.651487  -0.907191  0.264707
C    0.092774  -0.757079  1.574533
O    1.080140  -1.438848  1.846240
H    -1.583486  -1.468830  0.420710
H    -0.012975  -1.475533  -0.416701
H    -0.927009  0.050110  -0.191548
N    -0.380279  0.145658  2.501472
C    -1.461946  1.132974  2.421835
C    -2.804444  0.495140  1.982793
O    -3.403141  0.859496  0.974062
H    0.204784  0.171307  3.331327
H    -1.611521  1.454260  3.466068
C    -1.115362  2.374212  1.585301
C    -1.946967  3.619446  1.914091
C    -1.653611  4.254043  3.280022
N    -0.254238  4.646391  3.447508
C    0.185332  5.867632  2.960046
N    1.509663  6.141693  3.341752
N    -0.601758  6.622814  2.275819
H    -1.240906  2.132985  0.522145
H    -0.050976  2.595436  1.749388
H    -3.020489  3.385887  1.859213
H    -1.762202  4.381941  1.145745
H    -1.886183  3.555440  4.097844
H    -2.302667  5.134016  3.406247
H    0.180151  4.370907  4.320313
H    1.912272  6.940589  2.863381
H    2.133331  5.338534  3.313695
H    -0.110079  7.442629  1.913357
N    -3.307021  -0.494068  2.782563
C    -2.752001  -1.062376  3.999627
H    -4.171969  -0.887798  2.425791
H    -3.549486  -1.598017  4.526667
H    -2.383858  -0.278304  4.675209
H    -1.927556  -1.762700  3.803023
