35
Energy: -21190.22761 eV PBE+vdW (tier 2 basis)
C    -0.129582  -0.221668  0.563458
C    -0.208359  -0.353525  2.069879
O    0.800964  -0.270343  2.764089
H    0.670189  -0.886373  0.215953
H    0.168939  0.803735  0.311662
H    -1.047348  -0.456577  0.019736
N    -1.422290  -0.637450  2.683123
C    -2.810376  -0.497874  2.229140
C    -3.158135  -1.342576  0.977049
O    -4.023643  -0.988470  0.179639
H    -1.298968  -0.654419  3.693293
H    -3.397248  -1.002507  3.015810
C    -3.359817  0.947731  2.195316
C    -2.572603  2.007948  1.418662
C    -2.751915  1.966289  -0.100550
N    -1.778955  2.820100  -0.758508
C    -1.453117  2.649391  -2.100356
N    -0.585179  3.646785  -2.561322
N    -1.842915  1.725116  -2.908021
H    -3.426510  1.274506  3.243559
H    -4.391793  0.888109  1.819864
H    -1.501496  1.938577  1.658904
H    -2.889416  2.997155  1.786849
H    -3.792846  2.232430  -0.362378
H    -2.606259  0.946644  -0.473046
H    -1.756644  3.786282  -0.444249
H    -0.262451  3.432665  -3.500575
H    0.183780  3.864242  -1.932659
H    -2.587665  1.154214  -2.502008
N    -2.504962  -2.533195  0.906763
C    -2.702565  -3.474012  -0.178543
H    -1.764710  -2.694682  1.581406
H    -2.877289  -4.485014  0.211699
H    -1.834708  -3.498695  -0.854176
H    -3.580557  -3.150635  -0.747148
