35
Energy: -21190.3873121 eV PBE+vdW (tier 2 basis)
C    -0.049841  -0.153329  0.049206
C    -0.012092  -0.005622  1.560269
O    1.040945  0.034124  2.186981
H    0.211371  -1.189560  -0.204838
H    0.717132  0.494644  -0.388896
H    -1.023885  0.080532  -0.398393
N    -1.246832  0.101408  2.162158
C    -1.500597  0.032523  3.608119
C    -0.589619  0.977271  4.432325
O    -0.196735  0.675048  5.560436
H    -2.055854  -0.028353  1.565381
H    -2.509619  0.460887  3.733911
C    -1.549357  -1.388360  4.184005
C    -0.235641  -2.196563  4.164128
C    -0.065564  -3.044394  5.424358
N    0.097012  -2.170394  6.575913
C    -0.262415  -2.580631  7.834601
N    -0.307031  -1.525373  8.764649
N    -0.559682  -3.817511  8.070610
H    -2.340861  -1.938926  3.652862
H    -1.899176  -1.286432  5.221500
H    0.626072  -1.522628  4.069847
H    -0.202869  -2.852137  3.282874
H    0.811009  -3.703679  5.316935
H    -0.931216  -3.706773  5.591992
H    0.053065  -1.169743  6.377729
H    -0.186091  -1.829667  9.724562
H    0.295037  -0.735137  8.545591
H    -0.786750  -3.953288  9.058471
N    -0.377596  2.199339  3.881324
C    0.531076  3.159021  4.481583
H    -0.599656  2.300376  2.897510
H    0.264179  4.170481  4.154729
H    1.577643  2.954018  4.208406
H    0.440756  3.096660  5.570794
