35
Energy: -21190.4990985 eV PBE+vdW (tier 2 basis)
C    -0.687618  0.370278  0.864745
C    -0.212462  -0.865201  1.600255
O    0.888198  -0.904570  2.148720
H    -1.415937  0.919575  1.478791
H    -1.143355  0.119951  -0.099545
H    0.182519  1.014036  0.708532
N    -1.049940  -1.958096  1.703306
C    -2.321198  -2.300007  1.078845
C    -2.221900  -2.588886  -0.439318
O    -1.438613  -2.010720  -1.190214
H    -0.575410  -2.722466  2.174189
H    -2.612139  -3.252541  1.543620
C    -3.473049  -1.309987  1.357988
C    -3.848253  -1.224193  2.838547
C    -4.495806  -2.496102  3.404348
N    -5.780550  -2.836014  2.810242
C    -5.990486  -3.856596  1.921801
N    -7.348105  -4.064823  1.659919
N    -5.007033  -4.506378  1.373295
H    -4.345655  -1.638148  0.774960
H    -3.214481  -0.314789  0.976652
H    -4.534863  -0.375669  2.991305
H    -2.951576  -1.003028  3.438404
H    -4.638220  -2.375809  4.489529
H    -3.848281  -3.369800  3.261244
H    -6.546999  -2.187303  2.942906
H    -7.545722  -4.851451  1.052348
H    -7.969148  -4.024769  2.463086
H    -5.358434  -5.338789  0.894475
N    -3.118079  -3.533256  -0.834371
C    -3.305717  -3.896579  -2.222882
H    -3.743640  -3.919672  -0.115865
H    -4.309868  -3.621527  -2.579849
H    -3.164176  -4.976433  -2.373196
H    -2.559783  -3.356910  -2.816838
