35
Energy: -21190.4727059 eV PBE+vdW (tier 2 basis)
C    -1.201975  -2.011644  0.964248
C    -0.749532  -1.029555  2.022444
O    0.217005  -0.278167  1.857311
H    -0.324559  -2.469554  0.495902
H    -1.749227  -1.456930  0.189336
H    -1.864033  -2.795790  1.352781
N    -1.511911  -0.993820  3.156289
C    -1.289304  -0.027985  4.233332
C    -0.223051  -0.553852  5.235787
O    -0.493141  -0.874992  6.393034
H    -2.160712  -1.753844  3.320092
H    -0.851100  0.850701  3.736937
C    -2.586330  0.408043  4.924233
C    -3.518937  -0.696015  5.457090
C    -4.604145  -1.212000  4.492614
N    -5.530383  -0.208236  4.003937
C    -5.438596  0.411655  2.766842
N    -6.476012  1.330025  2.564837
N    -4.550937  0.253786  1.844664
H    -3.141425  1.061683  4.236093
H    -2.278372  1.037737  5.769148
H    -4.036984  -0.302335  6.345319
H    -2.931151  -1.547490  5.831775
H    -5.181779  -1.993315  5.012086
H    -4.180107  -1.703442  3.605006
H    -6.076955  0.284562  4.702050
H    -6.445513  1.697087  1.617989
H    -7.401611  0.990367  2.813305
H    -3.754155  -0.297272  2.169448
N    1.020777  -0.609214  4.690509
C    2.168113  -1.133183  5.403456
H    1.104298  -0.354445  3.703227
H    2.995747  -0.410943  5.395483
H    2.521732  -2.075971  4.960218
H    1.866668  -1.320710  6.439502
