35
Energy: -21189.995019 eV PBE+vdW (tier 2 basis)
C    -0.226645  -0.625545  -0.132842
C    -0.390002  0.338548  1.024052
O    0.153142  1.441283  1.015649
H    0.664363  -1.239242  0.056379
H    -0.060974  -0.036492  -1.039778
H    -1.069385  -1.307414  -0.286897
N    -1.123387  -0.043521  2.126821
C    -1.969301  -1.200154  2.388000
C    -1.277821  -2.530500  1.985645
O    -0.096628  -2.724592  2.247432
H    -1.086765  0.661566  2.857052
H    -1.991209  -1.292446  3.486805
C    -3.439761  -0.964925  1.959240
C    -3.699614  -0.643163  0.485985
C    -5.159621  -0.240985  0.233051
N    -5.439801  0.100293  -1.157232
C    -5.555565  1.399841  -1.641066
N    -4.875521  2.355368  -0.885950
N    -6.226561  1.775935  -2.676345
H    -3.800524  -0.115448  2.561709
H    -4.055722  -1.819855  2.289197
H    -3.445437  -1.488730  -0.172310
H    -3.044646  0.183995  0.175193
H    -5.422416  0.615349  0.872732
H    -5.826445  -1.067444  0.524862
H    -5.978106  -0.574923  -1.684590
H    -4.912630  3.260039  -1.346556
H    -3.931539  2.109740  -0.600026
H    -6.803568  1.015912  -3.047297
N    -2.077808  -3.470413  1.403799
C    -1.591843  -4.789382  1.043188
H    -3.038865  -3.233120  1.196865
H    -2.175303  -5.576038  1.540668
H    -0.548748  -4.855960  1.368992
H    -1.635782  -4.946472  -0.043778
