35
Energy: -21190.69014 eV PBE+vdW (tier 2 basis)
C    -4.211609  3.310655  1.918298
C    -2.902417  2.625599  2.247617
O    -1.813565  3.125024  1.935765
H    -4.254203  3.488606  0.836801
H    -4.230194  4.290332  2.412043
H    -5.095030  2.738171  2.224801
N    -3.001045  1.441369  2.901443
C    -1.843926  0.649186  3.276332
C    -2.297840  -0.816334  3.264690
O    -3.435128  -1.130737  3.618999
H    -3.902288  1.026428  3.125568
H    -1.070294  0.820892  2.513463
C    -1.308978  1.068767  4.668417
C    0.031123  0.452174  5.077025
C    1.224235  0.931282  4.239083
N    1.467465  2.365065  4.387170
C    1.861619  3.168777  3.314898
N    1.139797  2.952731  2.143749
N    2.836636  3.995078  3.505573
H    -2.082506  0.827737  5.412099
H    -1.201945  2.163015  4.654205
H    -0.013029  -0.648166  5.043265
H    0.219184  0.707889  6.131396
H    1.064515  0.737725  3.169664
H    2.121700  0.354174  4.525832
H    2.039196  2.606210  5.193287
H    1.407982  3.581715  1.394523
H    0.117561  2.904762  2.232927
H    2.925140  4.644398  2.718807
N    -1.355150  -1.711733  2.867305
C    -1.577720  -3.146116  2.861692
H    -0.460716  -1.353549  2.554152
H    -2.595965  -3.323787  3.222240
H    -0.867369  -3.659784  3.524077
H    -1.481236  -3.557556  1.847796
