35
Energy: -21190.6529846 eV PBE+vdW (tier 2 basis)
C    0.181343  -3.000652  -0.240552
C    -0.164047  -2.184518  0.986024
O    0.552738  -1.250144  1.369783
H    0.203446  -2.331469  -1.110025
H    -0.521799  -3.818283  -0.439986
H    1.190306  -3.413476  -0.120717
N    -1.304106  -2.538298  1.638185
C    -1.872120  -1.792574  2.764679
C    -1.182789  -2.137849  4.121406
O    -1.804500  -2.584826  5.092991
H    -1.821669  -3.344554  1.307929
H    -1.643163  -0.731790  2.573737
C    -3.388948  -1.974656  2.821518
C    -3.881698  -3.435661  2.847444
C    -5.142038  -3.628019  3.707540
N    -4.886877  -3.351497  5.111191
C    -5.261283  -2.144119  5.703907
N    -4.376830  -1.753039  6.703359
N    -6.317911  -1.440323  5.465092
H    -3.835006  -1.446483  1.966594
H    -3.739432  -1.454264  3.721313
H    -3.100193  -4.095840  3.257031
H    -4.096859  -3.796654  1.828050
H    -5.514541  -4.657473  3.585966
H    -5.945077  -2.960300  3.363382
H    -3.969532  -3.667925  5.417911
H    -4.624499  -0.850317  7.094237
H    -3.389709  -1.851355  6.467936
H    -6.950914  -1.926875  4.825362
N    0.140347  -1.865873  4.129334
C    0.991930  -2.109801  5.276993
H    0.536486  -1.477259  3.264733
H    1.383682  -1.167841  5.686596
H    1.840464  -2.750757  5.001606
H    0.397799  -2.610236  6.048448
