35
Energy: -21190.7994901 eV PBE+vdW (tier 2 basis)
C    -1.662345  -0.663616  1.151560
C    -1.173437  -0.788315  2.579642
O    -1.493949  -1.756581  3.290026
H    -1.404505  -1.584792  0.614291
H    -1.234697  0.198342  0.627452
H    -2.757623  -0.586373  1.154710
N    -0.372022  0.216842  3.015503
C    0.196598  0.201240  4.363634
C    -0.793720  0.806742  5.398689
O    -0.576581  1.856766  6.005076
H    -0.321527  1.082000  2.444900
H    0.299242  -0.863595  4.623909
C    1.580248  0.857562  4.443706
C    1.695596  2.260080  3.820965
C    2.153707  2.230232  2.350398
N    1.798926  3.419976  1.587685
C    0.505193  3.606848  1.167010
N    0.274292  4.813413  0.510372
N    -0.376647  2.665904  1.318389
H    2.311672  0.180316  3.974161
H    1.840428  0.909224  5.508599
H    2.404272  2.865248  4.404890
H    0.730056  2.776536  3.895763
H    1.713702  1.373853  1.824332
H    3.244739  2.108726  2.289064
H    2.348711  4.252962  1.761287
H    -0.678778  5.153247  0.557474
H    0.963015  5.549616  0.623664
H    -1.258269  2.910483  0.864262
N    -1.904690  0.040062  5.559973
C    -3.008156  0.428058  6.412813
H    -1.975267  -0.795005  4.969563
H    -2.705155  1.316918  6.976818
H    -3.259276  -0.376264  7.118050
H    -3.907350  0.670762  5.826232
