35
Energy: -21190.1588635 eV PBE+vdW (tier 2 basis)
C    -1.909812  -0.007571  -0.002375
C    -1.338128  0.213067  1.386822
O    -0.202611  0.637203  1.572341
H    -1.363508  -0.832997  -0.477085
H    -1.730675  0.890914  -0.604084
H    -2.981526  -0.242260  -0.013060
N    -2.187655  -0.080146  2.423477
C    -1.787889  -0.081076  3.830425
C    -0.893257  1.133569  4.202822
O    0.186875  0.984071  4.773330
H    -3.089813  -0.483405  2.200675
H    -2.722764  0.038188  4.406787
C    -1.112096  -1.394486  4.248801
C    -1.107542  -1.625003  5.772837
C    0.141201  -2.348686  6.275142
N    1.321122  -1.530373  6.032228
C    2.529184  -1.685650  6.679358
N    2.700345  -2.932111  7.296655
N    3.472007  -0.807911  6.781717
H    -0.087032  -1.383103  3.855692
H    -1.637691  -2.220522  3.748423
H    -1.995191  -2.204390  6.066964
H    -1.172972  -0.662819  6.302707
H    0.222898  -3.326543  5.760517
H    0.033411  -2.565577  7.350844
H    1.140255  -0.605615  5.640352
H    3.663637  -3.036139  7.602561
H    2.381431  -3.732281  6.757004
H    3.172392  0.093368  6.399727
N    -1.396120  2.383688  3.993939
C    -2.602477  2.789057  3.297873
H    -0.723225  3.108866  4.223602
H    -2.866188  3.803010  3.620924
H    -3.444148  2.133979  3.552714
H    -2.482091  2.791702  2.203380
