35
Energy: -21190.5138777 eV PBE+vdW (tier 2 basis)
C    0.150296  1.056575  0.303599
C    0.179913  0.282005  1.606511
O    1.223896  -0.212698  2.047783
H    -0.858131  1.345584  -0.015336
H    0.619086  0.448383  -0.478789
H    0.760267  1.962417  0.421675
N    -1.004494  0.205038  2.265434
C    -1.208242  -0.481881  3.526383
C    -2.729812  -0.424302  3.778835
O    -3.459884  0.334837  3.138022
H    -1.849836  0.646386  1.902984
H    -0.910557  -1.538574  3.407952
C    -0.402166  0.079015  4.726204
C    -0.553904  1.575081  5.032299
C    0.304358  2.517450  4.153414
N    1.701678  2.148201  4.029052
C    2.715284  2.473341  4.910344
N    2.354835  3.354459  5.937642
N    3.950316  2.104379  4.822955
H    0.656250  -0.157154  4.556172
H    -0.699171  -0.500280  5.613590
H    -0.269899  1.722635  6.086590
H    -1.607275  1.890452  4.956548
H    0.245655  3.539970  4.552208
H    -0.119674  2.565471  3.142459
H    1.915415  1.400749  3.373162
H    3.132759  3.460024  6.582620
H    1.485578  3.146514  6.420183
H    4.115818  1.572922  3.963701
N    -3.184911  -1.252704  4.753256
C    -4.576019  -1.303188  5.164923
H    -2.518420  -1.857800  5.218099
H    -4.986819  -2.313992  5.039279
H    -5.135611  -0.609610  4.529524
H    -4.691629  -0.998887  6.214474
