35
Energy: -21190.3270508 eV PBE+vdW (tier 2 basis)
C    -0.688326  0.852321  0.461807
C    -1.313738  1.531130  1.664458
O    -0.895372  2.596734  2.108836
H    0.256800  1.355213  0.240324
H    -1.352554  0.954864  -0.409553
H    -0.519809  -0.222391  0.613165
N    -2.388332  0.901143  2.254968
C    -3.098873  -0.261616  1.753744
C    -4.124180  0.131031  0.668628
O    -4.781010  1.165678  0.764129
H    -2.901853  1.513773  2.885000
H    -2.355446  -0.955018  1.343612
C    -3.858218  -0.946004  2.911080
C    -2.961022  -1.489757  4.035044
C    -2.566166  -2.970084  3.892395
N    -1.904578  -3.354650  2.651050
C    -0.698583  -2.850609  2.202200
N    0.247305  -2.593539  3.180611
N    -0.526261  -2.725128  0.922654
H    -4.485973  -1.751305  2.496197
H    -4.563570  -0.204388  3.315934
H    -3.479365  -1.389038  5.000781
H    -2.061300  -0.859781  4.109717
H    -3.465857  -3.598164  3.962626
H    -1.943462  -3.269653  4.751684
H    -2.511047  -3.575977  1.869122
H    0.956316  -1.910812  2.946311
H    -0.048725  -2.566546  4.148785
H    0.447542  -2.508384  0.696736
N    -4.278440  -0.723793  -0.386637
C    -3.675393  -2.031289  -0.597274
H    -5.026589  -0.441920  -1.014146
H    -4.216362  -2.832437  -0.064170
H    -3.705731  -2.265204  -1.667709
H    -2.622383  -2.056495  -0.287149
