35
Energy: -21190.0541146 eV PBE+vdW (tier 2 basis)
C    0.005398  -0.578770  -0.001545
C    0.053558  -0.222087  1.472805
O    1.101071  0.060852  2.047038
H    0.473779  0.230015  -0.575151
H    -1.008133  -0.748764  -0.385638
H    0.604721  -1.483803  -0.162585
N    -1.160062  -0.223033  2.118040
C    -1.242597  -0.085260  3.576408
C    -2.545093  -0.707282  4.106535
O    -2.505750  -1.599068  4.948932
H    -1.943008  -0.653720  1.639701
H    -0.450004  -0.706126  4.017836
C    -1.006114  1.363115  4.053737
C    -1.016302  1.497870  5.576751
C    -0.603201  2.908056  6.027888
N    -0.541391  3.116415  7.465350
C    0.358559  2.471805  8.306175
N    1.627078  2.255382  7.769198
N    -0.009892  2.223128  9.517583
H    -1.743474  2.043559  3.603611
H    -0.023696  1.660247  3.659443
H    -0.332935  0.756375  6.019734
H    -2.012297  1.266419  5.986506
H    -1.310299  3.649975  5.627021
H    0.367220  3.175233  5.576791
H    -1.437867  3.201139  7.936015
H    2.159454  1.524862  8.225023
H    1.723075  2.243372  6.759796
H    0.766813  1.866018  10.079344
N    -3.750665  -0.277629  3.602383
C    -4.075299  0.921467  2.842198
H    -4.527826  -0.748407  4.059279
H    -4.268334  1.790518  3.491393
H    -4.974974  0.732919  2.243260
H    -3.264676  1.181502  2.154469
