35
Energy: -21190.1319833 eV PBE+vdW (tier 2 basis)
C    0.257718  -1.011293  0.076583
C    0.056230  0.010835  1.184092
O    0.811067  0.975439  1.306970
H    0.188450  -0.497092  -0.890203
H    -0.459117  -1.841416  0.091161
H    1.273629  -1.416451  0.158939
N    -1.005537  -0.245043  2.006814
C    -1.481682  0.505610  3.180602
C    -2.677664  1.418805  2.789209
O    -3.819469  1.041584  3.072067
H    -1.588543  -1.033370  1.751494
H    -1.991175  -0.253169  3.791236
C    -0.371247  1.107400  4.063379
C    -0.769387  1.253790  5.538046
C    -1.913567  2.229072  5.850130
N    -1.704523  3.568072  5.303278
C    -0.927089  4.489278  5.980041
N    -0.986664  5.768275  5.397062
N    -0.276700  4.149825  7.039591
H    -0.017275  2.068180  3.677822
H    0.491766  0.429985  4.006531
H    0.116591  1.581562  6.098865
H    -1.053067  0.270289  5.948072
H    -2.025524  2.291329  6.943562
H    -2.860988  1.860185  5.436959
H    -2.492403  3.960609  4.802046
H    -0.283380  6.406628  5.753742
H    -1.004343  5.770560  4.379826
H    0.312507  4.915072  7.374854
N    -2.491583  2.589623  2.116402
C    -1.282556  3.297895  1.726418
H    -3.379511  3.044449  1.921277
H    -1.465412  3.813783  0.775507
H    -0.445371  2.606740  1.579692
H    -0.989260  4.045540  2.481768
