35
Energy: -21190.2907173 eV PBE+vdW (tier 2 basis)
C    -0.170704  -0.327301  0.069212
C    -0.154899  -0.396039  1.583618
O    0.822295  -0.796276  2.213062
H    0.637150  0.337596  -0.260614
H    -1.119885  0.030015  -0.349163
H    0.044818  -1.325199  -0.332155
N    -1.311965  0.003029  2.200902
C    -1.449801  0.057560  3.649934
C    -2.724853  -0.683645  4.110492
O    -3.617194  -0.121891  4.745088
H    -2.081882  0.328297  1.627728
H    -0.581677  -0.508387  4.023754
C    -1.348688  1.487156  4.226798
C    -1.959806  2.628958  3.404636
C    -3.468877  2.564559  3.176394
N    -3.920400  3.761382  2.484461
C    -5.250863  3.894732  2.101362
N    -5.459364  5.015552  1.285464
N    -6.242033  3.128530  2.397251
H    -0.279333  1.708344  4.350886
H    -1.796104  1.469840  5.229617
H    -1.445834  2.689786  2.429340
H    -1.731393  3.572680  3.923122
H    -3.989006  2.481027  4.140825
H    -3.743812  1.652453  2.610525
H    -3.258428  4.146151  1.815621
H    -6.454048  5.165275  1.140176
H    -4.995689  5.860240  1.610747
H    -5.935507  2.288676  2.893877
N    -2.815118  -2.009832  3.796277
C    -1.852168  -2.871424  3.129672
H    -3.687488  -2.426121  4.107584
H    -1.999365  -2.898277  2.038830
H    -1.960729  -3.890783  3.518831
H    -0.823673  -2.547031  3.324671
