35
Energy: -21190.2932672 eV PBE+vdW (tier 2 basis)
C    -0.379072  -0.894865  0.216727
C    -0.412954  -0.756967  1.726939
O    0.471604  -1.237267  2.439828
H    0.658363  -1.063896  -0.085437
H    -0.778222  -0.015904  -0.305707
H    -0.967323  -1.770170  -0.093830
N    -1.457459  -0.066567  2.275900
C    -2.744228  0.229036  1.680722
C    -3.480095  1.141546  2.683441
O    -3.210776  1.136399  3.882031
H    -1.446465  0.020891  3.295001
H    -2.597544  0.805452  0.752748
C    -3.608894  -1.035635  1.326617
C    -3.277172  -2.314412  2.104302
C    -3.527639  -2.266002  3.618864
N    -3.026644  -3.454179  4.299633
C    -1.965488  -3.453703  5.203906
N    -1.031238  -2.443202  5.008998
N    -1.807780  -4.285894  6.180947
H    -3.481885  -1.242591  0.254498
H    -4.671959  -0.778819  1.458808
H    -2.226821  -2.595267  1.943543
H    -3.866950  -3.137285  1.670668
H    -4.607591  -2.158732  3.814458
H    -3.049036  -1.389972  4.072446
H    -3.702114  -4.186361  4.479910
H    -0.267152  -2.540072  5.670756
H    -0.684700  -2.274222  4.063606
H    -2.643083  -4.863904  6.312740
N    -4.455778  1.915051  2.134267
C    -5.315842  2.778063  2.924279
H    -4.591312  1.878531  1.131002
H    -5.227130  3.824275  2.602285
H    -4.994289  2.699030  3.967631
H    -6.367659  2.468802  2.849438
