35
Energy: -21190.6794486 eV PBE+vdW (tier 2 basis)
C    1.042777  0.801927  0.355558
C    0.805283  1.091438  1.822523
O    1.370247  2.037383  2.392866
H    0.477341  -0.059903  -0.017872
H    2.114143  0.622180  0.202013
H    0.773892  1.690771  -0.228599
N    -0.049424  0.257121  2.460127
C    -0.384356  0.394186  3.868166
C    -0.912326  -0.981568  4.301151
O    -1.600966  -1.642395  3.515085
H    -0.536309  -0.492614  1.973036
H    0.532728  0.660250  4.405172
C    -1.474389  1.486940  4.093080
C    -1.402400  2.253549  5.421474
C    -0.407272  3.430605  5.417261
N    0.988803  3.094607  5.151189
C    1.756389  2.329483  6.010310
N    1.408259  2.410211  7.362593
N    2.725589  1.540128  5.671363
H    -2.458735  1.011174  3.978007
H    -1.384903  2.203643  3.263084
H    -1.171115  1.578787  6.257929
H    -2.397802  2.671509  5.639895
H    -0.487814  3.973795  6.370799
H    -0.705604  4.149066  4.639000
H    1.181362  2.877598  4.167121
H    2.150029  2.022686  7.938592
H    1.115698  3.329499  7.680605
H    2.818881  1.507325  4.651673
N    -0.640081  -1.427487  5.553096
C    0.251175  -0.881732  6.569609
H    -1.094185  -2.314274  5.753678
H    0.684282  -1.714890  7.135708
H    -0.271749  -0.219729  7.274153
H    1.080625  -0.320665  6.123302
