35
Energy: -21190.5791506 eV PBE+vdW (tier 2 basis)
C    -0.451796  -0.598675  -0.099057
C    -0.256777  -0.216387  1.354565
O    0.845262  -0.180169  1.892625
H    0.532790  -0.781557  -0.536198
H    -0.958181  0.197320  -0.662956
H    -1.065527  -1.505426  -0.199266
N    -1.392179  0.123999  2.066765
C    -2.774767  0.000053  1.634651
C    -3.397486  1.279878  1.053742
O    -4.531354  1.238161  0.559843
H    -1.213639  0.275548  3.057290
H    -2.810224  -0.721419  0.806693
C    -3.660638  -0.565683  2.763587
C    -3.610027  -2.092332  2.890317
C    -4.391229  -2.838689  1.799172
N    -3.778390  -2.766072  0.466415
C    -4.512496  -2.473914  -0.688037
N    -5.448649  -1.456799  -0.539003
N    -4.258443  -3.169134  -1.747472
H    -4.696773  -0.250104  2.576802
H    -3.361489  -0.090798  3.712971
H    -4.043023  -2.379581  3.860847
H    -2.564688  -2.441951  2.909357
H    -5.406452  -2.426113  1.724969
H    -4.500892  -3.895403  2.094688
H    -3.155652  -3.541739  0.253904
H    -5.165399  -0.616041  -0.021812
H    -5.920213  -1.218600  -1.404336
H    -4.725234  -2.774447  -2.568472
N    -2.633535  2.393889  1.105623
C    -3.050193  3.672696  0.564295
H    -1.707180  2.286478  1.507937
H    -3.048405  4.448240  1.342015
H    -4.067908  3.556256  0.177158
H    -2.389931  3.990540  -0.254469
