35
Energy: -21190.1252158 eV PBE+vdW (tier 2 basis)
C    -0.196775  -0.492896  0.613627
C    -0.231438  -0.342408  2.121125
O    0.791098  -0.379246  2.801002
H    -0.826392  0.237808  0.090839
H    -0.545433  -1.497374  0.335871
H    0.840002  -0.376200  0.287475
N    -1.453051  -0.167666  2.730237
C    -2.788980  -0.085903  2.152445
C    -3.106044  -1.352643  1.305852
O    -2.826447  -2.467547  1.732437
H    -1.385418  -0.203727  3.741607
H    -3.468441  -0.194469  3.012726
C    -3.117287  1.280347  1.510827
C    -2.810590  2.501444  2.395608
C    -1.371681  3.041350  2.265299
N    -1.157924  4.327463  2.900014
C    -1.608329  5.516565  2.343278
N    -1.449063  6.604623  3.209030
N    -2.131486  5.708615  1.180152
H    -4.193275  1.286286  1.276707
H    -2.585878  1.399000  0.551498
H    -3.016621  2.264949  3.452211
H    -3.501478  3.313315  2.126860
H    -1.109917  3.141072  1.199639
H    -0.648646  2.335142  2.690663
H    -1.103143  4.318924  3.913125
H    -1.651519  7.474967  2.725243
H    -0.552306  6.637880  3.687331
H    -2.307542  4.827901  0.692187
N    -3.728939  -1.141814  0.111697
C    -4.113133  -2.230303  -0.768222
H    -3.888770  -0.190595  -0.193922
H    -5.182808  -2.179639  -1.011738
H    -3.906854  -3.168349  -0.242776
H    -3.534325  -2.212413  -1.702711
