35
Energy: -21190.3464883 eV PBE+vdW (tier 2 basis)
C    0.111334  -1.562247  -0.365224
C    -0.270889  -1.948489  1.051190
O    -0.177383  -3.105141  1.465562
H    1.159036  -1.838806  -0.536172
H    -0.018113  -0.494734  -0.581047
H    -0.498768  -2.146200  -1.065507
N    -0.723515  -0.927101  1.834068
C    -1.165074  -1.138804  3.200126
C    -2.250303  -0.087386  3.469314
O    -2.136358  1.045736  2.995144
H    -0.829022  0.020368  1.481038
H    -1.548342  -2.166803  3.253052
C    0.015626  -0.997365  4.190056
C    -0.302061  -1.300595  5.653440
C    0.934306  -1.209902  6.558828
N    1.501926  0.133520  6.624008
C    2.828540  0.438850  6.361662
N    3.418677  -0.351917  5.369435
N    3.393763  1.376177  7.045575
H    0.413288  0.025094  4.100837
H    0.790157  -1.694458  3.832257
H    -0.720239  -2.315931  5.748539
H    -1.066589  -0.602927  6.031050
H    1.712397  -1.898053  6.201146
H    0.665908  -1.546242  7.573880
H    1.156479  0.725415  7.373066
H    4.336157  -0.028470  5.084985
H    2.828379  -0.583069  4.574836
H    4.312866  1.614722  6.664957
N    -3.320548  -0.420970  4.243299
C    -3.674268  -1.691127  4.853444
H    -3.948779  0.363626  4.396000
H    -4.757561  -1.845050  4.771733
H    -3.394650  -1.735669  5.916676
H    -3.181558  -2.519324  4.335374
