35
Energy: -21190.2043278 eV PBE+vdW (tier 2 basis)
C    0.551257  -0.200835  0.674061
C    0.485774  -0.326621  2.184615
O    1.505479  -0.436678  2.870099
H    0.351388  -1.172985  0.201098
H    1.565030  0.105914  0.402582
H    -0.172615  0.522246  0.275546
N    -0.750505  -0.301516  2.766378
C    -2.032525  -0.542343  2.138664
C    -3.098385  -0.207638  3.197074
O    -2.843558  -0.249816  4.399105
H    -0.768067  -0.368657  3.786521
H    -2.156410  0.147781  1.290848
C    -2.236114  -2.008901  1.598552
C    -1.307676  -3.072350  2.195799
C    -1.500301  -3.363496  3.691753
N    -0.477037  -4.259708  4.216457
C    0.477521  -3.894795  5.165221
N    0.815864  -2.546962  5.166312
N    1.033461  -4.691380  6.018714
H    -2.092170  -1.993299  0.509032
H    -3.284855  -2.303640  1.760831
H    -0.255992  -2.797362  2.034736
H    -1.454424  -4.005543  1.629496
H    -2.497084  -3.805033  3.858350
H    -1.476047  -2.440282  4.282763
H    -0.719715  -5.241845  4.255706
H    1.019861  -2.093067  4.274488
H    1.548319  -2.370178  5.847043
H    0.575096  -5.607382  6.022381
N    -4.345994  0.097004  2.739178
C    -4.772813  0.303918  1.363874
H    -5.010911  0.287374  3.481847
H    -4.649734  -0.598484  0.749131
H    -4.235781  1.134361  0.881456
H    -5.838130  0.555834  1.370316
