35
Energy: -21190.4062804 eV PBE+vdW (tier 2 basis)
C    0.247006  -0.735251  0.563520
C    -0.393916  -0.867818  1.930599
O    -0.162610  -1.834292  2.668395
H    1.330799  -0.618778  0.697562
H    -0.131911  0.111699  -0.020570
H    0.083633  -1.664373  0.005006
N    -1.215120  0.149169  2.292032
C    -1.857162  0.260426  3.588583
C    -2.693074  1.548693  3.519432
O    -2.457888  2.413705  2.671187
H    -1.313784  0.985255  1.716148
H    -2.523390  -0.606514  3.725934
C    -0.868271  0.283072  4.788528
C    0.377313  1.136960  4.567980
C    1.391245  1.031266  5.713927
N    1.724393  -0.338734  6.145069
C    2.683248  -1.126658  5.485074
N    2.515696  -1.204525  4.109340
N    3.656055  -1.761591  6.050194
H    -0.564981  -0.750319  4.992199
H    -1.407042  0.628977  5.683906
H    0.112155  2.199499  4.449014
H    0.871584  0.842998  3.633589
H    0.977161  1.526767  6.604530
H    2.300993  1.589081  5.430642
H    1.866535  -0.391659  7.148067
H    3.192272  -1.849657  3.711003
H    1.567587  -1.400005  3.778983
H    3.755902  -1.483972  7.031073
N    -3.690218  1.712480  4.432030
C    -4.133973  0.811667  5.481810
H    -4.152456  2.613441  4.354110
H    -5.212739  0.939210  5.631283
H    -3.625845  0.997750  6.440531
H    -3.960096  -0.232401  5.199380
