35
Energy: -21189.9526729 eV PBE+vdW (tier 2 basis)
C    -1.085737  1.227228  0.657719
C    -0.670120  0.995051  2.095913
O    0.481544  1.189357  2.486184
H    -2.064359  0.799766  0.407519
H    -0.324080  0.801917  -0.004908
H    -1.117692  2.310056  0.476817
N    -1.659111  0.565849  2.934129
C    -1.477370  0.454914  4.380893
C    -0.815374  1.761221  4.913079
O    -1.460706  2.798914  4.771858
H    -2.605584  0.535551  2.577273
H    -2.486633  0.580458  4.798264
C    -1.005001  -0.946800  4.838682
C    0.001190  -1.685487  3.953326
C    0.443522  -3.032635  4.541435
N    -0.628813  -3.998902  4.805730
C    -1.480530  -4.478979  3.810982
N    -0.873481  -4.645696  2.568168
N    -2.730001  -4.773712  3.942677
H    -1.912106  -1.568347  4.902362
H    -0.634831  -0.862930  5.873353
H    0.896538  -1.077662  3.773483
H    -0.447229  -1.863521  2.965874
H    0.961426  -2.879494  5.500612
H    1.187072  -3.490494  3.873081
H    -1.122055  -3.841599  5.677950
H    -1.478066  -5.162364  1.936987
H    0.077051  -5.002770  2.586112
H    -3.086484  -4.480813  4.856672
N    0.338246  1.764025  5.652850
C    1.505367  0.895585  5.547950
H    0.538217  2.717164  5.945049
H    1.792207  0.741655  4.499590
H    2.333042  1.386609  6.071020
H    1.345215  -0.076543  6.031950
