35
Energy: -21190.0499097 eV PBE+vdW (tier 2 basis)
C    -0.200573  1.610184  -1.044356
C    -0.491038  1.493332  0.442072
O    -0.365884  2.458876  1.196525
H    -0.609877  0.789453  -1.646736
H    0.890114  1.629742  -1.180663
H    -0.598496  2.563156  -1.408809
N    -0.857846  0.238003  0.847251
C    -1.062330  -0.317701  2.193624
C    -2.551304  -0.576716  2.547639
O    -2.872125  -1.707958  2.916994
H    -0.937050  -0.448848  0.106586
H    -0.680583  -1.347245  2.136109
C    -0.319992  0.360329  3.364797
C    1.180626  0.049252  3.468491
C    2.059756  0.638486  2.366406
N    3.470254  0.454144  2.694374
C    4.486850  0.818891  1.822878
N    4.180814  1.909243  1.002757
N    5.578943  0.131377  1.818263
H    -0.799030  -0.027399  4.275670
H    -0.481826  1.443916  3.351652
H    1.322569  -1.044544  3.507306
H    1.540111  0.440602  4.433039
H    1.834653  1.710918  2.280054
H    1.813921  0.182743  1.389948
H    3.700580  -0.436457  3.128865
H    4.991602  2.336688  0.570014
H    3.537974  2.596390  1.386814
H    6.289335  0.559235  1.219175
N    -3.471627  0.424716  2.480945
C    -3.337775  1.815795  2.083915
H    -4.401816  0.096054  2.724749
H    -3.993868  2.432304  2.711130
H    -3.618559  1.971618  1.030109
H    -2.311916  2.173917  2.212153
