35
Energy: -21190.4602449 eV PBE+vdW (tier 2 basis)
C    0.084727  -0.155149  -0.130129
C    0.087888  -0.128089  1.386578
O    1.126648  -0.197569  2.044582
H    0.693546  0.679542  -0.499319
H    -0.917880  -0.088632  -0.569635
H    0.564493  -1.082728  -0.466180
N    -1.139389  -0.009423  1.972583
C    -1.315463  -0.060099  3.407778
C    -2.763764  -0.515067  3.660884
O    -3.612548  -0.491046  2.768082
H    -2.002487  -0.069285  1.435503
H    -0.611248  -0.804866  3.813844
C    -1.008079  1.294190  4.093345
C    -1.943018  2.428731  3.677697
C    -1.549528  3.762149  4.306064
N    -2.458631  4.817722  3.860660
C    -2.455897  6.102214  4.397992
N    -1.222313  6.508943  4.902132
N    -3.459249  6.910351  4.468780
H    0.033840  1.542382  3.844465
H    -1.041576  1.156489  5.186163
H    -2.980214  2.185247  3.964815
H    -1.936801  2.529871  2.581781
H    -0.519427  4.005955  3.999544
H    -1.540434  3.676318  5.408477
H    -3.394996  4.491204  3.643774
H    -1.226055  7.503747  5.105528
H    -0.405414  6.215889  4.375081
H    -4.329288  6.451695  4.185314
N    -3.028676  -0.901907  4.936775
C    -4.347716  -1.313035  5.382369
H    -2.260985  -0.930303  5.597331
H    -4.693907  -0.689529  6.217873
H    -4.351440  -2.365653  5.697485
H    -5.034186  -1.194588  4.538003
