35
Energy: -21190.464867 eV PBE+vdW (tier 2 basis)
C    -0.309320  -0.321166  -0.263374
C    -0.202350  0.111629  1.183147
O    0.840535  0.588957  1.646384
H    0.463820  -1.071971  -0.467751
H    -0.101492  0.544834  -0.904245
H    -1.290351  -0.733395  -0.529052
N    -1.325515  -0.051978  1.938282
C    -1.399853  0.378368  3.338353
C    -0.819929  -0.722315  4.269402
O    -1.517608  -1.478302  4.946354
H    -2.127967  -0.511434  1.525387
H    -0.711908  1.235125  3.399037
C    -2.798254  0.893200  3.717738
C    -3.959771  -0.090399  3.945978
C    -4.236176  -1.089308  2.812089
N    -5.450127  -1.868175  2.982502
C    -6.705217  -1.345382  2.690412
N    -7.738814  -2.195335  3.097415
N    -6.997124  -0.228723  2.115980
H    -3.078888  1.622941  2.940474
H    -2.678050  1.475958  4.642690
H    -4.867761  0.509274  4.111147
H    -3.774483  -0.662937  4.862542
H    -3.404618  -1.806779  2.739136
H    -4.314378  -0.574052  1.838833
H    -5.434549  -2.518855  3.762381
H    -8.633700  -1.862146  2.750668
H    -7.588992  -3.178888  2.888440
H    -6.174160  0.365458  1.995656
N    0.538987  -0.756591  4.238592
C    1.308186  -1.771615  4.930842
H    0.993163  -0.171370  3.532491
H    2.146356  -1.315126  5.473187
H    1.708689  -2.522947  4.233394
H    0.646879  -2.273757  5.644661
