35
Energy: -21190.116164 eV PBE+vdW (tier 2 basis)
C    0.076723  0.197109  0.122660
C    -0.244343  0.492559  1.578195
O    0.564255  1.034932  2.326737
H    0.836786  -0.595024  0.086482
H    0.516126  1.093408  -0.329754
H    -0.788872  -0.121646  -0.471373
N    -1.494023  0.108094  1.983593
C    -2.012811  0.195370  3.352271
C    -1.605866  1.499858  4.088788
O    -1.145200  1.470917  5.224544
H    -2.071444  -0.381063  1.310264
H    -3.109102  0.268209  3.237374
C    -1.737673  -1.050165  4.214352
C    -0.264828  -1.430612  4.443432
C    0.314200  -2.374261  3.380114
N    1.739127  -2.627778  3.549975
C    2.170806  -3.624439  4.408589
N    3.558272  -3.572876  4.623785
N    1.339753  -4.458432  4.935378
H    -2.277187  -1.898597  3.760228
H    -2.217540  -0.863590  5.184045
H    -0.177278  -1.934904  5.415486
H    0.342253  -0.518354  4.505838
H    0.166250  -1.972881  2.368192
H    -0.186665  -3.349909  3.428995
H    2.316626  -1.791539  3.552427
H    3.929838  -4.400049  5.078072
H    4.106606  -3.315827  3.806538
H    1.831518  -5.191158  5.451630
N    -1.906956  2.693081  3.487416
C    -2.437420  2.966050  2.166296
H    -1.567144  3.483089  4.026750
H    -1.666926  2.936603  1.379280
H    -2.886613  3.966592  2.171076
H    -3.228914  2.253928  1.902387
