35
Energy: -21190.1755649 eV PBE+vdW (tier 2 basis)
C    0.216958  1.005747  0.725602
C    -0.123571  0.698106  2.165847
O    0.692372  0.917490  3.069929
H    1.263305  0.718679  0.573943
H    0.161019  2.093025  0.566230
H    -0.411642  0.480762  0.002636
N    -1.352898  0.180457  2.498681
C    -2.613364  0.082394  1.761933
C    -2.630732  -1.084602  0.747003
O    -1.668550  -1.393578  0.052414
H    -1.422443  0.043989  3.503302
H    -3.355678  -0.164376  2.537389
C    -3.071827  1.407573  1.096504
C    -3.841243  2.369805  2.022645
C    -3.223806  2.695861  3.382575
N    -1.911597  3.305942  3.274578
C    -1.258556  3.715894  4.431290
N    0.131883  3.733190  4.281955
N    -1.953323  4.086187  5.454559
H    -3.722902  1.164417  0.243817
H    -2.198978  1.903933  0.653800
H    -4.839180  1.945345  2.218659
H    -4.009559  3.307296  1.471083
H    -3.191426  1.786928  4.019045
H    -3.874450  3.397971  3.918643
H    -1.295785  2.909892  2.575788
H    0.620520  3.982137  5.135452
H    0.525796  2.887424  3.859559
H    -1.342625  4.338494  6.234698
N    -3.840910  -1.714295  0.669366
C    -4.115812  -2.772518  -0.285285
H    -4.581026  -1.421700  1.295844
H    -4.912348  -2.482642  -0.984785
H    -4.409032  -3.699718  0.225370
H    -3.194337  -2.953543  -0.848351
