35
Energy: -21190.2821638 eV PBE+vdW (tier 2 basis)
C    0.174569  0.586928  -0.100697
C    -0.279078  0.953007  1.302628
O    -0.498036  2.114543  1.640512
H    1.106768  1.123158  -0.317400
H    -0.576936  0.938613  -0.818784
H    0.335453  -0.488258  -0.246240
N    -0.456925  -0.108991  2.144400
C    -0.734500  0.020909  3.573107
C    -1.778119  1.106625  3.932264
O    -1.556555  1.931727  4.814423
H    -0.139118  -1.031401  1.846093
H    -1.207624  -0.934760  3.851438
C    0.556519  0.212875  4.393696
C    0.553160  -0.417842  5.791871
C    0.236777  -1.926162  5.841274
N    0.972215  -2.725835  4.846849
C    0.423955  -3.062438  3.614798
N    -0.906785  -3.475332  3.669706
N    1.006148  -3.015606  2.458474
H    0.746030  1.289491  4.487911
H    1.381973  -0.207842  3.801726
H    -0.168297  0.103463  6.438562
H    1.543114  -0.246405  6.244886
H    -0.832612  -2.098852  5.672137
H    0.458474  -2.311622  6.847534
H    1.949337  -2.459274  4.760685
H    -1.200420  -3.876203  2.784175
H    -1.148960  -4.057208  4.466130
H    1.924642  -2.568338  2.528163
N    -3.009617  1.023346  3.342863
C    -3.454432  0.165294  2.260954
H    -3.607966  1.802334  3.599027
H    -4.549591  0.109694  2.288306
H    -3.067440  -0.853093  2.384898
H    -3.148013  0.533898  1.269336
