35
Energy: -21190.8836346 eV PBE+vdW (tier 2 basis)
C    1.009169  -0.073174  0.884794
C    0.308922  -0.821171  2.005162
O    0.933826  -1.371908  2.915476
H    1.695326  -0.762396  0.376961
H    1.615932  0.730133  1.321185
H    0.321426  0.357660  0.146880
N    -1.049751  -0.836906  1.937120
C    -1.870742  -1.549611  2.894978
C    -3.192385  -1.874388  2.178860
O    -3.598789  -1.161042  1.251413
H    -1.565927  -0.429246  1.159470
H    -1.347098  -2.478797  3.161513
C    -2.094577  -0.697542  4.173060
C    -2.734259  -1.442942  5.348509
C    -1.823392  -2.539920  5.925711
N    -2.507429  -3.521579  6.755035
C    -3.193517  -4.572867  6.201567
N    -3.801651  -5.389251  7.159247
N    -3.260944  -4.733527  4.914564
H    -2.708392  0.173060  3.898625
H    -1.107106  -0.313073  4.469158
H    -3.687321  -1.894262  5.038858
H    -2.980899  -0.719906  6.141634
H    -1.019654  -2.091330  6.526312
H    -1.334963  -3.101375  5.120729
H    -2.824914  -3.218424  7.668808
H    -4.216662  -6.236101  6.787534
H    -3.253046  -5.563296  7.996824
H    -3.664322  -5.643306  4.682060
N    -3.862275  -2.947629  2.645221
C    -5.161940  -3.310090  2.112527
H    -3.487280  -3.518191  3.422685
H    -5.608774  -4.062218  2.772212
H    -5.084577  -3.726116  1.096982
H    -5.821906  -2.433880  2.062489
