35
Energy: -21190.473579 eV PBE+vdW (tier 2 basis)
C    -1.382649  2.441089  0.758688
C    -0.379794  1.385012  1.176299
O    0.789371  1.642667  1.440372
H    -0.896357  3.417361  0.824570
H    -2.278882  2.434528  1.393976
H    -1.716656  2.279151  -0.276288
N    -0.843714  0.084686  1.263190
C    -2.157459  -0.420840  0.887213
C    -3.255079  -0.154182  1.938467
O    -4.446889  -0.149751  1.616419
H    -0.106768  -0.593344  1.442376
H    -2.506044  0.091092  -0.021388
C    -2.028590  -1.933746  0.593393
C    -3.310066  -2.654161  0.163630
C    -3.883042  -2.168314  -1.180908
N    -5.139613  -2.783485  -1.558426
C    -6.396701  -2.380425  -1.106829
N    -6.436389  -1.142318  -0.487395
N    -7.499950  -3.026434  -1.306174
H    -1.625508  -2.421754  1.495960
H    -1.261840  -2.041185  -0.191505
H    -4.081010  -2.558401  0.940399
H    -3.085630  -3.729209  0.083201
H    -3.150441  -2.359600  -1.982067
H    -4.040404  -1.081426  -1.167121
H    -5.099789  -3.759232  -1.827429
H    -7.367298  -0.948086  -0.134631
H    -5.695587  -0.878831  0.163043
H    -7.344504  -3.856097  -1.885444
N    -2.814917  0.037015  3.204597
C    -3.701367  0.283353  4.325853
H    -1.809302  0.090025  3.333647
H    -3.541283  -0.457064  5.120809
H    -4.731275  0.203079  3.963033
H    -3.546392  1.288813  4.741140
