35
Energy: -21190.5012765 eV PBE+vdW (tier 2 basis)
C    -2.744402  -2.011371  1.314447
C    -2.935074  -2.186340  2.807364
O    -3.744538  -3.005909  3.260909
H    -2.504750  -2.985867  0.872215
H    -1.962861  -1.290829  1.045377
H    -3.695810  -1.680452  0.878710
N    -2.163436  -1.390697  3.598100
C    -2.223170  -1.265342  5.062604
C    -1.656239  -2.468883  5.859606
O    -0.855196  -2.265788  6.772472
H    -1.498891  -0.788000  3.129221
H    -1.520733  -0.459604  5.306258
C    -3.622169  -0.881668  5.594195
C    -4.250163  0.346707  4.929345
C    -3.433274  1.629543  5.076277
N    -4.122274  2.748862  4.460307
C    -3.499519  3.984490  4.313607
N    -4.370827  4.959179  3.816462
N    -2.277993  4.297140  4.577439
H    -3.506057  -0.712636  6.675623
H    -4.302766  -1.733980  5.476322
H    -5.245371  0.500352  5.377714
H    -4.424099  0.153275  3.860191
H    -2.462762  1.520786  4.567387
H    -3.210523  1.812377  6.146259
H    -5.117057  2.804367  4.661311
H    -4.955402  4.653197  3.043149
H    -3.868070  5.815781  3.602992
H    -1.794553  3.547083  5.076276
N    -2.135808  -3.685408  5.503631
C    -1.734596  -4.905149  6.175703
H    -2.836472  -3.712338  4.754856
H    -2.574668  -5.352294  6.727184
H    -0.939241  -4.657707  6.886670
H    -1.358236  -5.642879  5.453817
