35
Energy: -21189.8122165 eV PBE+vdW (tier 2 basis)
C    -0.107806  -0.571776  0.404908
C    -0.191324  -0.401358  1.910035
O    0.789585  -0.557653  2.632892
H    -0.701481  -1.435905  0.076719
H    0.940089  -0.743209  0.146119
H    -0.468471  0.313736  -0.134579
N    -1.406398  -0.068534  2.460704
C    -2.713111  0.126886  1.830980
C    -3.164098  -1.176571  1.105301
O    -3.214324  -2.205160  1.775616
H    -1.384912  -0.099376  3.474498
H    -3.418068  0.132804  2.676787
C    -2.856495  1.501430  1.154280
C    -2.635283  2.653997  2.136762
C    -2.782913  4.017040  1.465195
N    -2.534037  5.091790  2.411726
C    -2.976993  6.374594  2.139654
N    -2.637786  7.305324  3.129113
N    -3.707109  6.606322  1.101720
H    -3.869003  1.581584  0.730578
H    -2.154624  1.607586  0.315416
H    -1.629761  2.560287  2.578191
H    -3.352506  2.583368  2.970379
H    -3.799448  4.166375  1.078738
H    -2.109947  4.085073  0.589144
H    -1.668059  5.019269  2.935485
H    -2.540721  8.258219  2.799145
H    -1.915689  7.042346  3.792347
H    -4.059383  7.566410  1.110833
N    -3.552928  -1.207669  -0.208436
C    -3.460414  -0.248249  -1.300114
H    -3.862278  -2.142949  -0.457173
H    -4.183473  0.573200  -1.207973
H    -2.453940  0.176551  -1.398989
H    -3.682359  -0.783404  -2.229577
