35
Energy: -21190.4046887 eV PBE+vdW (tier 2 basis)
C    -0.752281  -0.501264  -0.492446
C    -0.713412  -0.743510  1.004003
O    -0.139216  -1.712715  1.500771
H    -1.170270  -1.389380  -0.981849
H    0.275950  -0.380746  -0.856206
H    -1.337939  0.380182  -0.780436
N    -1.345275  0.196743  1.767723
C    -1.471050  0.054334  3.201815
C    -2.734095  0.826323  3.620661
O    -3.268694  1.646225  2.872697
H    -1.929675  0.921495  1.356018
H    -1.594063  -1.018019  3.426213
C    -0.212405  0.546797  3.959899
C    0.059881  2.044205  3.801149
C    1.304109  2.534798  4.543090
N    2.522761  2.007384  3.954075
C    3.798847  2.283181  4.416052
N    3.936836  3.508209  5.075580
N    4.748213  1.456872  4.129937
H    0.622602  -0.061936  3.583790
H    -0.316616  0.298118  5.028808
H    -0.800972  2.616995  4.178366
H    0.158712  2.295257  2.734529
H    1.210500  2.272466  5.618604
H    1.322347  3.634513  4.477123
H    2.479293  1.065165  3.578336
H    4.784213  3.586080  5.624919
H    3.123594  3.871992  5.561025
H    5.656384  1.803854  4.446647
N    -3.178599  0.557378  4.877575
C    -4.327657  1.217801  5.469273
H    -2.708052  -0.167842  5.405910
H    -4.056343  1.712019  6.412102
H    -5.142062  0.505589  5.661852
H    -4.678924  1.971453  4.757236
