35
Energy: -21190.2588736 eV PBE+vdW (tier 2 basis)
C    -0.997054  -0.325400  -0.930744
C    -0.545026  -0.299223  0.512459
O    0.621559  -0.488078  0.856767
H    -1.944096  -0.865178  -1.078256
H    -1.158524  0.702654  -1.289770
H    -0.201232  -0.778268  -1.528095
N    -1.505603  -0.025460  1.460533
C    -2.899041  0.316000  1.230504
C    -3.182807  1.692658  0.597510
O    -4.191104  1.823483  -0.107837
H    -1.140696  0.012741  2.407876
H    -3.286485  -0.387631  0.480889
C    -3.731676  0.179809  2.539669
C    -4.834106  -0.887121  2.518981
C    -6.031360  -0.601025  1.590029
N    -5.753238  -0.690200  0.155029
C    -5.270835  -1.861225  -0.403251
N    -5.927987  -3.016086  0.030038
N    -4.264876  -1.815631  -1.217124
H    -4.179721  1.153126  2.793325
H    -3.037489  -0.053806  3.361262
H    -5.226954  -0.988712  3.543487
H    -4.402963  -1.866477  2.258530
H    -6.412357  0.414625  1.769937
H    -6.849282  -1.286874  1.854070
H    -5.255048  0.131646  -0.206196
H    -5.688525  -3.854092  -0.487348
H    -6.928250  -2.920006  0.181202
H    -4.112463  -2.720609  -1.671769
N    -2.359549  2.754117  0.819948
C    -1.238715  2.905480  1.740525
H    -2.681740  3.589351  0.340457
H    -1.475690  2.515421  2.738975
H    -1.038318  3.977313  1.849168
H    -0.323762  2.418475  1.379135
