35
Energy: -21190.3704842 eV PBE+vdW (tier 2 basis)
C    0.797553  -1.031553  0.489524
C    0.386516  -0.570081  1.873750
O    1.033700  0.261887  2.506521
H    1.829134  -1.401595  0.531930
H    0.789229  -0.166274  -0.185168
H    0.151968  -1.814403  0.072482
N    -0.746088  -1.158107  2.376515
C    -1.346537  -0.752199  3.643217
C    -1.532316  -1.971826  4.573853
O    -2.648436  -2.363176  4.934429
H    -1.262127  -1.799770  1.785839
H    -0.600595  -0.081849  4.097370
C    -2.648959  0.035464  3.457681
C    -3.721447  -0.643527  2.582239
C    -5.143197  -0.387395  3.089993
N    -5.326160  -1.007978  4.400556
C    -5.952496  -0.387004  5.468037
N    -6.916945  0.558800  5.102968
N    -5.722155  -0.593785  6.722427
H    -2.386682  1.014071  3.031934
H    -3.058459  0.228463  4.459152
H    -3.570530  -1.734680  2.559566
H    -3.647549  -0.295668  1.541794
H    -5.864501  -0.787999  2.355559
H    -5.330183  0.695359  3.167426
H    -4.555052  -1.616359  4.680235
H    -7.438098  0.861130  5.920953
H    -7.526507  0.281298  4.338295
H    -4.904269  -1.198010  6.844446
N    -0.408330  -2.608054  5.000763
C    0.985933  -2.316823  4.708758
H    -0.611878  -3.416929  5.581021
H    1.595424  -2.585774  5.579577
H    1.136416  -1.250954  4.505975
H    1.351662  -2.881263  3.837161
