35
Energy: -21190.1941147 eV PBE+vdW (tier 2 basis)
C    -0.079119  0.111979  0.093343
C    -0.212349  0.283711  1.592438
O    0.741787  0.126262  2.356469
H    0.765679  0.716141  -0.257954
H    -0.979550  0.385527  -0.470249
H    0.164129  -0.940889  -0.106437
N    -1.459520  0.610396  2.042390
C    -1.841905  0.746230  3.451038
C    -0.765765  1.440844  4.329491
O    -0.419928  0.959028  5.402530
H    -2.199909  0.687896  1.355435
H    -2.698790  1.442853  3.448729
C    -2.334470  -0.559188  4.100678
C    -1.353914  -1.745357  4.142680
C    -1.441175  -2.677451  2.921882
N    -0.582068  -3.843679  2.998942
C    0.680697  -3.995507  2.450705
N    1.180764  -2.876322  1.787022
N    1.379491  -5.084528  2.454950
H    -3.260140  -0.861784  3.581308
H    -2.626526  -0.296816  5.125721
H    -1.577754  -2.345279  5.037751
H    -0.327146  -1.383542  4.273802
H    -1.197083  -2.147519  1.992968
H    -2.482646  -3.023927  2.806116
H    -0.884619  -4.608324  3.587969
H    2.134668  -3.060260  1.490033
H    1.098476  -1.972819  2.255316
H    0.845326  -5.866464  2.844635
N    -0.319477  2.673717  3.937793
C    -0.585105  3.420465  2.723708
H    0.406127  3.026410  4.554026
H    -0.375817  4.479969  2.913620
H    -1.640284  3.343487  2.433727
H    0.034583  3.093053  1.873717
