35
Energy: -21189.8323071 eV PBE+vdW (tier 2 basis)
C    1.290680  0.961988  1.786022
C    -0.084168  1.543515  1.526065
O    -0.234129  2.554502  0.844277
H    2.019985  1.599689  1.280031
H    1.386523  -0.062337  1.403351
H    1.515509  0.955390  2.860993
N    -1.190546  0.913039  2.054731
C    -1.334520  -0.191131  3.012710
C    -1.077337  0.336782  4.456040
O    -1.903662  1.122568  4.918205
H    -2.026374  1.475035  1.921038
H    -2.421702  -0.354638  3.047001
C    -0.727229  -1.518721  2.542717
C    -1.348488  -2.726757  3.250688
C    -0.686731  -4.063965  2.888015
N    -0.679568  -4.353036  1.463371
C    0.422005  -4.134512  0.642703
N    0.188828  -4.557029  -0.668348
N    1.566970  -3.628702  0.950048
H    0.362168  -1.538388  2.644540
H    -0.922832  -1.595842  1.464014
H    -2.420768  -2.776590  3.001311
H    -1.297897  -2.610339  4.346299
H    -1.214481  -4.880855  3.399773
H    0.347241  -4.087352  3.272837
H    -1.299148  -5.091997  1.152671
H    0.956427  -4.288694  -1.277145
H    -0.715701  -4.293698  -1.049995
H    1.664500  -3.494468  1.958789
N    0.023309  0.006091  5.205824
C    1.119011  -0.936028  5.026448
H    -0.017131  0.477581  6.105254
H    0.785572  -1.984056  5.025038
H    1.803774  -0.809181  5.871844
H    1.693762  -0.747401  4.112234
