35
Energy: -21190.2916555 eV PBE+vdW (tier 2 basis)
C    0.862580  0.201193  0.994882
C    0.184537  0.355321  2.337647
O    0.707634  0.955555  3.271338
H    1.618526  -0.587653  1.126888
H    1.379404  1.132633  0.741274
H    0.182339  -0.079095  0.180391
N    -1.058194  -0.238453  2.437334
C    -1.743526  -0.559111  3.692530
C    -1.589211  0.547547  4.769412
O    -1.342000  0.282450  5.940683
H    -1.356812  -0.776642  1.630972
H    -2.819979  -0.537427  3.452269
C    -1.449632  -1.977298  4.235277
C    -0.022626  -2.527389  4.130191
C    1.046570  -1.822484  4.978115
N    2.317869  -2.537986  5.020740
C    3.176616  -2.594438  3.946893
N    4.313109  -3.378160  4.226740
N    2.913012  -2.007914  2.824756
H    -2.109512  -2.672826  3.693788
H    -1.780426  -1.981079  5.284017
H    0.316396  -2.536285  3.084157
H    -0.066121  -3.584270  4.441179
H    0.697967  -1.709835  6.013570
H    1.242350  -0.813730  4.598411
H    2.363480  -3.337175  5.643143
H    5.021878  -3.331398  3.502422
H    4.713287  -3.221332  5.148874
H    3.728774  -2.042669  2.208032
N    -1.921283  1.800832  4.337619
C    -1.649554  2.959076  5.171056
H    -1.891558  1.943528  3.333575
H    -2.249969  3.808195  4.824390
H    -0.582900  3.233380  5.150803
H    -1.924278  2.722523  6.204013
