35
Energy: -21190.4078443 eV PBE+vdW (tier 2 basis)
C    -0.402291  1.644808  1.588128
C    -0.586048  0.292980  2.241009
O    0.241166  -0.202030  3.007816
H    0.656423  1.916526  1.625305
H    -0.990629  2.395768  2.140899
H    -0.747843  1.647823  0.545570
N    -1.750918  -0.356378  1.906139
C    -2.167022  -1.587985  2.566513
C    -2.450349  -2.713620  1.548175
O    -3.560052  -3.242229  1.455665
H    -2.449083  0.168510  1.386022
H    -1.293877  -1.880728  3.171424
C    -3.352293  -1.360306  3.516698
C    -4.631962  -0.820854  2.852626
C    -5.328107  0.295338  3.645907
N    -4.504050  1.455572  3.986303
C    -3.829762  2.282172  3.108775
N    -4.213100  2.172303  1.766538
N    -2.884057  3.111996  3.403392
H    -2.991540  -0.646904  4.272914
H    -3.567779  -2.301139  4.040492
H    -5.348417  -1.637218  2.697807
H    -4.413976  -0.442571  1.844880
H    -5.697892  -0.097713  4.603495
H    -6.228400  0.624636  3.099116
H    -4.137578  1.481789  4.928584
H    -3.879622  2.977137  1.243271
H    -5.199894  1.991610  1.603598
H    -2.610796  3.040931  4.386767
N    -1.413125  -3.120285  0.759622
C    -0.038496  -2.649045  0.721737
H    -1.688014  -3.835815  0.093404
H    0.281957  -2.277503  1.701420
H    0.102997  -1.836764  -0.008244
H    0.616753  -3.484410  0.445818
