35
Energy: -21190.6325338 eV PBE+vdW (tier 2 basis)
C    -0.225239  0.782422  0.399912
C    -0.342911  0.795214  1.910374
O    0.554163  1.215883  2.645977
H    0.803002  0.521061  0.128481
H    -0.424990  1.792443  0.016049
H    -0.922684  0.081661  -0.076104
N    -1.538699  0.340839  2.395481
C    -1.740704  0.187061  3.825034
C    -1.147677  -1.155978  4.298753
O    -1.485280  -2.236053  3.787262
H    -2.157727  -0.203508  1.789430
H    -1.175830  1.006898  4.282718
C    -3.215884  0.362569  4.255887
C    -4.247233  -0.754637  4.008590
C    -4.634733  -1.059334  2.557816
N    -3.537370  -1.679763  1.840564
C    -3.636940  -2.076345  0.518207
N    -2.475354  -2.701657  0.054386
N    -4.600350  -1.847800  -0.309045
H    -3.564831  1.295471  3.785216
H    -3.202315  0.555636  5.339941
H    -5.169391  -0.453335  4.527312
H    -3.919601  -1.686159  4.494532
H    -4.928349  -0.124091  2.048330
H    -5.528237  -1.711166  2.560840
H    -2.825089  -2.122890  2.435710
H    -2.633925  -3.173577  -0.829964
H    -1.975183  -3.272691  0.729258
H    -5.357918  -1.324569  0.134246
N    -0.248447  -1.117877  5.310738
C    0.389977  0.057090  5.895938
H    0.107824  -2.033528  5.569082
H    1.223423  -0.284152  6.518693
H    -0.299898  0.621120  6.540246
H    0.787423  0.716663  5.112591
