35
Energy: -21190.5648129 eV PBE+vdW (tier 2 basis)
C    0.638449  0.638186  0.451108
C    -0.332341  0.739648  1.612672
O    -1.265938  1.546016  1.620641
H    0.074627  0.416703  -0.463680
H    1.410289  -0.128272  0.590277
H    1.120367  1.613624  0.309603
N    -0.116307  -0.133932  2.635793
C    -0.876498  -0.066301  3.864927
C    -0.063520  -0.860991  4.912076
O    1.057852  -1.304347  4.644503
H    0.749796  -0.667932  2.718413
H    -0.904773  0.987381  4.197781
C    -2.346032  -0.547227  3.708997
C    -3.357538  0.458179  4.269535
C    -4.761750  -0.113937  4.489935
N    -4.820699  -1.198367  5.487692
C    -4.287502  -1.017438  6.764097
N    -4.593416  0.205920  7.343157
N    -3.548189  -1.853844  7.419977
H    -2.456280  -1.529487  4.194559
H    -2.539322  -0.702462  2.640201
H    -3.412653  1.317831  3.585220
H    -3.004848  0.861540  5.232792
H    -5.169653  -0.527502  3.556702
H    -5.447681  0.691631  4.788297
H    -4.553497  -2.100970  5.107328
H    -4.353759  0.232343  8.328655
H    -5.512341  0.582373  7.135824
H    -3.298940  -2.657146  6.835790
N    -0.641739  -1.027769  6.123512
C    0.005645  -1.777399  7.187841
H    -1.597622  -0.728928  6.291283
H    -0.727040  -1.930677  7.986501
H    0.874304  -1.234484  7.585699
H    0.357548  -2.749963  6.819290
