35
Energy: -21190.1232193 eV PBE+vdW (tier 2 basis)
C    0.165927  0.787085  0.461293
C    0.154930  0.481743  1.951525
O    0.887146  1.084462  2.732365
H    1.173354  0.588985  0.074361
H    -0.031134  1.857145  0.322030
H    -0.558454  0.209894  -0.126852
N    -0.738494  -0.486401  2.326108
C    -0.944422  -1.141492  3.626215
C    -2.204170  -0.705032  4.406129
O    -2.778449  -1.559602  5.093656
H    -1.287155  -0.884426  1.573410
H    -1.224284  -2.168925  3.354241
C    0.309957  -1.306388  4.529031
C    0.688018  -0.246942  5.570959
C    -0.253397  -0.100715  6.786578
N    -0.761320  -1.336742  7.360939
C    0.055442  -2.172765  8.087413
N    -0.561672  -3.399820  8.389336
N    1.261113  -1.824139  8.396668
H    1.162715  -1.457993  3.853713
H    0.171187  -2.262439  5.054369
H    1.674798  -0.538215  5.956436
H    0.813058  0.733587  5.094097
H    -1.130040  0.510468  6.535022
H    0.294799  0.431521  7.575055
H    -1.524130  -1.771211  6.844725
H    -0.091268  -3.918485  9.123098
H    -1.563957  -3.344408  8.553827
H    1.694612  -2.514006  9.014507
N    -2.699186  0.558553  4.322295
C    -2.088234  1.781111  3.818453
H    -3.551630  0.658237  4.866448
H    -2.381061  1.991366  2.778909
H    -0.995517  1.736477  3.871574
H    -2.421036  2.617195  4.445004
