35
Energy: -21190.517965 eV PBE+vdW (tier 2 basis)
C    -0.779625  -0.047874  -0.365165
C    -0.524341  0.307012  1.083707
O    0.545132  0.833653  1.431246
H    -0.033512  -0.789748  -0.677517
H    -0.627319  0.846797  -0.980778
H    -1.781392  -0.450953  -0.555403
N    -1.530482  0.023544  1.951534
C    -1.503283  0.139550  3.419959
C    -1.515395  1.585545  3.981133
O    -2.219006  1.830945  4.963089
H    -2.377472  -0.361717  1.552622
H    -2.474960  -0.244755  3.753689
C    -0.402164  -0.772035  4.022373
C    -0.125587  -0.571950  5.519080
C    0.977806  0.455532  5.809852
N    2.298674  -0.003113  5.370935
C    3.208405  0.781041  4.660884
N    2.631752  1.609669  3.700191
N    4.491689  0.782326  4.810913
H    0.533647  -0.637413  3.463872
H    -0.720867  -1.806692  3.830187
H    0.178970  -1.536061  5.953963
H    -1.041130  -0.267088  6.047093
H    0.994457  0.672573  6.891083
H    0.773160  1.407170  5.307971
H    2.766039  -0.614924  6.031886
H    3.361039  2.064792  3.158583
H    1.935197  1.171438  3.096904
H    4.765691  0.256122  5.645920
N    -0.714357  2.485289  3.363929
C    -0.522337  3.832752  3.864546
H    -0.097031  2.129450  2.629834
H    -0.749510  4.576452  3.088507
H    0.516804  3.972767  4.196317
H    -1.196893  3.982779  4.713723
