35
Energy: -21190.5213023 eV PBE+vdW (tier 2 basis)
C    -0.004699  0.879301  0.732643
C    -0.155147  -0.133361  1.850766
O    0.781748  -0.476064  2.565941
H    1.016922  1.266242  0.759785
H    -0.715213  1.711137  0.832186
H    -0.183327  0.413025  -0.246927
N    -1.415220  -0.661649  2.045398
C    -2.613479  -0.444946  1.242464
C    -3.334082  0.886457  1.552529
O    -4.151205  1.365287  0.757106
H    -1.440400  -1.406045  2.738417
H    -2.342668  -0.384923  0.177260
C    -3.558644  -1.651352  1.437338
C    -4.763245  -1.704240  0.472883
C    -6.129640  -1.633155  1.164969
N    -6.343731  -0.417982  1.938233
C    -6.312103  -0.429723  3.316116
N    -6.511100  0.851470  3.861849
N    -6.090551  -1.514450  3.983477
H    -3.912608  -1.663389  2.480371
H    -2.940821  -2.551411  1.305286
H    -4.733215  -2.639374  -0.105630
H    -4.691258  -0.888237  -0.259998
H    -6.253711  -2.469845  1.863443
H    -6.919575  -1.713330  0.400957
H    -6.035189  0.446982  1.496820
H    -6.729463  0.836032  4.852516
H    -7.168080  1.429973  3.343215
H    -6.219492  -1.364406  4.986312
N    -3.016733  1.456633  2.736633
C    -3.608146  2.694789  3.205059
H    -2.331695  0.974630  3.309281
H    -3.988327  3.243627  2.336107
H    -2.849940  3.300515  3.715857
H    -4.449471  2.499895  3.884982
