35
Energy: -21190.2100958 eV PBE+vdW (tier 2 basis)
C    0.583047  1.398124  1.060046
C    0.088361  0.106979  1.688214
O    0.847227  -0.796284  2.027758
H    1.221348  1.151799  0.203019
H    1.208485  1.926315  1.790973
H    -0.219414  2.069803  0.730289
N    -1.268467  0.008752  1.841003
C    -1.905991  -1.115940  2.512896
C    -1.602273  -2.515284  1.934040
O    -1.482603  -3.459306  2.712042
H    -1.851665  0.793682  1.573957
H    -1.515037  -1.190238  3.539254
C    -3.422803  -0.860622  2.564677
C    -4.198709  -1.857133  3.426500
C    -5.698711  -1.546772  3.538267
N    -6.023302  -0.271072  4.155067
C    -6.235238  0.903442  3.447993
N    -6.345480  2.015036  4.293970
N    -6.323475  1.079959  2.173337
H    -3.828719  -0.859916  1.539351
H    -3.574200  0.156861  2.958717
H    -3.758915  -1.884326  4.436803
H    -4.084803  -2.877340  3.031314
H    -6.183109  -2.343527  4.122529
H    -6.174590  -1.570480  2.546878
H    -5.675147  -0.142215  5.099890
H    -6.651265  2.829096  3.768198
H    -6.919278  1.863877  5.119895
H    -6.112979  0.224696  1.655481
N    -1.582531  -2.720333  0.581501
C    -1.633482  -1.781125  -0.526225
H    -1.342165  -3.681396  0.358215
H    -1.861033  -2.344200  -1.439171
H    -0.681776  -1.249096  -0.677856
H    -2.429514  -1.040067  -0.392629
