35
Energy: -21190.3791679 eV PBE+vdW (tier 2 basis)
C    -0.223450  0.197018  0.231171
C    -0.134094  0.109804  1.743175
O    0.888962  0.405917  2.352653
H    0.747758  -0.063854  -0.201150
H    -0.445773  1.239616  -0.036268
H    -1.001377  -0.446100  -0.199908
N    -1.281515  -0.323423  2.362131
C    -1.549057  -0.148531  3.787839
C    -1.327678  1.339705  4.198750
O    -1.428407  2.229465  3.355902
H    -2.099662  -0.366324  1.767070
H    -2.646358  -0.229936  3.868162
C    -1.025996  -1.306340  4.671648
C    0.419017  -1.825650  4.565548
C    1.576459  -0.928260  5.044162
N    1.329488  -0.134343  6.254418
C    0.719429  -0.636596  7.385396
N    1.179641  -1.881124  7.790630
N    -0.236009  0.050488  7.938488
H    -1.667048  -2.168121  4.428697
H    -1.262314  -1.075435  5.720738
H    0.637442  -2.107232  3.524593
H    0.436260  -2.761638  5.144008
H    1.813742  -0.202794  4.260211
H    2.472138  -1.555922  5.178677
H    0.949027  0.783203  6.039532
H    0.868921  -2.190773  8.703144
H    2.153700  -2.088287  7.594664
H    -0.515302  -0.335823  8.843008
N    -1.161679  1.603287  5.520269
C    -1.116138  2.975214  5.998515
H    -1.115131  0.879793  6.246974
H    -0.812998  2.953692  7.050906
H    -2.095399  3.469218  5.911545
H    -0.395015  3.563152  5.416553
