35
Energy: -21190.3718835 eV PBE+vdW (tier 2 basis)
C    -1.757961  1.256646  -0.133248
C    -1.307526  0.788711  1.236969
O    -0.149863  0.435551  1.461928
H    -1.140161  2.111511  -0.434990
H    -2.814845  1.546480  -0.173967
H    -1.576857  0.451732  -0.856420
N    -2.272737  0.810203  2.207183
C    -2.050815  0.245140  3.523039
C    -3.294673  -0.580415  3.880223
O    -4.396789  -0.295101  3.407124
H    -3.253009  0.932260  1.960817
H    -1.150934  -0.383600  3.449588
C    -1.822796  1.326162  4.605338
C    -0.571293  2.167796  4.358291
C    -0.344039  3.204819  5.454292
N    0.839698  4.006911  5.147909
C    1.416550  4.892308  6.053213
N    0.523638  5.419430  6.985393
N    2.655954  5.247195  6.103356
H    -1.753827  0.836623  5.589958
H    -2.716680  1.969245  4.639506
H    -0.652175  2.678405  3.387563
H    0.306973  1.505881  4.286085
H    -0.248935  2.707421  6.437117
H    -1.230247  3.858450  5.515213
H    1.528606  3.526965  4.577492
H    0.948533  6.189032  7.493734
H    -0.403939  5.641538  6.636787
H    3.228421  4.697978  5.456618
N    -3.136453  -1.603500  4.764404
C    -1.900225  -2.101801  5.347539
H    -4.004284  -2.073642  5.001605
H    -2.113192  -3.052565  5.846912
H    -1.479751  -1.413931  6.096346
H    -1.137763  -2.291498  4.580416
