35
Energy: -21190.2289228 eV PBE+vdW (tier 2 basis)
C    -1.487661  1.782486  0.109651
C    -0.729118  1.728590  1.426540
O    0.468791  1.985503  1.500151
H    -2.021346  0.844063  -0.095791
H    -0.761348  1.974901  -0.684097
H    -2.230262  2.593768  0.110100
N    -1.449218  1.395181  2.549390
C    -2.833886  0.932342  2.614946
C    -3.447126  1.523983  3.901680
O    -3.465138  0.894987  4.957313
H    -0.881858  1.288588  3.387736
H    -3.350703  1.358757  1.746352
C    -2.951815  -0.595516  2.573444
C    -4.385135  -1.132267  2.496742
C    -5.229157  -0.591536  1.329078
N    -4.561501  -0.642843  0.032523
C    -4.449224  -1.833285  -0.686989
N    -3.859509  -1.631298  -1.938598
N    -4.823147  -3.014191  -0.340386
H    -2.465858  -1.006198  3.468965
H    -2.378552  -0.944659  1.702871
H    -4.922310  -0.908660  3.430285
H    -4.327894  -2.227939  2.433457
H    -5.479727  0.463906  1.507217
H    -6.195445  -1.128253  1.304210
H    -4.707292  0.168632  -0.559166
H    -3.680176  -2.517413  -2.402102
H    -3.041942  -1.027239  -1.934476
H    -5.365776  -3.002140  0.525977
N    -3.946540  2.793481  3.814515
C    -3.854264  3.710611  2.689823
H    -4.259724  3.163802  4.706621
H    -4.353614  4.645335  2.964898
H    -4.365937  3.317476  1.799088
H    -2.812348  3.943164  2.424615
