35
Energy: -21190.3602852 eV PBE+vdW (tier 2 basis)
C    0.091926  -0.045151  0.134113
C    0.135291  0.028282  1.652350
O    1.196341  0.125078  2.263823
H    1.123749  -0.036989  -0.226205
H    -0.435527  0.819842  -0.293567
H    -0.406408  -0.953816  -0.228158
N    -1.059160  -0.017198  2.326713
C    -2.409772  -0.060351  1.799720
C    -3.233410  1.027261  2.515121
O    -3.092515  1.235957  3.717681
H    -0.992756  0.144621  3.330979
H    -2.371932  0.145851  0.720678
C    -3.094279  -1.428446  2.030598
C    -2.414677  -2.586084  1.302709
C    -3.051786  -3.944001  1.639865
N    -2.512179  -5.068952  0.897463
C    -2.866172  -5.309382  -0.426215
N    -2.081128  -6.307989  -1.011298
N    -3.785530  -4.738593  -1.127079
H    -4.146826  -1.350497  1.711683
H    -3.111801  -1.613897  3.116497
H    -1.348031  -2.618973  1.573276
H    -2.461797  -2.428761  0.213455
H    -4.138198  -3.912788  1.463285
H    -2.926890  -4.156863  2.712048
H    -1.555120  -5.320237  1.126562
H    -2.450655  -6.565982  -1.921859
H    -1.916947  -7.120377  -0.422493
H    -4.202537  -3.946145  -0.634215
N    -4.134148  1.682795  1.731120
C    -5.045663  2.687687  2.248701
H    -4.160700  1.461804  0.743071
H    -4.877388  3.660776  1.767617
H    -4.852527  2.784184  3.322078
H    -6.092475  2.390228  2.097610
