35
Energy: -21190.7226938 eV PBE+vdW (tier 2 basis)
C    -2.030482  0.439835  -0.461597
C    -1.309110  0.372547  0.866944
O    -0.089362  0.559078  0.958334
H    -1.870082  1.434114  -0.896856
H    -3.108490  0.252231  -0.388829
H    -1.583389  -0.292120  -1.145423
N    -2.083285  0.103981  1.955834
C    -1.542718  0.057881  3.317164
C    -0.927394  -1.348246  3.560029
O    -1.515162  -2.238307  4.183316
H    -3.064403  -0.116424  1.826340
H    -0.726051  0.795738  3.339055
C    -2.622788  0.436526  4.333744
C    -2.101625  0.984140  5.670486
C    -1.321291  -0.010452  6.553539
N    -2.030162  -1.230528  6.881062
C    -3.058438  -1.262826  7.806966
N    -3.778029  -2.462380  7.765904
N    -3.413098  -0.355283  8.655721
H    -3.272035  -0.434371  4.512309
H    -3.248555  1.215753  3.873748
H    -2.969062  1.350902  6.238497
H    -1.458578  1.860603  5.485307
H    -1.026622  0.493486  7.486632
H    -0.380213  -0.302117  6.064143
H    -2.100729  -1.879254  6.095897
H    -4.375569  -2.552111  8.582183
H    -3.216380  -3.293333  7.602624
H    -2.887312  0.510893  8.522760
N    0.296174  -1.494266  2.998530
C    1.005134  -2.760006  2.991504
H    0.588101  -0.748455  2.360115
H    2.080532  -2.586562  3.118305
H    0.844541  -3.313243  2.053501
H    0.634630  -3.371582  3.820432
