35
Energy: -21189.9892824 eV PBE+vdW (tier 2 basis)
C    -0.442549  0.156930  0.056979
C    -0.070492  0.527302  1.479487
O    0.853503  1.312157  1.695066
H    -0.340627  -0.919204  -0.129853
H    0.241989  0.696624  -0.602544
H    -1.472886  0.444790  -0.184595
N    -0.760526  0.008353  2.553887
C    -1.818820  -0.978513  2.797266
C    -1.344739  -2.178604  3.653860
O    -2.043058  -2.511948  4.618797
H    -0.367481  0.384655  3.414603
H    -2.548598  -0.487556  3.459430
C    -2.613365  -1.481279  1.575893
C    -3.799838  -2.397056  1.962754
C    -3.703996  -3.838360  1.421900
N    -2.586351  -4.636340  1.891655
C    -2.430618  -5.228760  3.123994
N    -3.583331  -5.360789  3.890811
N    -1.251430  -5.669735  3.445472
H    -1.952197  -2.012252  0.878222
H    -2.992018  -0.605061  1.034106
H    -4.734356  -1.967785  1.572671
H    -3.904624  -2.424808  3.056529
H    -3.631035  -3.812475  0.324679
H    -4.647115  -4.368379  1.633043
H    -1.734963  -4.651556  1.345197
H    -3.385243  -5.395382  4.885180
H    -4.325755  -4.696084  3.697982
H    -1.280147  -6.168125  4.337321
N    -0.229067  -2.879335  3.317117
C    0.632841  -2.731830  2.156404
H    -0.249784  -3.824259  3.722548
H    0.087206  -2.759077  1.198811
H    1.329664  -3.576505  2.156226
H    1.217441  -1.804980  2.192846
