35
Energy: -21190.3186099 eV PBE+vdW (tier 2 basis)
C    -1.183213  0.675231  -0.604032
C    -0.623178  0.796249  0.792415
O    0.503840  1.264635  1.000784
H    -1.894418  -0.145907  -0.738539
H    -0.342509  0.559427  -1.294903
H    -1.704964  1.609502  -0.857234
N    -1.376188  0.373247  1.857143
C    -2.801413  0.029620  1.919571
C    -3.141467  -1.230459  1.084234
O    -4.001324  -1.218155  0.206668
H    -0.911316  0.561690  2.740279
H    -2.967963  -0.255988  2.972235
C    -3.749283  1.193165  1.597059
C    -3.605553  2.406928  2.540937
C    -3.146422  3.694677  1.848680
N    -1.793949  3.589345  1.334444
C    -1.417564  4.169527  0.134574
N    -0.036907  4.100833  -0.069751
N    -2.303819  4.700754  -0.642169
H    -4.771320  0.795774  1.632971
H    -3.598366  1.504356  0.555432
H    -2.912705  2.177768  3.369420
H    -4.571616  2.616306  3.022945
H    -3.242201  4.545801  2.546705
H    -3.785327  3.924431  0.986171
H    -1.049292  3.501868  2.017426
H    0.247398  4.348193  -1.010837
H    0.408311  3.238181  0.256517
H    -1.882269  4.996169  -1.525413
N    -2.449341  -2.372368  1.377959
C    -1.439509  -2.603830  2.397321
H    -2.708553  -3.151732  0.781448
H    -1.725682  -2.150013  3.355996
H    -0.452594  -2.213743  2.110945
H    -1.355420  -3.683990  2.561620
