35
Energy: -21190.5460414 eV PBE+vdW (tier 2 basis)
C    -1.697448  2.172950  0.618227
C    -1.306025  0.944675  1.415453
O    -0.132831  0.625476  1.623810
H    -1.694119  1.920184  -0.451550
H    -0.941969  2.949673  0.776426
H    -2.688112  2.561801  0.886632
N    -2.349606  0.190417  1.865922
C    -2.150549  -1.027352  2.619101
C    -3.463293  -1.813659  2.566666
O    -4.557468  -1.241616  2.503502
H    -3.309659  0.493951  1.733635
H    -1.346742  -1.592364  2.120287
C    -1.693190  -0.831831  4.097546
C    -2.748572  -0.358168  5.113727
C    -2.763537  1.146170  5.440186
N    -2.838725  2.064984  4.314073
C    -3.981595  2.481265  3.657994
N    -5.088143  1.651545  3.825198
N    -4.092796  3.548796  2.931303
H    -0.830666  -0.151202  4.068939
H    -1.296045  -1.804296  4.426000
H    -2.570815  -0.872495  6.071102
H    -3.752892  -0.679114  4.803473
H    -1.838353  1.396424  5.979098
H    -3.597850  1.342755  6.131928
H    -2.017738  2.622909  4.124877
H    -5.869320  2.009581  3.282653
H    -4.932726  0.658869  3.643680
H    -3.270282  4.150959  3.033795
N    -3.332902  -3.161141  2.656547
C    -4.464260  -4.068620  2.719289
H    -2.395816  -3.546558  2.658482
H    -4.480818  -4.741894  1.851425
H    -5.375938  -3.462878  2.714883
H    -4.435780  -4.670560  3.637700
