35
Energy: -21190.541646 eV PBE+vdW (tier 2 basis)
C    -0.173216  1.220397  0.051690
C    -0.453645  0.495580  1.355736
O    0.323424  0.540640  2.311395
H    0.780890  0.859875  -0.352445
H    -0.055717  2.291097  0.260212
H    -0.957227  1.086053  -0.703459
N    -1.626922  -0.196342  1.397340
C    -2.000995  -1.020289  2.528010
C    -2.980957  -2.076624  1.987030
O    -3.501743  -1.938716  0.873793
H    -2.209034  -0.331550  0.571776
H    -1.088537  -1.503388  2.913295
C    -2.617861  -0.197752  3.684010
C    -3.948234  0.474716  3.344125
C    -4.620861  1.116212  4.565871
N    -4.958640  0.175452  5.642045
C    -5.794526  -0.913450  5.427822
N    -6.931027  -0.620697  4.679443
N    -5.456170  -2.068449  5.902368
H    -1.867752  0.551139  3.977939
H    -2.749156  -0.866193  4.546345
H    -4.647082  -0.254668  2.906264
H    -3.794165  1.250073  2.578291
H    -5.529937  1.647031  4.249161
H    -3.966130  1.877886  5.013478
H    -4.160637  -0.127268  6.194010
H    -7.326980  0.305765  4.805499
H    -7.628975  -1.354242  4.655152
H    -6.224867  -2.740914  5.828521
N    -3.272536  -3.143722  2.773251
C    -2.785499  -3.479544  4.104612
H    -3.985392  -3.744094  2.369469
H    -2.726790  -4.571568  4.193184
H    -3.449898  -3.092315  4.894216
H    -1.773562  -3.085996  4.252718
