35
Energy: -21190.4463151 eV PBE+vdW (tier 2 basis)
C    -1.908485  -1.661856  3.289838
C    -0.821225  -1.068364  2.414352
O    -0.811810  -1.204200  1.196235
H    -1.712145  -1.569985  4.365520
H    -2.031229  -2.720813  3.034336
H    -2.856814  -1.159156  3.059440
N    0.164816  -0.379297  3.090376
C    1.174073  0.406925  2.393035
C    2.623619  -0.058547  2.659812
O    3.577508  0.663388  2.377149
H    0.017915  -0.196443  4.077142
H    0.991089  0.203809  1.325203
C    1.026102  1.917427  2.636278
C    1.197971  2.342337  4.098858
C    1.178248  3.856467  4.313565
N    -0.123003  4.429925  4.008645
C    -0.423121  5.745135  4.359018
N    -1.662592  6.151458  3.852792
N    0.281655  6.569836  5.052348
H    0.038933  2.212232  2.248023
H    1.786726  2.419642  2.022850
H    2.165386  1.968212  4.465975
H    0.411860  1.900639  4.734079
H    1.987616  4.322134  3.718066
H    1.395691  4.068230  5.370516
H    -0.509864  4.158137  3.109209
H    -1.918992  7.063684  4.219193
H    -2.409124  5.470064  3.961206
H    1.220823  6.208452  5.231767
N    2.746834  -1.307195  3.185528
C    4.031346  -1.947069  3.388989
H    1.891901  -1.832303  3.330793
H    4.182428  -2.779478  2.686499
H    4.121952  -2.327733  4.415151
H    4.807912  -1.194693  3.214210
