35
Energy: -21190.2911227 eV PBE+vdW (tier 2 basis)
C    0.691998  -1.160775  -0.582313
C    0.893006  -0.322667  0.659199
O    2.012439  0.055394  0.996021
H    1.034457  -0.591756  -1.455098
H    -0.323784  -1.519133  -0.762246
H    1.354112  -2.032614  -0.495576
N    -0.182835  -0.045641  1.493682
C    -1.636315  0.011638  1.282512
C    -2.337253  -1.338466  1.031284
O    -3.505515  -1.363919  0.625830
H    0.144741  0.517248  2.275822
H    -2.023602  0.281879  2.279895
C    -2.134224  1.159821  0.370454
C    -1.809307  1.184581  -1.135318
C    -2.839655  0.529985  -2.079966
N    -2.877715  -0.921406  -2.141096
C    -1.949500  -1.717302  -2.768696
N    -1.243060  -1.104038  -3.811026
N    -1.761417  -2.927419  -2.341030
H    -1.725651  2.076753  0.820410
H    -3.224880  1.213564  0.503563
H    -0.809627  0.784143  -1.345877
H    -1.762477  2.245046  -1.430025
H    -2.678900  0.933827  -3.090690
H    -3.848514  0.858335  -1.788727
H    -3.290094  -1.370527  -1.322093
H    -0.746178  -1.761449  -4.401769
H    -1.760501  -0.420228  -4.356585
H    -1.134292  -3.443469  -2.962959
N    -1.645895  -2.448726  1.354544
C    -2.165112  -3.781459  1.083867
H    -0.687003  -2.332100  1.660477
H    -1.504326  -4.518026  1.552416
H    -2.210443  -3.954777  -0.001949
H    -3.173604  -3.883424  1.502473
