35
Energy: -21190.3177606 eV PBE+vdW (tier 2 basis)
C    -2.145786  -0.361022  -1.374061
C    -0.980631  -0.520284  -0.416886
O    0.153710  -0.798321  -0.795358
H    -1.756487  -0.427810  -2.392988
H    -2.662032  0.599515  -1.240850
H    -2.888171  -1.158615  -1.226916
N    -1.239465  -0.319337  0.922782
C    -2.517933  -0.079515  1.578084
C    -2.814708  1.412660  1.876580
O    -3.848190  1.735913  2.456775
H    -0.432926  -0.505444  1.515209
H    -3.320994  -0.397208  0.896637
C    -2.649327  -0.898899  2.870446
C    -2.620171  -2.411111  2.643997
C    -2.757925  -3.248980  3.927943
N    -4.062817  -3.225619  4.574017
C    -4.589780  -2.153548  5.287606
N    -3.699150  -1.500777  6.139037
N    -5.854248  -1.920560  5.186727
H    -3.590558  -0.590121  3.342184
H    -1.838807  -0.602962  3.560754
H    -1.681277  -2.704856  2.146621
H    -3.432415  -2.692147  1.952868
H    -1.982043  -2.955450  4.653533
H    -2.539426  -4.300102  3.690146
H    -4.809496  -3.654704  4.032916
H    -3.934029  -0.535570  6.336602
H    -2.707782  -1.641607  5.980934
H    -6.159864  -1.214078  5.860642
N    -1.872551  2.291511  1.443508
C    -1.999296  3.725064  1.615781
H    -1.060595  1.905110  0.974030
H    -2.007061  4.242043  0.646282
H    -1.176913  4.126690  2.223929
H    -2.948296  3.914457  2.129037
