35
Energy: -21190.6261183 eV PBE+vdW (tier 2 basis)
C    1.807077  -0.599222  0.079374
C    1.040998  -0.749011  1.376909
O    1.569678  -0.584701  2.487453
H    2.713643  -0.019246  0.275335
H    1.207593  -0.107252  -0.699128
H    2.110163  -1.591102  -0.286760
N    -0.268072  -1.091521  1.242572
C    -1.195097  -1.164391  2.371776
C    -1.134707  -2.533753  3.105479
O    -2.103671  -3.291654  3.176635
H    -0.620926  -1.294172  0.307062
H    -0.844984  -0.410257  3.095013
C    -2.614822  -0.802783  1.929463
C    -3.206087  -1.691409  0.815939
C    -3.843350  -0.907785  -0.344529
N    -3.012130  0.120160  -0.974126
C    -1.785869  -0.051323  -1.583695
N    -1.416717  -1.385840  -1.807795
N    -0.942278  0.867905  -1.915312
H    -2.581274  0.244874  1.594036
H    -3.262107  -0.834333  2.814828
H    -3.969297  -2.359514  1.234805
H    -2.438701  -2.367098  0.416108
H    -4.740777  -0.382388  0.010691
H    -4.204770  -1.617562  -1.108772
H    -3.219905  1.079483  -0.732065
H    -0.649404  -1.427885  -2.473202
H    -2.171546  -2.021364  -2.051540
H    -1.250854  1.795256  -1.613449
N    0.078056  -2.773529  3.665409
C    0.389492  -3.999961  4.369442
H    0.801255  -2.060412  3.518739
H    1.160286  -4.581024  3.841765
H    -0.525586  -4.598823  4.431328
H    0.748111  -3.788247  5.386424
