35
Energy: -21190.6014837 eV PBE+vdW (tier 2 basis)
C    -2.451993  1.691171  2.055453
C    -1.896919  0.787452  3.131361
O    -1.738892  1.161415  4.294905
H    -3.528599  1.814480  2.246609
H    -2.310080  1.302126  1.039292
H    -1.984242  2.678349  2.138670
N    -1.593897  -0.493731  2.735114
C    -1.257663  -1.546861  3.683229
C    0.225958  -1.983327  3.651229
O    0.602277  -2.954939  4.302685
H    -1.874545  -0.773575  1.800752
H    -1.383638  -1.092856  4.678723
C    -2.169342  -2.772839  3.535079
C    -3.666720  -2.533891  3.761746
C    -4.056257  -1.998500  5.159881
N    -4.170960  -0.549082  5.292308
C    -5.130888  0.210731  4.636264
N    -6.260735  -0.494812  4.212399
N    -5.059178  1.475343  4.382429
H    -1.791193  -3.528021  4.237589
H    -2.019777  -3.202712  2.529501
H    -4.176424  -3.496252  3.602888
H    -4.082889  -1.852875  3.004446
H    -3.323824  -2.330918  5.910723
H    -5.006542  -2.458051  5.468588
H    -3.294442  -0.044356  5.404431
H    -7.001872  0.152346  3.960017
H    -6.583854  -1.227686  4.836612
H    -4.150920  1.849835  4.670976
N    1.046688  -1.214417  2.887638
C    2.480261  -1.420316  2.830034
H    0.635105  -0.400353  2.445515
H    2.701070  -2.361752  3.344373
H    3.023654  -0.607273  3.332924
H    2.825273  -1.487854  1.789618
