35
Energy: -21190.0265168 eV PBE+vdW (tier 2 basis)
C    0.277929  -0.598672  0.001476
C    0.180390  -0.295397  1.483450
O    1.175807  -0.128197  2.186601
H    1.096657  -1.306835  -0.164914
H    0.528455  0.332258  -0.525554
H    -0.647883  -1.003725  -0.425675
N    -1.090871  -0.212635  1.984871
C    -1.366491  0.316080  3.324024
C    -0.614116  1.672110  3.492250
O    -0.916127  2.560169  2.691708
H    -1.848698  -0.179984  1.314415
H    -2.398514  0.689791  3.263988
C    -1.384813  -0.765543  4.431227
C    -0.388380  -1.922678  4.320987
C    -0.494351  -2.925784  5.477144
N    -0.073207  -2.399437  6.778173
C    -0.898485  -1.670595  7.621082
N    -2.206429  -2.154123  7.708511
N    -0.416350  -0.631873  8.221017
H    -2.396567  -1.202620  4.430587
H    -1.292942  -0.261187  5.402489
H    0.643584  -1.553303  4.254170
H    -0.566073  -2.468405  3.380944
H    0.130073  -3.803446  5.253557
H    -1.526349  -3.291423  5.567880
H    0.853463  -1.979272  6.772749
H    -2.754516  -1.726170  8.445947
H    -2.301963  -3.165771  7.691051
H    -1.059510  -0.275691  8.932735
N    0.221026  1.940321  4.535669
C    1.058663  1.049951  5.334608
H    0.535213  2.904895  4.476904
H    1.864947  1.655056  5.763809
H    1.517933  0.279427  4.703126
H    0.516972  0.592735  6.174002
