35
Energy: -21189.8169137 eV PBE+vdW (tier 2 basis)
C    0.003016  0.043704  0.044001
C    0.081392  0.097903  1.557310
O    1.156985  0.039070  2.147511
H    1.024939  0.041107  -0.343334
H    -0.535714  0.904562  -0.372210
H    -0.503321  -0.873943  -0.285573
N    -1.088205  0.215192  2.271035
C    -2.492046  0.224800  1.845244
C    -2.883032  -1.156604  1.238496
O    -2.841069  -2.130269  1.987015
H    -0.926985  0.120790  3.268828
H    -3.045376  0.182964  2.794899
C    -2.925218  1.540767  1.177591
C    -4.438262  1.765129  1.235527
C    -4.877047  3.086814  0.589409
N    -4.315264  4.260728  1.238541
C    -4.889063  4.813433  2.380864
N    -4.239239  5.984547  2.780345
N    -5.902102  4.386487  3.050946
H    -2.563554  1.623742  0.143953
H    -2.429724  2.349538  1.732621
H    -4.761991  1.751100  2.287954
H    -4.984878  0.945046  0.743621
H    -5.980442  3.140625  0.568017
H    -4.547807  3.109690  -0.459667
H    -3.859883  4.932076  0.631154
H    -4.593557  6.307171  3.676084
H    -3.224009  5.938747  2.761924
H    -6.371788  3.608860  2.582011
N    -3.282973  -1.330823  -0.063501
C    -3.361131  -0.452273  -1.221581
H    -3.511352  -2.307598  -0.225784
H    -4.142045  0.314336  -1.123199
H    -3.617931  -1.071815  -2.087510
H    -2.406372  0.039818  -1.443120
