35
Energy: -21190.4442571 eV PBE+vdW (tier 2 basis)
C    0.476414  0.565188  0.157965
C    0.296090  0.294995  1.638313
O    1.207500  0.444528  2.449416
H    0.727711  1.624806  0.023415
H    -0.408291  0.330416  -0.446833
H    1.328225  -0.020631  -0.208075
N    -0.949407  -0.145656  2.007546
C    -1.327946  -0.339979  3.401249
C    -1.915081  -1.751123  3.615761
O    -3.057523  -1.943791  4.044561
H    -1.669625  -0.205456  1.297553
H    -0.368996  -0.305727  3.942795
C    -2.209251  0.798454  3.964759
C    -3.235991  1.445388  3.024351
C    -4.392526  0.552638  2.535383
N    -5.198507  -0.040253  3.580711
C    -6.136249  0.685138  4.294235
N    -6.608889  -0.008334  5.413886
N    -6.596257  1.869431  4.057849
H    -1.524582  1.591488  4.296806
H    -2.711678  0.422458  4.866417
H    -2.724028  1.868205  2.143951
H    -3.664655  2.305878  3.558908
H    -4.012089  -0.278511  1.920619
H    -5.045187  1.140630  1.871732
H    -4.717455  -0.792531  4.073868
H    -7.431444  0.446370  5.798638
H    -6.745440  -1.005466  5.273871
H    -6.100358  2.319687  3.286004
N    -1.103438  -2.807873  3.333618
C    0.279589  -2.823192  2.884076
H    -1.563100  -3.702064  3.477962
H    0.770989  -3.717531  3.284974
H    0.827547  -1.946292  3.246331
H    0.358608  -2.843329  1.786381
