35
Energy: -21190.4997567 eV PBE+vdW (tier 2 basis)
C    -2.033088  0.507093  0.266437
C    -1.457369  0.424269  1.666728
O    -0.268783  0.133209  1.850469
H    -3.074409  0.849595  0.230692
H    -1.972591  -0.488320  -0.192046
H    -1.410369  1.182182  -0.332493
N    -2.331237  0.690546  2.676756
C    -2.092350  0.565478  4.125230
C    -1.133923  1.634022  4.714623
O    -1.512703  2.343724  5.649172
H    -3.268574  0.959595  2.406313
H    -3.052748  0.815670  4.593709
C    -1.716234  -0.872827  4.530875
C    -1.539042  -1.030914  6.042301
C    -1.309560  -2.478981  6.493124
N    -2.451211  -3.361818  6.296336
C    -2.536932  -4.223452  5.220713
N    -3.782263  -4.879040  5.170627
N    -1.568845  -4.342343  4.377561
H    -0.801233  -1.186844  4.012304
H    -2.514839  -1.537508  4.169659
H    -2.414293  -0.616294  6.572486
H    -0.680979  -0.431399  6.384490
H    -1.045575  -2.484591  7.561978
H    -0.476297  -2.928270  5.938367
H    -3.338493  -3.041442  6.669034
H    -3.804941  -5.639831  4.499655
H    -4.137061  -5.178182  6.076438
H    -1.748607  -5.096375  3.711507
N    0.107140  1.667053  4.172407
C    1.122730  2.601741  4.612297
H    0.274421  1.061101  3.359422
H    2.049148  2.073595  4.877235
H    0.743870  3.128614  5.494627
H    1.354256  3.340276  3.830391
