35
Energy: -21190.5251519 eV PBE+vdW (tier 2 basis)
C    -4.394445  -0.155464  1.701529
C    -3.185775  -0.232016  2.609108
O    -2.102201  -0.675420  2.189305
H    -4.671421  -1.175817  1.405898
H    -4.119228  0.385795  0.788449
H    -5.265807  0.327262  2.159618
N    -3.365909  0.217657  3.877667
C    -2.423549  0.110631  5.009382
C    -1.184291  1.033693  4.919841
O    -0.813481  1.642095  5.923951
H    -4.279055  0.596689  4.096018
H    -2.959111  0.532053  5.868859
C    -2.124978  -1.380543  5.311345
C    -0.966566  -1.709310  6.258636
C    0.452298  -1.588961  5.643893
N    0.555368  -1.950433  4.240325
C    0.273225  -3.219462  3.781694
N    0.003491  -3.240223  2.402523
N    0.334569  -4.231126  4.583375
H    -1.955765  -1.897841  4.359371
H    -3.053775  -1.800517  5.724733
H    -1.107553  -2.750671  6.576363
H    -1.004388  -1.085785  7.164477
H    1.132794  -2.229454  6.220221
H    0.823984  -0.561143  5.732019
H    0.402685  -1.201326  3.578127
H    -0.311605  -4.145414  2.071274
H    -0.605616  -2.489099  2.076668
H    0.086132  -5.095919  4.098141
N    -0.554641  1.106820  3.721019
C    0.632370  1.921478  3.535359
H    -0.915638  0.522667  2.960376
H    0.781032  2.098518  2.464748
H    1.532081  1.434057  3.942802
H    0.511412  2.881273  4.051582
