35
Energy: -21190.5905382 eV PBE+vdW (tier 2 basis)
C    -1.311457  1.820986  0.122272
C    -0.841798  1.185711  1.411724
O    0.345033  0.927056  1.631916
H    -0.714004  1.425701  -0.705734
H    -1.132872  2.904999  0.192827
H    -2.377453  1.652926  -0.077293
N    -1.816728  0.981068  2.349175
C    -1.588946  0.245866  3.578859
C    -2.656637  -0.858959  3.647727
O    -3.799575  -0.668302  3.231656
H    -2.794399  1.059646  2.080214
H    -0.579540  -0.187706  3.498863
C    -1.687580  1.114064  4.859414
C    -0.427080  1.902059  5.238694
C    0.020015  2.994750  4.262560
N    -1.027639  3.971912  4.027549
C    -1.108076  4.713178  2.858368
N    -2.161261  5.636115  2.892952
N    -0.359560  4.648068  1.810961
H    -1.934669  0.450980  5.702981
H    -2.544112  1.793532  4.741437
H    0.419041  1.208642  5.367949
H    -0.597605  2.351876  6.231611
H    0.290783  2.537587  3.302526
H    0.939351  3.467915  4.654878
H    -1.383324  4.448815  4.850932
H    -2.268581  6.090214  1.990561
H    -3.040382  5.263025  3.241828
H    0.457214  4.052193  1.964587
N    -2.249422  -2.018027  4.233550
C    -3.133702  -3.147959  4.451633
H    -1.273702  -2.101308  4.492636
H    -3.202341  -3.398854  5.519223
H    -2.791061  -4.033241  3.898475
H    -4.126111  -2.864226  4.086378
