35
Energy: -21190.3829261 eV PBE+vdW (tier 2 basis)
C    2.905356  0.333392  3.346459
C    1.485283  -0.192192  3.427182
O    1.237781  -1.393785  3.291009
H    3.496527  -0.142878  4.139105
H    2.987632  1.422430  3.447299
H    3.338547  0.027392  2.386492
N    0.529703  0.748914  3.689146
C    -0.925315  0.533794  3.685428
C    -1.656826  1.823215  4.096329
O    -2.728500  2.126359  3.584238
H    0.829619  1.716561  3.638587
H    -1.264082  0.333266  2.657917
C    -1.395124  -0.646055  4.568835
C    -0.906023  -0.634075  6.029501
C    -0.662554  -2.037385  6.585991
N    0.484705  -2.628829  5.920939
C    0.894427  -3.907467  6.213569
N    1.965076  -4.337665  5.411245
N    0.361273  -4.559133  7.194396
H    -1.075516  -1.568134  4.070511
H    -2.493594  -0.640754  4.533628
H    -1.631155  -0.112905  6.669801
H    0.043638  -0.078630  6.111466
H    -1.564030  -2.665972  6.463498
H    -0.466412  -1.996116  7.666912
H    0.705330  -2.277635  4.990000
H    2.023835  -5.345518  5.318861
H    2.061117  -3.865769  4.514673
H    0.826017  -5.460459  7.327219
N    -1.044027  2.576977  5.062027
C    -1.688457  3.745426  5.638026
H    -0.277625  2.152216  5.573942
H    -0.933719  4.489214  5.919455
H    -2.288757  3.489436  6.524312
H    -2.358277  4.171640  4.884456
