35
Energy: -21190.3138271 eV PBE+vdW (tier 2 basis)
C    -1.013299  -0.784555  0.061745
C    -1.220916  -0.124591  1.412834
O    -0.744430  0.974288  1.684478
H    0.037980  -1.092031  -0.016568
H    -1.197598  -0.044928  -0.725576
H    -1.649233  -1.662182  -0.108739
N    -1.988770  -0.835596  2.296922
C    -2.166420  -0.501696  3.710135
C    -2.284815  1.018626  3.982492
O    -1.624230  1.576318  4.859091
H    -2.276238  -1.766708  2.018231
H    -3.165761  -0.889951  3.977690
C    -1.159426  -1.228550  4.632770
C    0.319258  -1.271652  4.225890
C    1.117421  0.040326  4.329900
N    1.038478  0.695943  5.623265
C    1.680096  0.190349  6.726474
N    1.319336  0.858503  7.912791
N    2.493527  -0.812626  6.635058
H    -1.510197  -2.269607  4.714133
H    -1.261029  -0.797304  5.638754
H    0.418830  -1.653742  3.196549
H    0.811174  -2.009940  4.874899
H    0.772435  0.762504  3.580131
H    2.172760  -0.185368  4.127483
H    0.161717  1.192498  5.771506
H    1.962007  0.688646  8.679135
H    1.135997  1.852400  7.795662
H    2.952470  -0.990573  7.531534
N    -3.280368  1.700608  3.343878
C    -4.149492  1.279584  2.261698
H    -3.261096  2.691240  3.565610
H    -3.656819  1.326155  1.278068
H    -5.024576  1.939947  2.243279
H    -4.511548  0.257041  2.421220
