35
Energy: -21190.2917754 eV PBE+vdW (tier 2 basis)
C    -0.525090  -0.463218  0.490803
C    -0.166482  0.286480  1.765915
O    0.995776  0.530041  2.076997
H    -0.036313  -1.445346  0.508385
H    -0.116144  0.086927  -0.365823
H    -1.604485  -0.600045  0.345635
N    -1.237929  0.660652  2.528200
C    -1.136054  1.412319  3.779229
C    -0.382326  2.758420  3.616165
O    0.541358  3.082986  4.354004
H    -2.172442  0.451245  2.185708
H    -2.174655  1.681157  4.027269
C    -0.527533  0.623841  4.949776
C    -1.068282  -0.788454  5.198653
C    -2.571044  -0.943961  5.495692
N    -3.403373  -1.013258  4.296991
C    -4.151101  0.034775  3.799641
N    -4.426390  -0.111856  2.421523
N    -4.560293  1.107153  4.384833
H    -0.661696  1.235171  5.854224
H    0.556394  0.564190  4.790868
H    -0.517794  -1.198087  6.059293
H    -0.810410  -1.445958  4.351290
H    -2.932925  -0.117126  6.123240
H    -2.735240  -1.862618  6.078773
H    -3.011989  -1.617624  3.580481
H    -5.147530  0.550982  2.145415
H    -4.684524  -1.057901  2.146720
H    -4.240663  1.161672  5.354353
N    -0.840009  3.604367  2.641414
C    -2.005843  3.478899  1.785146
H    -0.291481  4.455363  2.575683
H    -2.328051  4.483147  1.484725
H    -2.845861  3.015325  2.319996
H    -1.804888  2.894432  0.873844
