35
Energy: -21190.1136243 eV PBE+vdW (tier 2 basis)
C    0.443366  0.287689  0.157844
C    0.213339  0.035704  1.638406
O    1.110886  -0.329048  2.389800
H    1.212964  1.061703  0.047996
H    -0.456217  0.599755  -0.388292
H    0.836940  -0.629493  -0.297522
N    -1.071541  0.243213  2.073200
C    -1.467271  0.085901  3.463571
C    -1.777399  -1.352005  3.942006
O    -1.501016  -1.657793  5.098548
H    -1.761915  0.563871  1.405135
H    -0.592268  0.351877  4.073335
C    -2.638658  1.020479  3.805492
C    -2.230192  2.495840  3.854672
C    -3.405149  3.464988  4.047627
N    -4.175509  3.256319  5.274040
C    -5.257218  2.383554  5.377462
N    -6.044254  2.302474  4.223578
N    -5.588134  1.681081  6.405990
H    -3.043794  0.709637  4.777754
H    -3.458901  0.877104  3.080612
H    -1.704935  2.780977  2.928191
H    -1.499983  2.637807  4.668733
H    -4.094320  3.381984  3.197848
H    -3.026933  4.498696  4.047766
H    -3.616495  3.272794  6.122165
H    -6.885543  1.767515  4.421508
H    -6.257621  3.197633  3.790451
H    -4.860112  1.700525  7.125771
N    -2.381322  -2.250008  3.105069
C    -2.929143  -2.079967  1.770210
H    -2.526980  -3.147029  3.557385
H    -3.591192  -2.928631  1.563811
H    -2.152549  -2.056325  0.992184
H    -3.541340  -1.170980  1.689179
