35
Energy: -21190.1292301 eV PBE+vdW (tier 2 basis)
C    -0.260822  0.109948  -0.329995
C    -0.044069  0.459984  1.126658
O    0.978919  1.017918  1.517617
H    0.719226  0.058756  -0.812433
H    -0.833802  0.917867  -0.807362
H    -0.810468  -0.823827  -0.493804
N    -1.044031  0.175531  2.033792
C    -2.318555  -0.530182  1.874976
C    -2.122962  -1.967024  1.321518
O    -2.621002  -2.326668  0.255646
H    -0.811208  0.508286  2.964409
H    -2.701813  -0.641874  2.902752
C    -3.369063  0.247313  1.070207
C    -4.801023  -0.226725  1.328462
C    -5.819628  0.557351  0.504615
N    -7.169283  0.092101  0.772459
C    -8.257295  0.617309  0.083270
N    -9.477134  0.146445  0.584484
N    -8.250497  1.445969  -0.902485
H    -3.144063  0.154544  -0.000992
H    -3.267735  1.309126  1.339640
H    -5.036217  -0.113621  2.402122
H    -4.892342  -1.294597  1.085234
H    -5.609850  0.409235  -0.566276
H    -5.710471  1.641734  0.707021
H    -7.362607  -0.125692  1.746155
H    -9.499465  -0.854557  0.761980
H    -10.244444  0.443124  -0.012033
H    -7.313759  1.816130  -1.077872
N    -1.370602  -2.822340  2.073170
C    -0.679980  -2.577190  3.328626
H    -1.241892  -3.727045  1.630666
H    -0.437103  -3.543388  3.784440
H    -1.320738  -2.035760  4.037589
H    0.251185  -2.007888  3.194447
