35
Energy: -21190.4342695 eV PBE+vdW (tier 2 basis)
C    0.359121  -0.726356  0.385649
C    -0.385946  -1.102535  1.654261
O    -0.632521  -2.268799  1.945598
H    1.390132  -1.096542  0.459905
H    0.378997  0.354081  0.194963
H    -0.107969  -1.235821  -0.465208
N    -0.768579  -0.038346  2.436783
C    -1.362062  -0.225739  3.753916
C    -2.714079  0.508118  3.919671
O    -3.172084  0.758217  5.033034
H    -0.426460  0.889440  2.181574
H    -1.611530  -1.298847  3.793153
C    -0.398167  0.076187  4.922794
C    0.494455  1.308628  4.736378
C    -0.268084  2.610769  4.460150
N    0.583187  3.713107  3.989609
C    0.732796  3.981952  2.639088
N    0.876698  2.816986  1.841583
N    0.707411  5.198702  2.221370
H    0.246447  -0.800858  5.070842
H    -1.020862  0.179415  5.821989
H    1.201488  1.113999  3.914930
H    1.122256  1.441643  5.629563
H    -0.766712  2.942319  5.379936
H    -1.076041  2.443971  3.730906
H    0.467371  4.586302  4.494685
H    1.588926  2.182029  2.201755
H    1.075570  3.052708  0.872872
H    0.987620  5.268796  1.239395
N    -3.356363  0.802063  2.756453
C    -4.673185  1.404760  2.716430
H    -2.897849  0.528829  1.894507
H    -4.666393  2.329875  2.123677
H    -4.960215  1.641547  3.746580
H    -5.416947  0.715761  2.291121
