35
Energy: -21190.1930693 eV PBE+vdW (tier 2 basis)
C    0.012966  0.223038  -0.284407
C    0.343274  0.104803  1.184025
O    1.511035  0.161931  1.590561
H    0.864080  0.682354  -0.792600
H    -0.881696  0.821323  -0.485704
H    -0.155937  -0.782311  -0.693377
N    -0.660119  -0.116864  2.088826
C    -2.113033  -0.069176  1.978824
C    -2.624161  -0.801919  0.710566
O    -2.222247  -1.929114  0.443015
H    -0.291390  -0.239250  3.027685
H    -2.473214  -0.748560  2.770014
C    -2.724074  1.308728  2.331103
C    -2.424850  2.553395  1.461064
C    -1.341183  3.507041  2.007217
N    0.022554  3.100873  1.764899
C    0.732000  3.457902  0.624423
N    2.050164  3.017948  0.663897
N    0.298539  4.127374  -0.393006
H    -2.413092  1.529313  3.365188
H    -3.813892  1.160887  2.400848
H    -3.352282  3.142283  1.380661
H    -2.150703  2.281473  0.431595
H    -1.475181  3.621740  3.093124
H    -1.506031  4.509356  1.576760
H    0.577055  2.797469  2.555218
H    2.515987  3.184231  -0.222397
H    2.177841  2.063541  1.010915
H    -0.646138  4.486545  -0.239399
N    -3.575339  -0.154410  -0.019900
C    -4.172782  -0.738236  -1.206771
H    -3.815750  0.797352  0.224342
H    -5.268719  -0.711264  -1.145842
H    -3.839091  -1.779052  -1.267688
H    -3.852851  -0.210465  -2.116743
