35
Energy: -21190.154627 eV PBE+vdW (tier 2 basis)
C    -1.023567  0.103891  -0.858194
C    -0.363527  0.279503  0.491444
O    0.833947  0.546961  0.582273
H    -0.840888  -0.925548  -1.193126
H    -0.544818  0.791426  -1.562478
H    -2.106200  0.258649  -0.868693
N    -1.102693  0.103474  1.639693
C    -2.516698  -0.148617  1.883240
C    -3.096123  -1.255790  0.959064
O    -2.423701  -2.243672  0.676236
H    -0.513786  0.176969  2.464045
H    -2.541362  -0.665033  2.858378
C    -3.319541  1.159018  2.114334
C    -3.318653  2.249403  1.030409
C    -4.204215  2.038337  -0.199616
N    -5.588327  1.757840  0.182140
C    -6.483182  1.300278  -0.783812
N    -7.795950  1.193698  -0.315377
N    -6.047747  0.920080  -1.933566
H    -2.882196  1.610916  3.017583
H    -4.351005  0.899963  2.402244
H    -2.290154  2.426357  0.683331
H    -3.620723  3.192352  1.516749
H    -3.876043  1.192449  -0.813364
H    -4.140766  2.924554  -0.853796
H    -5.979684  2.413597  0.853151
H    -8.506838  1.201291  -1.037355
H    -8.054336  1.748147  0.494973
H    -6.794812  0.506419  -2.496317
N    -4.397960  -1.109634  0.598785
C    -5.073833  -2.089439  -0.232769
H    -4.872435  -0.224159  0.759696
H    -6.141475  -2.102892  0.016031
H    -4.636163  -3.075146  -0.043573
H    -4.966004  -1.851928  -1.301497
