35
Energy: -21190.4367633 eV PBE+vdW (tier 2 basis)
C    -0.180057  -0.045310  -0.319344
C    -0.033304  0.002555  1.181998
O    1.071914  -0.008434  1.732604
H    -0.354421  -1.087643  -0.622930
H    0.759589  0.289758  -0.766865
H    -1.010049  0.564286  -0.697274
N    -1.173269  0.059473  1.946847
C    -2.531853  -0.306566  1.541573
C    -3.578753  0.367205  2.464506
O    -4.698002  -0.112461  2.616728
H    -0.958303  -0.054366  2.936081
H    -2.708598  0.147216  0.552516
C    -2.786509  -1.816607  1.399164
C    -2.442386  -2.706897  2.603073
C    -0.955584  -3.009067  2.848236
N    -0.294577  -3.454679  1.620010
C    1.070817  -3.767530  1.603795
N    1.878808  -2.869340  2.287384
N    1.430589  -4.842979  0.985182
H    -2.238183  -2.174159  0.517004
H    -3.856895  -1.923347  1.180454
H    -2.962611  -3.666486  2.453590
H    -2.873604  -2.288632  3.525668
H    -0.883064  -3.769670  3.648477
H    -0.423872  -2.127946  3.226366
H    -0.781942  -4.227627  1.167076
H    2.870351  -3.025339  2.146531
H    1.627910  -1.879504  2.218915
H    2.450052  -4.904964  0.913236
N    -3.168345  1.531311  3.042251
C    -4.043844  2.348962  3.860016
H    -2.242343  1.870419  2.804124
H    -3.557610  2.610706  4.808762
H    -4.947986  1.766341  4.065469
H    -4.332785  3.274602  3.341242
