35
Energy: -21190.2388005 eV PBE+vdW (tier 2 basis)
C    0.769825  -0.889049  1.510944
C    0.691240  -0.292392  2.901811
O    1.614584  -0.368948  3.710890
H    1.703095  -1.452356  1.434566
H    0.758028  -0.105231  0.740320
H    -0.079340  -1.554350  1.303014
N    -0.476596  0.350444  3.236800
C    -1.596355  0.681344  2.367840
C    -1.300277  1.700100  1.241916
O    -1.795803  1.519255  0.129152
H    -0.459139  0.752181  4.170393
H    -1.895138  -0.217701  1.808047
C    -2.804008  1.145805  3.196449
C    -3.427369  0.034631  4.044907
C    -4.601497  0.522093  4.901961
N    -5.710037  1.058029  4.119009
C    -5.955509  2.417952  4.061066
N    -7.160736  2.710923  3.403196
N    -5.142865  3.261487  4.600511
H    -3.556898  1.537991  2.499648
H    -2.520807  1.994293  3.839626
H    -2.675535  -0.405987  4.718935
H    -3.765077  -0.779683  3.382850
H    -4.267347  1.315811  5.584909
H    -4.977699  -0.310176  5.514154
H    -6.529520  0.469458  4.035225
H    -7.270356  3.693768  3.177681
H    -7.360453  2.122389  2.597742
H    -5.426787  4.223702  4.406353
N    -0.507830  2.784685  1.489271
C    0.092764  3.258511  2.729411
H    -0.397408  3.368429  0.666140
H    0.967092  2.665465  3.030497
H    -0.630055  3.271614  3.555619
H    0.419172  4.292412  2.571242
