35
Energy: -21190.4223283 eV PBE+vdW (tier 2 basis)
C    -0.362425  -0.759744  -0.794412
C    -0.412625  -1.307585  0.619331
O    0.163434  -2.364412  0.907406
H    -0.775685  -1.514998  -1.474437
H    0.687337  -0.608866  -1.074918
H    -0.909180  0.180655  -0.933343
N    -1.111053  -0.550443  1.509742
C    -1.438436  -0.785113  2.931504
C    -0.269004  -0.956973  3.934113
O    -0.415966  -0.509008  5.073148
H    -1.495431  0.308400  1.136013
H    -1.881430  0.165108  3.254755
C    -2.524014  -1.862926  3.162308
C    -2.098546  -3.326472  3.031305
C    -3.265613  -4.279034  3.332040
N    -2.926776  -5.691187  3.295343
C    -2.265578  -6.315163  4.349308
N    -1.883747  -7.623629  4.026783
N    -1.986104  -5.847441  5.516324
H    -3.357315  -1.646182  2.473896
H    -2.907577  -1.689390  4.180072
H    -1.273403  -3.540796  3.726225
H    -1.710259  -3.531084  2.024198
H    -4.080964  -4.112998  2.610648
H    -3.691901  -4.061085  4.323761
H    -2.672263  -6.049830  2.379623
H    -1.526912  -8.100977  4.849775
H    -2.601037  -8.167575  3.553858
H    -2.185145  -4.847354  5.588406
N    0.827428  -1.621881  3.510345
C    1.929944  -1.909727  4.409082
H    0.782484  -2.069087  2.586072
H    2.837637  -2.083695  3.820566
H    1.732543  -2.797890  5.029388
H    2.086678  -1.058534  5.081135
