35
Energy: -21190.2097817 eV PBE+vdW (tier 2 basis)
C    1.134983  1.056995  0.770291
C    0.541810  1.126479  2.166444
O    1.026941  1.830472  3.048207
H    2.116811  0.569752  0.832468
H    1.299782  2.077511  0.405785
H    0.516018  0.510636  0.047769
N    -0.577236  0.362245  2.363017
C    -1.234358  0.156071  3.654338
C    -1.298320  1.431130  4.531700
O    -0.960962  1.418896  5.713058
H    -0.875759  -0.235423  1.601268
H    -2.291712  -0.052041  3.412030
C    -0.710789  -1.088231  4.406278
C    0.807300  -1.284325  4.525354
C    1.547149  -0.381961  5.528763
N    1.027174  -0.438958  6.891659
C    0.997539  -1.601834  7.637169
N    2.120877  -2.427113  7.460002
N    -0.019242  -1.853532  8.394894
H    -1.116814  -1.963263  3.874489
H    -1.172753  -1.099298  5.403468
H    1.284387  -1.172538  3.537924
H    0.974151  -2.331158  4.821388
H    1.495118  0.665487  5.212119
H    2.613646  -0.654351  5.518840
H    0.171238  0.103075  7.002400
H    2.203718  -3.148987  8.167302
H    2.997764  -1.931723  7.319027
H    0.159759  -2.664653  8.993932
N    -1.897576  2.538385  4.000045
C    -2.343658  2.796948  2.644823
H    -1.870341  3.325810  4.640344
H    -1.520213  3.081820  1.971093
H    -3.069882  3.618098  2.669299
H    -2.851867  1.922221  2.221309
