35
Energy: -21189.9467008 eV PBE+vdW (tier 2 basis)
C    -0.279964  0.636090  0.233163
C    -0.229405  0.406960  1.726243
O    0.832599  0.488391  2.354543
H    -0.542952  1.685664  0.039345
H    -0.996526  -0.016117  -0.279041
H    0.722971  0.460077  -0.165631
N    -1.386876  0.125379  2.395585
C    -2.781835  0.231439  1.962706
C    -3.122822  -0.945765  0.996168
O    -2.963623  -2.084926  1.426727
H    -1.225780  -0.078069  3.376700
H    -3.356098  -0.071965  2.851264
C    -3.220897  1.669049  1.637281
C    -3.087269  2.663443  2.805998
C    -1.686126  3.224553  3.090819
N    -1.100551  3.808287  1.881013
C    0.223221  4.284545  1.841185
N    1.133029  3.546758  2.573501
N    0.618991  5.321943  1.179796
H    -4.281188  1.631266  1.347889
H    -2.672343  2.069210  0.776066
H    -3.472456  2.212875  3.735038
H    -3.757422  3.513340  2.594847
H    -1.016748  2.441156  3.458087
H    -1.768086  3.969419  3.904330
H    -1.721665  4.481726  1.437773
H    1.041649  2.528909  2.574615
H    2.081915  3.859952  2.396599
H    -0.174232  5.849375  0.804047
N    -3.617526  -0.763693  -0.268850
C    -3.834930  0.410849  -1.102324
H    -3.816409  -1.663044  -0.697935
H    -4.036219  0.060406  -2.120309
H    -2.952307  1.059701  -1.147748
H    -4.697332  1.009592  -0.777808
