35
Energy: -21190.4189995 eV PBE+vdW (tier 2 basis)
C    -1.334026  -0.458665  0.203126
C    -0.903074  -0.400924  1.655257
O    0.277930  -0.464568  1.992724
H    -0.868645  -1.331389  -0.269777
H    -0.953466  0.433566  -0.310688
H    -2.421086  -0.509394  0.065481
N    -1.922280  -0.278493  2.564624
C    -1.687569  -0.085693  3.991382
C    -2.459267  -1.174669  4.771115
O    -3.506660  -0.924407  5.378330
H    -2.872455  -0.171275  2.225879
H    -0.604281  -0.224718  4.121661
C    -2.087050  1.320374  4.444313
C    -1.723033  1.623635  5.908765
C    -2.758808  2.512721  6.606256
N    -4.071759  1.861672  6.633447
C    -5.205112  2.417764  6.054684
N    -5.267663  3.812961  6.128417
N    -6.164794  1.776231  5.474694
H    -3.171652  1.432725  4.301850
H    -1.597398  2.038731  3.772431
H    -0.734951  2.103069  5.968941
H    -1.639015  0.686275  6.481382
H    -2.853427  3.473002  6.078944
H    -2.412343  2.736131  7.629587
H    -4.022592  0.854912  6.471559
H    -6.180946  4.140257  5.827150
H    -4.990968  4.208204  7.023142
H    -5.919695  0.787842  5.363691
N    -1.949022  -2.435863  4.756315
C    -0.832274  -2.963813  3.988559
H    -2.549106  -3.105067  5.231356
H    -0.357244  -3.773332  4.555473
H    -0.080196  -2.191218  3.799250
H    -1.155702  -3.359300  3.013188
