35
Energy: -21190.1236878 eV PBE+vdW (tier 2 basis)
C    -0.828749  0.827148  -1.321121
C    -0.155273  0.349825  -0.059759
O    1.020536  -0.036461  -0.063257
H    -1.911071  0.672721  -1.311520
H    -0.380900  0.281907  -2.157980
H    -0.596874  1.893502  -1.454598
N    -0.829196  0.352991  1.139398
C    -2.062201  0.997411  1.580242
C    -3.329418  0.229579  1.134897
O    -3.396836  -0.393342  0.081000
H    -0.237687  -0.012876  1.879338
H    -2.015641  0.938557  2.678374
C    -2.182114  2.497741  1.220862
C    -1.230293  3.428668  1.988950
C    0.254284  3.398530  1.607051
N    0.439278  3.774285  0.203098
C    1.707765  3.751502  -0.407861
N    2.494068  2.666122  -0.067665
N    2.152833  4.639255  -1.234010
H    -3.215172  2.810212  1.434751
H    -2.054411  2.626209  0.138908
H    -1.307315  3.224599  3.069752
H    -1.595893  4.461854  1.861344
H    0.680620  2.402240  1.762825
H    0.802147  4.079823  2.285472
H    -0.039288  4.642718  -0.026161
H    2.038116  1.752331  -0.008230
H    3.339385  2.644521  -0.629309
H    1.530151  5.451080  -1.278591
N    -4.406139  0.311995  1.978333
C    -4.475406  0.887030  3.312166
H    -5.215756  -0.195922  1.636134
H    -5.499965  0.775027  3.681992
H    -4.241394  1.961269  3.316830
H    -3.807555  0.378976  4.025000
