35
Energy: -21190.5853262 eV PBE+vdW (tier 2 basis)
C    -0.881774  3.884897  1.504806
C    -1.547568  2.776099  2.291427
O    -2.667563  2.923263  2.797990
H    -0.833970  4.783099  2.132420
H    -1.508256  4.125346  0.636501
H    0.127390  3.631769  1.158828
N    -0.842564  1.622718  2.403002
C    -1.341990  0.465017  3.125418
C    -0.107263  -0.255916  3.681191
O    0.908023  -0.354008  2.987143
H    0.079876  1.516202  1.988920
H    -1.994421  0.844925  3.921646
C    -2.150443  -0.465985  2.188111
C    -2.945645  -1.574198  2.881213
C    -4.157789  -1.066560  3.674170
N    -5.152096  -0.431051  2.813355
C    -5.884977  0.686505  3.218025
N    -5.133153  1.662930  3.864957
N    -7.154218  0.696068  2.974259
H    -1.449204  -0.894591  1.457644
H    -2.853430  0.169539  1.630295
H    -2.299834  -2.171316  3.544818
H    -3.301118  -2.276349  2.111040
H    -3.858727  -0.326551  4.426539
H    -4.604580  -1.909808  4.232072
H    -5.786581  -1.081748  2.356337
H    -5.670658  2.493852  4.086527
H    -4.228356  1.909787  3.447852
H    -7.555632  1.619685  3.158907
N    -0.165383  -0.793274  4.930800
C    -1.220101  -0.707189  5.928910
H    0.681576  -1.295393  5.181908
H    -0.768593  -0.791051  6.923988
H    -1.970393  -1.504727  5.823764
H    -1.732249  0.260212  5.880841
