35
Energy: -21189.9016105 eV PBE+vdW (tier 2 basis)
C    -0.256256  0.047595  -0.239458
C    0.062290  -0.516306  1.130946
O    1.164566  -1.014784  1.357828
H    -1.123568  -0.438718  -0.701931
H    0.622059  -0.123368  -0.867242
H    -0.460682  1.124388  -0.197093
N    -0.859763  -0.464787  2.156673
C    -2.267803  -0.086365  2.341007
C    -3.118362  -1.299192  2.792043
O    -3.785410  -1.212272  3.825267
H    -0.445039  -0.865866  2.995911
H    -2.296060  0.550315  3.238480
C    -2.921833  0.740415  1.221186
C    -4.325059  1.269341  1.567560
C    -5.476576  0.285300  1.283564
N    -6.799521  0.867785  1.410086
C    -7.340032  1.698798  0.437243
N    -8.534444  2.297608  0.852758
N    -6.880962  1.960537  -0.739213
H    -2.975532  0.176659  0.279051
H    -2.264143  1.599054  1.029947
H    -4.502327  2.178530  0.975668
H    -4.365111  1.573962  2.624676
H    -5.431888  -0.571431  1.966541
H    -5.379634  -0.120298  0.263656
H    -7.096780  1.069787  2.359510
H    -8.980696  2.778181  0.076723
H    -9.177422  1.674710  1.334756
H    -5.946928  1.569514  -0.878658
N    -3.130420  -2.443795  2.048833
C    -2.444576  -2.771295  0.808249
H    -3.697037  -3.170278  2.475535
H    -1.363003  -2.905000  0.945581
H    -2.610508  -2.007418  0.038366
H    -2.862307  -3.709441  0.427652
