35
Energy: -21190.2143345 eV PBE+vdW (tier 2 basis)
C    0.158340  0.409536  0.599617
C    -0.116995  0.412374  2.089015
O    0.765823  0.621033  2.915767
H    1.216375  0.173619  0.453411
H    -0.024632  1.414918  0.195697
H    -0.461379  -0.296718  0.034850
N    -1.409462  0.160258  2.514710
C    -2.643381  0.035758  1.733395
C    -2.729085  -1.283815  0.919345
O    -3.460081  -1.378096  -0.063603
H    -1.502553  0.271073  3.520435
H    -3.431365  -0.077874  2.495656
C    -2.996513  1.265798  0.866149
C    -4.497104  1.570002  0.765479
C    -5.161422  2.016673  2.077141
N    -4.571550  3.196865  2.718152
C    -4.516473  4.446774  2.096657
N    -5.629460  4.742557  1.312657
N    -3.565740  5.312469  2.190992
H    -2.606946  1.119836  -0.148928
H    -2.472929  2.137690  1.285371
H    -5.025895  0.686185  0.379987
H    -4.637715  2.367665  0.021744
H    -5.139413  1.214456  2.830700
H    -6.228360  2.201027  1.889100
H    -3.721114  3.004484  3.237153
H    -5.617655  5.715369  1.021875
H    -6.525781  4.456000  1.694819
H    -2.750502  4.922321  2.672152
N    -1.988361  -2.310253  1.417042
C    -1.965522  -3.627513  0.812694
H    -1.371882  -2.100274  2.194674
H    -2.246477  -4.399827  1.541545
H    -0.970654  -3.866066  0.410394
H    -2.689898  -3.629615  -0.008714
