35
Energy: -21190.0000669 eV PBE+vdW (tier 2 basis)
C    -0.208636  -0.386731  -0.550570
C    0.097155  -0.196043  0.919274
O    1.246698  -0.249189  1.349231
H    0.662844  -0.866777  -1.004608
H    -0.348151  0.590186  -1.035031
H    -1.098027  -1.003801  -0.713616
N    -0.923636  0.101776  1.806422
C    -2.376336  0.130212  1.693998
C    -2.985690  -1.284927  1.530393
O    -2.433293  -2.170744  0.886756
H    -0.558081  0.152231  2.752809
H    -2.712701  0.531040  2.662179
C    -2.952776  1.071072  0.609701
C    -2.804805  2.571042  0.894212
C    -1.379535  3.123778  0.827628
N    -1.396063  4.566958  0.986959
C    -0.209818  5.280199  1.159149
N    -0.425365  6.664054  1.134097
N    0.981798  4.824990  1.321628
H    -4.025964  0.845763  0.517449
H    -2.520594  0.816610  -0.366694
H    -3.234011  2.810834  1.880741
H    -3.422219  3.110003  0.155588
H    -0.903194  2.815487  -0.123871
H    -0.768487  2.699268  1.634314
H    -2.080268  5.051593  0.411332
H    0.425601  7.160322  1.383567
H    -1.222524  6.976041  1.682881
H    1.033910  3.813787  1.179871
N    -4.205771  -1.489772  2.117935
C    -4.956061  -0.598230  2.987980
H    -4.568398  -2.425868  1.966628
H    -5.895063  -1.092123  3.258896
H    -5.214945  0.349097  2.493219
H    -4.418993  -0.371377  3.921669
