35
Energy: -21190.3115123 eV PBE+vdW (tier 2 basis)
C    -1.723100  1.162010  -0.634206
C    -0.550742  0.523399  0.086345
O    0.616024  0.812064  -0.203719
H    -2.187562  0.446706  -1.328347
H    -1.344235  2.007449  -1.214457
H    -2.501116  1.512372  0.057208
N    -0.826132  -0.378445  1.071475
C    -2.070328  -1.090700  1.294139
C    -2.027471  -1.615133  2.740336
O    -0.959455  -1.868337  3.292852
H    -0.010175  -0.808102  1.515948
H    -2.910333  -0.390935  1.183325
C    -2.284862  -2.284368  0.312111
C    -1.056038  -3.198427  0.152594
C    -0.135378  -2.784991  -1.016214
N    1.190768  -3.381657  -1.002147
C    2.117573  -3.120733  0.005232
N    2.056857  -1.838428  0.543575
N    2.911021  -4.075857  0.360974
H    -2.580575  -1.875412  -0.667555
H    -3.148622  -2.867252  0.663896
H    -1.387794  -4.234225  -0.008825
H    -0.470972  -3.210576  1.083555
H    -0.025980  -1.693745  -1.048720
H    -0.605829  -3.058595  -1.972675
H    1.230486  -4.368645  -1.242013
H    2.838567  -1.604954  1.144090
H    1.774161  -1.054445  -0.047498
H    3.624458  -3.741297  1.013613
N    -3.225074  -1.837181  3.357166
C    -4.555749  -1.473709  2.896676
H    -3.128178  -2.210657  4.295969
H    -4.831871  -1.991074  1.966972
H    -4.661884  -0.389577  2.740503
H    -5.277376  -1.770470  3.664687
