35
Energy: -21190.2047616 eV PBE+vdW (tier 2 basis)
C    -0.137345  0.890028  -0.221821
C    -0.064435  0.034201  1.030498
O    0.939434  -0.608080  1.325042
H    -1.043670  1.504120  -0.293657
H    -0.087441  0.229876  -1.097393
H    0.743311  1.542130  -0.254771
N    -1.192313  0.046278  1.808842
C    -1.416856  -0.784334  2.995759
C    -0.137463  -1.039006  3.836381
O    0.206224  -2.178297  4.153023
H    -1.992397  0.564779  1.465721
H    -2.073860  -0.189028  3.654391
C    -2.150352  -2.094035  2.678168
C    -1.446710  -3.017622  1.665462
C    -1.660658  -4.499100  1.985667
N    -1.038099  -4.828365  3.267542
C    -1.653588  -5.576539  4.254906
N    -2.584511  -6.508857  3.780276
N    -1.456300  -5.485054  5.529119
H    -3.159609  -1.841157  2.317494
H    -2.288517  -2.622986  3.631719
H    -0.366880  -2.816816  1.656185
H    -1.805725  -2.816070  0.645777
H    -1.232418  -5.106630  1.168878
H    -2.735642  -4.734688  2.033740
H    -0.436415  -4.088723  3.633302
H    -2.875778  -7.124358  4.534323
H    -2.291935  -7.024581  2.954454
H    -0.863605  -4.677748  5.743724
N    0.510016  0.044605  4.351194
C    0.311992  1.453435  4.069909
H    1.352044  -0.217558  4.854852
H    0.737497  2.036962  4.894693
H    -0.755661  1.696531  4.011568
H    0.794614  1.770878  3.132360
