35
Energy: -21190.1933859 eV PBE+vdW (tier 2 basis)
C    0.478006  -0.790176  -0.469176
C    0.517663  0.095030  0.761265
O    1.191260  1.122991  0.781633
H    -0.426993  -1.394897  -0.578092
H    0.602275  -0.150701  -1.348417
H    1.337310  -1.474837  -0.427909
N    -0.130968  -0.316328  1.918026
C    -1.355937  -1.117709  2.067427
C    -1.242316  -2.540805  1.472138
O    -2.187324  -3.087657  0.909850
H    -0.002618  0.385150  2.645764
H    -1.431446  -1.299964  3.153007
C    -2.645271  -0.377691  1.670111
C    -2.735311  0.135563  0.235278
C    -3.836144  1.188069  0.041342
N    -3.735297  2.346971  0.939293
C    -3.054097  3.522359  0.615182
N    -1.895577  3.331382  -0.133777
N    -3.405755  4.721025  0.940076
H    -2.742554  0.483496  2.349806
H    -3.489280  -1.050892  1.879399
H    -2.920732  -0.695901  -0.459858
H    -1.782079  0.585056  -0.074847
H    -4.815026  0.725760  0.233844
H    -3.835039  1.518900  -1.008800
H    -4.579944  2.538672  1.464142
H    -1.406632  4.213005  -0.260009
H    -1.271271  2.595324  0.186069
H    -4.349988  4.737693  1.336174
N    -0.044450  -3.144975  1.706757
C    0.271451  -4.474382  1.223969
H    0.689319  -2.572490  2.110631
H    0.709987  -5.084380  2.024281
H    0.973461  -4.442952  0.376812
H    -0.661556  -4.938644  0.887819
