35
Energy: -21190.7397778 eV PBE+vdW (tier 2 basis)
C    -0.998408  -4.356692  1.427859
C    -0.927442  -2.942300  1.963072
O    -0.127706  -2.110401  1.505901
H    -1.409286  -4.329147  0.409159
H    -1.612970  -5.021977  2.045255
H    0.019500  -4.756662  1.354890
N    -1.800734  -2.645139  2.961542
C    -1.883530  -1.308493  3.550067
C    -0.795063  -1.138540  4.651407
O    -1.068151  -1.092682  5.850796
H    -2.394661  -3.396656  3.333452
H    -1.642633  -0.603177  2.738176
C    -3.264725  -0.985636  4.120007
C    -4.398778  -0.766988  3.107805
C    -5.052007  -2.028616  2.515776
N    -5.562604  -2.945881  3.526197
C    -4.844221  -4.031152  3.987132
N    -5.136521  -4.388228  5.294993
N    -3.989349  -4.739865  3.312675
H    -3.142734  -0.069102  4.711949
H    -3.542429  -1.751071  4.860418
H    -4.046914  -0.139867  2.272356
H    -5.189718  -0.182238  3.605555
H    -4.334357  -2.577219  1.893991
H    -5.876426  -1.735165  1.849088
H    -6.253096  -2.568357  4.167284
H    -5.188315  -3.635370  5.974798
H    -4.582843  -5.179126  5.608385
H    -4.053995  -4.519610  2.314852
N    0.459568  -1.050263  4.138876
C    1.641650  -1.001241  4.975458
H    0.550822  -1.207269  3.129978
H    2.184675  -1.958730  4.968171
H    1.325762  -0.786595  6.001886
H    2.322637  -0.210544  4.633794
