35
Energy: -21189.9596783 eV PBE+vdW (tier 2 basis)
C    -0.263159  0.098912  -0.280641
C    -0.090544  -0.396021  1.141486
O    0.982690  -0.842222  1.540803
H    -0.573936  1.151127  -0.312083
H    -1.014231  -0.497494  -0.815476
H    0.699645  -0.002761  -0.787711
N    -1.165780  -0.333101  1.998026
C    -2.570969  0.032570  1.778559
C    -3.272658  -1.034766  0.882644
O    -3.397180  -2.161756  1.363841
H    -0.967353  -0.810375  2.871864
H    -3.042425  -0.185875  2.747585
C    -2.791421  1.534636  1.539669
C    -4.243892  1.956133  1.779827
C    -4.505391  3.403142  1.345554
N    -5.898304  3.817282  1.424683
C    -6.800980  3.413383  0.458549
N    -8.115439  3.785337  0.769528
N    -6.409911  2.745603  -0.575997
H    -2.475708  1.842511  0.535335
H    -2.126430  2.065184  2.238334
H    -4.490119  1.836915  2.847995
H    -4.934703  1.304171  1.226844
H    -4.196349  3.531790  0.299605
H    -3.910831  4.101866  1.953208
H    -6.284578  3.910131  2.358369
H    -8.775998  3.637515  0.014498
H    -8.216079  4.706980  1.187002
H    -7.169324  2.635966  -1.251462
N    -3.724784  -0.790520  -0.385760
C    -3.793119  0.397216  -1.234077
H    -4.162604  -1.628380  -0.759024
H    -4.555668  1.122547  -0.912080
H    -4.064362  0.059002  -2.240685
H    -2.822126  0.897499  -1.318274
