35
Energy: -21190.159986 eV PBE+vdW (tier 2 basis)
C    -0.507136  0.296311  0.235822
C    -0.746930  1.005896  1.560188
O    -0.145906  2.033640  1.862678
H    0.283489  0.834697  -0.292961
H    -1.412764  0.296937  -0.387937
H    -0.197866  -0.749197  0.373469
N    -1.682483  0.460669  2.400374
C    -2.409033  -0.789300  2.246760
C    -3.763629  -0.591383  2.952135
O    -3.802822  -0.100217  4.078617
H    -1.825331  0.946248  3.284779
H    -2.553037  -0.980623  1.175630
C    -1.654816  -1.979496  2.882727
C    -2.290999  -3.350485  2.657358
C    -1.507912  -4.488290  3.327463
N    -1.503528  -4.398879  4.784702
C    -0.355296  -4.446650  5.563143
N    0.749560  -3.797832  4.997839
N    -0.396277  -5.078021  6.686898
H    -1.573042  -1.781325  3.962425
H    -0.633293  -1.973840  2.468417
H    -2.352004  -3.568092  1.577685
H    -3.323758  -3.357690  3.041566
H    -0.466067  -4.483823  2.978646
H    -1.936416  -5.455487  3.016433
H    -2.252690  -4.896647  5.256321
H    1.540511  -3.725957  5.628150
H    0.549669  -2.913651  4.537199
H    0.446602  -4.910382  7.242112
N    -4.893736  -0.992067  2.303542
C    -5.029337  -1.493813  0.944317
H    -5.741165  -0.826372  2.838100
H    -6.093652  -1.657680  0.746248
H    -4.514580  -2.453610  0.800879
H    -4.659395  -0.776092  0.197746
