35
Energy: -21190.5205943 eV PBE+vdW (tier 2 basis)
C    -2.118585  0.236673  -0.970219
C    -1.539884  -0.028136  0.407886
O    -0.418975  -0.489990  0.579408
H    -3.199637  0.425325  -0.968230
H    -1.900208  -0.619560  -1.617917
H    -1.611352  1.111023  -1.399850
N    -2.371368  0.277496  1.465906
C    -1.881443  0.318642  2.842469
C    -1.700943  -1.076026  3.465693
O    -0.988167  -1.235406  4.463540
H    -3.228475  0.781882  1.264688
H    -0.884254  0.779317  2.855166
C    -2.856113  1.179556  3.677359
C    -2.437634  1.476752  5.123351
C    -1.435966  2.628182  5.291907
N    -0.201148  2.531698  4.500287
C    0.969120  1.974441  5.033236
N    0.772001  0.784657  5.716778
N    2.073586  2.622220  4.857672
H    -3.838097  0.677907  3.679143
H    -2.987572  2.133174  3.137288
H    -2.056095  0.564817  5.599666
H    -3.337768  1.757950  5.691959
H    -1.204962  2.734432  6.365360
H    -1.926441  3.561703  4.977556
H    0.057616  3.408164  4.056296
H    0.118697  0.111716  5.296136
H    1.632588  0.346242  6.025100
H    2.878696  2.059431  5.146805
N    -2.408454  -2.077338  2.892618
C    -2.303384  -3.459312  3.317271
H    -2.868617  -1.856215  2.016006
H    -1.680511  -4.046208  2.626339
H    -3.298039  -3.918954  3.380133
H    -1.835346  -3.473837  4.306850
