35
Energy: -21190.4247438 eV PBE+vdW (tier 2 basis)
C    -0.099755  1.605154  0.619620
C    0.101757  0.680094  1.804590
O    1.165384  0.604666  2.411098
H    -0.256590  1.031129  -0.305065
H    0.802398  2.211584  0.507852
H    -0.970034  2.262779  0.749191
N    -0.982693  -0.081609  2.193494
C    -2.280649  -0.180980  1.538664
C    -3.301698  0.909234  1.946114
O    -4.367393  1.009832  1.340733
H    -0.762250  -0.744707  2.933030
H    -2.146823  -0.048275  0.455428
C    -2.907962  -1.571011  1.754847
C    -3.325966  -1.867901  3.197569
C    -3.903952  -3.283295  3.378616
N    -2.980494  -4.376973  3.129009
C    -1.955361  -4.696511  4.011398
N    -1.064985  -5.633259  3.474085
N    -1.749164  -4.239757  5.198793
H    -2.184166  -2.320536  1.399082
H    -3.790485  -1.629408  1.102132
H    -4.093263  -1.144394  3.513665
H    -2.476868  -1.743592  3.888336
H    -4.763160  -3.419221  2.705180
H    -4.296404  -3.394685  4.400220
H    -2.776504  -4.571937  2.154676
H    -0.410665  -5.949115  4.184568
H    -1.506812  -6.413036  2.993760
H    -2.392207  -3.481305  5.434373
N    -2.934990  1.691557  2.993407
C    -3.772679  2.752514  3.515573
H    -2.024225  1.512252  3.403696
H    -3.271535  3.727477  3.440832
H    -4.034672  2.570085  4.567027
H    -4.690305  2.775423  2.917771
