35
Energy: -21190.6030264 eV PBE+vdW (tier 2 basis)
C    0.414658  1.293754  3.234843
C    -0.750337  0.711522  4.005055
O    -1.264091  1.310546  4.959330
H    1.228242  1.511665  3.937455
H    0.101670  2.247514  2.791581
H    0.788275  0.635188  2.441918
N    -1.196163  -0.500099  3.584491
C    -2.286665  -1.192327  4.240620
C    -2.121415  -2.682922  3.918336
O    -1.552963  -3.054359  2.890791
H    -0.753711  -1.009475  2.822377
H    -2.177706  -1.023557  5.322779
C    -3.672972  -0.664200  3.774836
C    -4.807889  -0.795855  4.795442
C    -4.551852  -0.035855  6.119228
N    -4.090530  1.327517  5.968153
C    -4.888944  2.439626  5.785643
N    -6.268315  2.217425  5.909621
N    -4.475829  3.648154  5.592669
H    -3.944273  -1.159977  2.831619
H    -3.542882  0.401234  3.541979
H    -5.023300  -1.852919  5.025495
H    -5.723415  -0.408323  4.320676
H    -3.795224  -0.570852  6.715691
H    -5.465167  -0.042168  6.730840
H    -3.105530  1.446631  5.724086
H    -6.635949  1.417603  5.402051
H    -6.767499  3.071558  5.676602
H    -3.454651  3.697287  5.650416
N    -2.678347  -3.532861  4.821719
C    -2.692219  -4.974406  4.648961
H    -3.078380  -3.137897  5.664379
H    -3.719996  -5.362022  4.652556
H    -2.118943  -5.474943  5.441270
H    -2.228690  -5.196209  3.682493
