35
Energy: -21190.1576577 eV PBE+vdW (tier 2 basis)
C    -0.320836  0.122194  -0.189118
C    -0.269029  0.221434  1.324675
O    0.753349  0.540649  1.923840
H    0.325243  -0.707541  -0.503849
H    0.096791  1.040702  -0.617381
H    -1.327485  -0.040178  -0.593926
N    -1.448272  -0.057717  1.966873
C    -1.623255  -0.163023  3.417785
C    -0.674765  0.757979  4.230326
O    0.071819  0.300994  5.095947
H    -2.229226  -0.364208  1.398295
H    -2.641198  0.211565  3.627044
C    -1.547800  -1.612264  3.918902
C    -0.217178  -2.330075  3.625483
C    0.279637  -3.137048  4.838840
N    1.643692  -3.622321  4.738962
C    2.772393  -2.810616  4.872268
N    2.555205  -1.585892  5.479166
N    3.980236  -3.159479  4.562813
H    -2.394550  -2.166332  3.485288
H    -1.724589  -1.584124  5.004592
H    0.554369  -1.596506  3.361732
H    -0.318849  -2.996321  2.755346
H    -0.375649  -4.004248  5.015925
H    0.205493  -2.511202  5.739742
H    1.791816  -4.405871  4.113921
H    3.393348  -1.015854  5.458922
H    1.703679  -1.063720  5.277186
H    4.010351  -4.129327  4.236473
N    -0.819077  2.105242  4.076088
C    -1.557182  2.830273  3.059275
H    -0.129404  2.625944  4.610022
H    -1.736809  3.850633  3.417487
H    -2.534798  2.367054  2.880309
H    -1.015922  2.885242  2.101838
