35
Energy: -21190.7955026 eV PBE+vdW (tier 2 basis)
C    -1.964075  2.101334  2.728114
C    -1.417799  1.010519  3.620449
O    -0.278975  0.539828  3.477195
H    -1.480149  3.051748  2.992474
H    -3.052160  2.215002  2.816461
H    -1.696385  1.874087  1.690201
N    -2.260231  0.593939  4.607982
C    -1.879706  -0.468000  5.539674
C    -2.094107  -1.857973  4.881354
O    -3.064063  -2.597710  5.107104
H    -3.227862  0.909709  4.551059
H    -0.790617  -0.352656  5.645996
C    -2.466494  -0.283654  6.951830
C    -3.924587  -0.643155  7.300478
C    -5.036714  0.000676  6.466656
N    -5.173532  -0.648215  5.169463
C    -5.232569  0.057249  3.987379
N    -4.962491  -0.721040  2.866473
N    -5.428270  1.331224  3.816325
H    -2.285815  0.771569  7.212735
H    -1.827253  -0.870677  7.628359
H    -4.077893  -0.338131  8.346854
H    -4.054356  -1.733784  7.279036
H    -4.828458  1.075829  6.327479
H    -5.987319  -0.057936  7.021717
H    -4.661518  -1.536343  5.114874
H    -5.303375  -0.303646  2.007962
H    -5.147081  -1.714543  2.948854
H    -5.618927  1.801761  4.703046
N    -1.107621  -2.172416  4.011825
C    -1.172275  -3.346860  3.163159
H    -0.465156  -1.408650  3.771154
H    -1.662090  -4.159301  3.710252
H    -0.157068  -3.653800  2.887963
H    -1.747009  -3.155985  2.243066
