35
Energy: -21190.1907295 eV PBE+vdW (tier 2 basis)
C    1.964585  -0.921416  1.306246
C    0.865503  -0.503540  2.265143
O    1.123346  -0.082916  3.392270
H    2.787724  -1.364226  1.875805
H    2.342011  -0.017033  0.808740
H    1.631063  -1.626960  0.534649
N    -0.405385  -0.660865  1.771038
C    -1.619987  -0.008933  2.253378
C    -1.680772  1.434593  1.685362
O    -0.672527  2.011470  1.291382
H    -0.439605  -0.911318  0.789134
H    -2.450079  -0.590189  1.817364
C    -1.796204  -0.010095  3.783592
C    -1.684448  -1.395409  4.417358
C    -1.921788  -1.386631  5.934535
N    -1.178619  -0.363559  6.681759
C    0.121174  -0.575099  7.149998
N    0.989451  -1.122844  6.213302
N    0.376746  -0.269206  8.379787
H    -2.789145  0.410253  4.004913
H    -1.064958  0.666452  4.237717
H    -0.698305  -1.825558  4.202805
H    -2.421209  -2.083599  3.969671
H    -1.718549  -2.397560  6.329882
H    -2.985139  -1.178284  6.124045
H    -1.715888  0.035199  7.446145
H    1.947469  -1.182559  6.540331
H    0.934833  -0.748181  5.262216
H    1.382980  -0.310673  8.566039
N    -2.908372  2.037689  1.624656
C    -4.208648  1.542453  2.039976
H    -2.853079  2.999632  1.302876
H    -4.983775  2.017684  1.426766
H    -4.428646  1.754124  3.098181
H    -4.286977  0.460269  1.882349
