35
Energy: -21190.3506772 eV PBE+vdW (tier 2 basis)
C    0.219756  -0.086217  0.077694
C    -0.483138  0.773229  1.114011
O    -0.320902  1.986677  1.185713
H    -0.052107  0.274697  -0.921905
H    -0.018765  -1.155156  0.147232
H    1.303182  0.046141  0.188483
N    -1.313717  0.097970  1.971091
C    -2.073738  0.773942  3.009734
C    -1.255430  1.326278  4.191700
O    -1.656349  2.352795  4.757091
H    -1.407167  -0.905915  1.874784
H    -2.523445  1.673537  2.566193
C    -3.195935  -0.162355  3.510942
C    -4.239675  0.496279  4.439108
C    -4.189796  0.076238  5.915491
N    -2.969446  0.431900  6.616837
C    -2.031739  -0.481796  7.057956
N    -0.917241  0.145804  7.644457
N    -2.035110  -1.772005  6.991921
H    -2.746658  -1.035860  4.010422
H    -3.702265  -0.545374  2.612400
H    -5.248783  0.252916  4.075298
H    -4.151061  1.590402  4.376687
H    -4.334229  -1.010172  6.003004
H    -5.048311  0.535568  6.433010
H    -2.599133  1.356410  6.392228
H    -0.364457  -0.536409  8.156450
H    -1.150343  0.951558  8.219668
H    -2.836528  -2.123300  6.463631
N    -0.166474  0.659940  4.652780
C    0.323666  -0.674850  4.340550
H    0.149398  1.042423  5.541347
H    -0.481371  -1.420873  4.300797
H    0.987861  -0.979122  5.156319
H    0.893710  -0.697876  3.402579
