35
Energy: -21190.1626167 eV PBE+vdW (tier 2 basis)
C    -0.206528  -1.652312  0.658013
C    0.085885  -0.878735  1.930657
O    1.099275  -1.092897  2.603156
H    0.719536  -2.128687  0.324908
H    -0.600463  -1.013726  -0.143882
H    -0.947646  -2.441458  0.851723
N    -0.810189  0.078944  2.307641
C    -2.190566  0.220685  1.901269
C    -2.664167  1.575530  2.460405
O    -2.160641  2.063013  3.468469
H    -0.624980  0.501355  3.221272
H    -2.242346  0.252287  0.803508
C    -3.160037  -0.917159  2.390455
C    -2.739276  -1.773675  3.597645
C    -2.481115  -1.080686  4.949410
N    -1.077707  -0.755428  5.114213
C    -0.596021  -0.053401  6.213045
N    0.797696  -0.036157  6.244205
N    -1.270515  0.533404  7.141181
H    -3.326248  -1.603187  1.546908
H    -4.141068  -0.465887  2.605274
H    -1.856507  -2.379868  3.339318
H    -3.550470  -2.502043  3.742409
H    -2.836081  -1.744913  5.760469
H    -3.067087  -0.151354  5.021950
H    -0.425044  -1.436963  4.734278
H    1.151011  0.645738  6.907007
H    1.257854  0.000819  5.337554
H    -2.271824  0.352569  7.048288
N    -3.703016  2.179738  1.812244
C    -4.326966  1.793149  0.556553
H    -3.987950  3.054651  2.240487
H    -3.618125  1.809393  -0.285104
H    -5.123045  2.511170  0.334293
H    -4.787545  0.796611  0.609064
