35
Energy: -21190.5197317 eV PBE+vdW (tier 2 basis)
C    -2.657129  1.327930  -0.319045
C    -1.867032  1.285192  0.973887
O    -0.665075  1.555116  1.004119
H    -2.670253  2.361782  -0.687440
H    -3.690297  0.972474  -0.221312
H    -2.137121  0.722029  -1.070674
N    -2.575958  0.912355  2.083729
C    -2.044110  0.930272  3.443795
C    -2.256185  -0.412525  4.178281
O    -2.304741  -0.471806  5.403626
H    -3.583018  0.829567  1.983309
H    -0.953778  1.048974  3.343832
C    -2.589621  2.114334  4.255329
C    -1.977682  3.464745  3.857403
C    -0.674049  3.809037  4.593639
N    0.373840  2.777779  4.547777
C    1.513441  2.928529  3.756860
N    1.239333  3.372487  2.464185
N    2.665130  2.674866  4.284080
H    -2.405119  1.897031  5.316280
H    -3.685521  2.140679  4.138981
H    -2.692580  4.270949  4.083753
H    -1.816901  3.510507  2.769249
H    -0.911451  3.974833  5.655078
H    -0.278885  4.757611  4.199831
H    0.657364  2.437899  5.461596
H    0.484399  2.867315  1.991588
H    2.067593  3.426203  1.880577
H    3.398737  2.661167  3.569645
N    -2.338292  -1.506995  3.368505
C    -2.396905  -2.858988  3.888890
H    -2.222580  -1.360743  2.372465
H    -3.205408  -3.427234  3.410184
H    -2.590612  -2.792254  4.964678
H    -1.447531  -3.393119  3.736319
