35
Energy: -21190.5068537 eV PBE+vdW (tier 2 basis)
C    -0.828430  -1.712201  0.690307
C    -1.064587  -0.836568  1.905831
O    -0.940615  0.386821  1.867991
H    -1.017815  -2.777203  0.870953
H    0.210264  -1.582804  0.361050
H    -1.474681  -1.365662  -0.125361
N    -1.445064  -1.503938  3.039916
C    -1.546994  -0.843342  4.325707
C    -0.829898  -1.730658  5.355733
O    -0.791860  -2.954420  5.225141
H    -1.368609  -2.517622  3.090813
H    -1.045845  0.132142  4.221651
C    -3.012797  -0.616942  4.765121
C    -3.790950  0.298931  3.816923
C    -5.273117  0.437657  4.162374
N    -5.476522  1.117045  5.432341
C    -6.755773  1.456314  5.863039
N    -6.752315  1.972233  7.165490
N    -7.869023  1.344207  5.225965
H    -2.992662  -0.200635  5.786049
H    -3.508551  -1.598702  4.837050
H    -3.722790  -0.104953  2.797155
H    -3.324042  1.294718  3.785380
H    -5.751458  -0.562527  4.151739
H    -5.764512  1.034394  3.379779
H    -4.866381  0.813818  6.185682
H    -7.674052  2.323157  7.410529
H    -6.025717  2.661893  7.340129
H    -7.753195  0.826000  4.352306
N    -0.296874  -1.066804  6.416646
C    0.356801  -1.739693  7.524571
H    -0.321816  -0.054076  6.405048
H    1.418355  -1.463396  7.587322
H    0.281645  -2.817254  7.346496
H    -0.132118  -1.497930  8.478133
