35
Energy: -21190.3375532 eV PBE+vdW (tier 2 basis)
C    1.378315  -2.670717  0.239557
C    1.469315  -1.182915  0.527393
O    1.805014  -0.368313  -0.325515
H    2.376106  -3.036767  -0.033881
H    0.725946  -2.820792  -0.628939
H    0.997285  -3.265047  1.079349
N    1.135419  -0.813444  1.811147
C    1.348732  0.552371  2.299375
C    1.337756  0.583641  3.830327
O    2.171594  1.232172  4.464346
H    1.090356  -1.550982  2.505939
H    2.353869  0.887433  2.004273
C    0.323692  1.547205  1.698151
C    0.472410  2.983464  2.228153
C    -0.467456  3.301699  3.404199
N    -0.175298  4.560718  4.064956
C    0.266425  4.713236  5.372042
N    0.767543  3.557064  5.965019
N    0.223891  5.805385  6.062985
H    -0.695963  1.168789  1.884074
H    0.472446  1.516178  0.612590
H    0.273947  3.697367  1.415752
H    1.509151  3.167539  2.546404
H    -0.421058  2.513562  4.165392
H    -1.510072  3.307204  3.041149
H    -0.570038  5.399311  3.658867
H    1.183332  3.785003  6.862982
H    1.368083  2.953603  5.400906
H    -0.286376  6.540959  5.566147
N    0.339750  -0.121524  4.437174
C    0.145148  -0.087718  5.880610
H    -0.417065  -0.471373  3.859106
H    1.115701  -0.200907  6.375879
H    -0.508034  -0.916680  6.172931
H    -0.294868  0.864273  6.213162
