35
Energy: -21190.3311053 eV PBE+vdW (tier 2 basis)
C    -0.025370  -1.724299  -1.519358
C    0.342726  -0.723765  -0.443124
O    1.356581  -0.029918  -0.520681
H    0.888385  -1.990581  -2.058238
H    -0.711826  -1.243609  -2.231560
H    -0.520116  -2.626735  -1.142566
N    -0.505962  -0.573167  0.628921
C    -1.746164  -1.269395  0.985720
C    -1.531007  -2.783935  1.191175
O    -2.081699  -3.635315  0.491844
H    -0.187642  0.151578  1.265620
H    -2.018991  -0.859964  1.973342
C    -2.934319  -0.999881  0.051899
C    -3.178730  0.484066  -0.233000
C    -3.432272  1.358570  1.003718
N    -4.569269  0.929738  1.810245
C    -4.425752  0.388512  3.066641
N    -5.651327  0.218309  3.725495
N    -3.256437  0.121724  3.554389
H    -3.823342  -1.442070  0.524682
H    -2.806220  -1.543893  -0.892613
H    -4.037386  0.570230  -0.917350
H    -2.316717  0.912910  -0.767952
H    -2.558700  1.367773  1.668210
H    -3.600531  2.397958  0.684540
H    -5.458115  1.375130  1.621287
H    -5.593386  -0.370868  4.548899
H    -6.428521  -0.054711  3.129194
H    -3.336600  -0.322070  4.471086
N    -0.694929  -3.143309  2.210443
C    0.019758  -2.286007  3.141584
H    -0.542447  -4.145102  2.268053
H    0.939598  -1.866038  2.707485
H    0.290513  -2.877754  4.023673
H    -0.617222  -1.458744  3.481541
