35
Energy: -21190.4445882 eV PBE+vdW (tier 2 basis)
C    -0.360881  0.925531  2.574777
C    0.121727  -0.483366  2.852789
O    0.895483  -0.755746  3.764328
H    -1.457164  0.995130  2.594709
H    -0.033845  1.267355  1.582416
H    0.059311  1.586577  3.336610
N    -0.361903  -1.481674  2.026999
C    -1.193522  -1.333886  0.839433
C    -2.667037  -1.008372  1.153581
O    -3.353872  -0.364643  0.352340
H    0.078031  -2.384382  2.188679
H    -0.848228  -0.485944  0.228415
C    -1.059893  -2.619987  -0.009423
C    -1.991817  -2.712351  -1.228247
C    -3.304347  -3.462207  -0.933548
N    -4.275072  -3.356336  -2.004853
C    -5.535936  -2.791895  -1.892397
N    -5.681837  -1.871993  -0.855036
N    -6.449341  -3.185590  -2.718841
H    -1.228902  -3.489251  0.650807
H    -0.008938  -2.674628  -0.327735
H    -1.469346  -3.228638  -2.046320
H    -2.236823  -1.708816  -1.601547
H    -3.765724  -3.084588  -0.012179
H    -3.075807  -4.524956  -0.740251
H    -4.265566  -4.074087  -2.721049
H    -6.545244  -1.344443  -0.908561
H    -4.881033  -1.284259  -0.609937
H    -7.299994  -2.626085  -2.624186
N    -3.146586  -1.502087  2.316670
C    -4.528772  -1.322002  2.730493
H    -2.483647  -1.947067  2.942211
H    -4.646120  -1.707244  3.748044
H    -5.213982  -1.858545  2.059710
H    -4.800749  -0.258089  2.714648
