35
Energy: -21190.0670891 eV PBE+vdW (tier 2 basis)
C    -0.096484  0.107584  -0.057992
C    -0.071303  -0.250302  1.417908
O    0.885533  -0.806563  1.947162
H    0.687786  0.850313  -0.252203
H    -1.057105  0.509932  -0.403730
H    0.150121  -0.786964  -0.642241
N    -1.197023  0.082680  2.123987
C    -1.311269  -0.114718  3.562987
C    -1.114010  -1.563160  4.066112
O    -0.523369  -1.740127  5.128193
H    -1.956745  0.549682  1.643012
H    -0.492915  0.424408  4.063260
C    -2.659310  0.459083  4.035536
C    -2.857373  0.443316  5.551475
C    -4.186183  1.076606  5.955528
N    -4.350041  1.026094  7.406566
C    -5.484500  1.520841  8.040658
N    -5.974464  2.711033  7.492340
N    -5.984037  0.858756  9.027514
H    -3.482678  -0.091715  3.549766
H    -2.720033  1.499259  3.671786
H    -2.031944  0.975826  6.046557
H    -2.814123  -0.592152  5.922034
H    -5.020887  0.569136  5.432461
H    -4.204007  2.125501  5.622686
H    -4.113961  0.123535  7.814370
H    -6.664980  3.172817  8.073747
H    -5.269684  3.357929  7.148531
H    -6.723109  1.387117  9.499011
N    -1.676655  -2.615250  3.396254
C    -2.360813  -2.675596  2.116171
H    -1.435090  -3.500780  3.830773
H    -2.887092  -3.635606  2.056909
H    -1.672068  -2.607494  1.260152
H    -3.114722  -1.885583  2.021493
