35
Energy: -21190.2432463 eV PBE+vdW (tier 2 basis)
C    -0.627836  -0.896197  0.202967
C    -0.876400  -0.035564  1.429255
O    -0.185720  0.944486  1.691430
H    -1.410332  -1.641250  0.012436
H    0.330333  -1.416385  0.331793
H    -0.529646  -0.243703  -0.672246
N    -1.934198  -0.425188  2.209018
C    -2.275358  0.148423  3.514264
C    -2.014197  1.673672  3.606899
O    -1.346536  2.160843  4.519997
H    -2.415025  -1.280014  1.954254
H    -3.371453  0.046049  3.604699
C    -1.648544  -0.614391  4.689324
C    -0.122688  -0.726260  4.665717
C    0.458874  -1.202498  6.004524
N    -0.012875  -0.468242  7.186343
C    0.567977  0.731767  7.607832
N    0.793161  1.650754  6.593781
N    0.846960  0.856391  8.864906
H    -2.097904  -1.621571  4.718418
H    -1.955210  -0.114101  5.618506
H    0.321714  0.236348  4.389657
H    0.201839  -1.440085  3.892297
H    1.560772  -1.185423  5.935393
H    0.164751  -2.249634  6.170481
H    -0.117605  -1.060169  8.005277
H    1.123742  2.550816  6.921864
H    0.071111  1.735713  5.873121
H    1.117361  1.819355  9.085088
N    -2.684617  2.485081  2.739522
C    -3.465372  2.134333  1.568755
H    -2.420878  3.459638  2.848858
H    -2.838286  1.917077  0.689997
H    -4.125934  2.974874  1.325585
H    -4.100581  1.262777  1.766594
