35
Energy: -21190.320478 eV PBE+vdW (tier 2 basis)
C    -0.013007  0.422398  0.580617
C    -0.695516  -0.369684  1.677916
O    -0.763042  -1.601430  1.624543
H    -0.327780  0.029221  -0.392161
H    1.070322  0.264111  0.669828
H    -0.212961  1.500255  0.619936
N    -1.201189  0.373855  2.699913
C    -1.658815  -0.095834  4.017465
C    -0.839609  -1.337193  4.465144
O    0.383469  -1.242518  4.534993
H    -1.017506  1.368370  2.643382
H    -1.258581  0.663389  4.708510
C    -3.194826  0.006524  4.224760
C    -4.241674  -1.025964  3.760025
C    -4.229639  -1.524829  2.304183
N    -3.321335  -2.621916  2.031189
C    -3.586093  -3.888531  2.483932
N    -2.518160  -4.775903  2.271019
N    -4.698866  -4.168800  3.087618
H    -3.467711  0.980110  3.784875
H    -3.339440  0.133801  5.309327
H    -5.217460  -0.546403  3.937943
H    -4.270189  -1.913777  4.410491
H    -3.975704  -0.706405  1.614184
H    -5.243177  -1.866587  2.055914
H    -2.339040  -2.372756  1.872232
H    -2.790617  -5.752514  2.265338
H    -1.909461  -4.542445  1.490339
H    -4.760326  -5.168221  3.295012
N    -1.544167  -2.424153  4.863845
C    -0.895685  -3.651514  5.288902
H    -2.530823  -2.467470  4.637692
H    -1.342001  -4.016362  6.223480
H    0.164433  -3.433800  5.451599
H    -0.994843  -4.425883  4.515269
