35
Energy: -21189.8559949 eV PBE+vdW (tier 2 basis)
C    0.146235  0.321773  1.335855
C    -0.489689  0.032714  2.684504
O    0.189105  -0.255947  3.667879
H    -0.123172  -0.454343  0.605819
H    1.230964  0.318103  1.469710
H    -0.162742  1.294242  0.931322
N    -1.857201  0.104213  2.777298
C    -2.857602  0.326961  1.734020
C    -2.794297  -0.819743  0.683508
O    -2.862531  -1.973239  1.100655
H    -2.200879  -0.236145  3.669531
H    -3.824253  0.085974  2.209360
C    -2.963077  1.806386  1.301592
C    -4.375834  2.162009  0.811377
C    -5.349799  2.413298  1.984720
N    -6.733336  2.042496  1.729608
C    -7.074653  0.699265  1.741665
N    -8.380718  0.471244  1.287380
N    -6.214369  -0.186684  2.113971
H    -2.207120  2.080118  0.557417
H    -2.725078  2.409085  2.191425
H    -4.777575  1.338291  0.202886
H    -4.343953  3.050523  0.163033
H    -5.329888  3.472952  2.275626
H    -5.033976  1.831974  2.860133
H    -7.226439  2.601420  1.040638
H    -8.710563  -0.474098  1.450149
H    -9.064037  1.163622  1.584299
H    -6.626077  -1.119608  2.174856
N    -2.733405  -0.607637  -0.673712
C    -2.394765  0.550005  -1.489277
H    -2.750887  -1.501245  -1.156943
H    -3.154805  1.339634  -1.438970
H    -2.342151  0.214061  -2.530743
H    -1.416350  0.979539  -1.232036
