35
Energy: -21190.1911341 eV PBE+vdW (tier 2 basis)
C    -0.270699  0.374710  0.763899
C    -0.685737  0.286888  2.219399
O    -0.069548  0.876720  3.105065
H    0.424312  1.213171  0.668711
H    -1.113276  0.508459  0.075663
H    0.249838  -0.545174  0.461331
N    -1.753123  -0.518060  2.550432
C    -2.748086  -1.175105  1.701515
C    -2.132392  -2.021097  0.568064
O    -2.383202  -1.813505  -0.618427
H    -2.016722  -0.434387  3.531076
H    -3.221179  -1.908686  2.371870
C    -3.834205  -0.212515  1.197783
C    -5.151572  -0.870092  0.761089
C    -5.774385  -1.844863  1.777392
N    -5.848616  -1.311226  3.143219
C    -4.974296  -1.680577  4.151900
N    -4.695076  -3.054556  4.192495
N    -4.473057  -0.772873  4.923435
H    -3.439752  0.374872  0.357767
H    -4.023356  0.491970  2.020278
H    -5.008241  -1.412796  -0.184387
H    -5.875689  -0.067981  0.546407
H    -5.196315  -2.777298  1.814890
H    -6.783591  -2.119840  1.433894
H    -6.026117  -0.311141  3.199461
H    -5.481148  -3.663768  3.979521
H    -4.203075  -3.343647  5.030970
H    -4.000655  -1.183414  5.733630
N    -1.316831  -3.048285  0.950672
C    -0.953484  -3.465463  2.295796
H    -0.929678  -3.564186  0.167056
H    -0.553492  -4.484409  2.245130
H    -1.833106  -3.485527  2.954065
H    -0.196972  -2.810572  2.750451
