35
Energy: -21190.5328638 eV PBE+vdW (tier 2 basis)
C    -2.453694  2.319640  -1.013136
C    -2.173314  2.228311  0.473830
O    -1.263320  1.510005  0.910310
H    -3.235769  3.041926  -1.276423
H    -2.754498  1.326896  -1.372055
H    -1.525643  2.587266  -1.532312
N    -2.977008  2.980778  1.272268
C    -3.030103  2.978643  2.745014
C    -1.828792  3.656610  3.450167
O    -2.034024  4.488418  4.335870
H    -3.673353  3.550234  0.808657
H    -3.874848  3.631901  2.997003
C    -3.309145  1.590256  3.349974
C    -4.604577  0.953464  2.849368
C    -4.977215  -0.326614  3.606260
N    -5.223920  -0.097824  5.027186
C    -6.469758  0.315556  5.462936
N    -6.558902  0.345956  6.865026
N    -7.403289  0.589978  4.617233
H    -3.369736  1.732579  4.439154
H    -2.457321  0.922268  3.157513
H    -4.518975  0.700069  1.781326
H    -5.442730  1.661192  2.940368
H    -4.157522  -1.055870  3.532624
H    -5.872863  -0.770762  3.146646
H    -4.721357  -0.693967  5.672832
H    -7.392185  0.813186  7.206325
H    -5.724123  0.689496  7.334249
H    -8.232186  0.959179  5.088050
N    -0.602713  3.232859  3.056615
C    0.619833  3.739324  3.645908
H    -0.569050  2.504347  2.334194
H    1.298506  4.121380  2.870788
H    1.144621  2.957252  4.214535
H    0.357517  4.554171  4.329172
