35
Energy: -21190.3156535 eV PBE+vdW (tier 2 basis)
C    -0.047972  -0.415556  0.298972
C    -0.746956  -0.784196  1.593936
O    -1.116184  -1.933686  1.833590
H    0.951394  -0.871102  0.293728
H    0.050587  0.666337  0.149362
H    -0.605765  -0.848966  -0.539021
N    -0.943094  0.253766  2.464441
C    -1.517548  0.053289  3.789196
C    -2.717161  1.000421  4.024128
O    -2.741622  1.812510  4.950155
H    -0.566990  1.169968  2.220125
H    -1.910665  -0.975255  3.759110
C    -0.479759  0.122051  4.935296
C    0.695553  1.085955  4.730992
C    0.310047  2.561681  4.568119
N    1.415576  3.413790  4.103548
C    1.587438  3.733662  2.764636
N    1.245630  2.686768  1.880256
N    2.012146  4.842818  2.266434
H    -0.066181  -0.887330  5.067200
H    -1.022814  0.376568  5.855340
H    1.272900  0.757697  3.853019
H    1.386305  0.989162  5.581803
H    -0.039724  2.957094  5.530066
H    -0.541653  2.675659  3.884700
H    1.647393  4.183624  4.720040
H    1.479884  2.981150  0.933858
H    1.717367  1.811924  2.107273
H    2.082530  5.572483  2.981807
N    -3.772780  0.886857  3.166415
C    -3.972825  -0.031885  2.057616
H    -4.508853  1.557986  3.363626
H    -5.045114  -0.239786  1.959727
H    -3.460701  -0.984952  2.231372
H    -3.608769  0.380077  1.103699
