35
Energy: -21190.5009094 eV PBE+vdW (tier 2 basis)
C    -1.852109  2.170663  1.243043
C    -0.606799  1.470721  1.746379
O    0.493639  2.030432  1.753187
H    -1.614829  3.229176  1.108493
H    -2.698585  2.069000  1.934925
H    -2.162754  1.757218  0.272532
N    -0.735284  0.185710  2.217854
C    -1.801561  -0.755302  1.879747
C    -2.153403  -1.684781  3.069215
O    -2.814345  -2.705715  2.896492
H    0.183433  -0.233917  2.416749
H    -2.719636  -0.174980  1.705630
C    -1.508518  -1.587104  0.613571
C    -0.113410  -2.236372  0.602581
C    0.964103  -1.367376  -0.082344
N    2.340939  -1.708439  0.252946
C    2.851609  -1.554957  1.533917
N    2.315760  -0.467858  2.247377
N    3.718383  -2.405479  1.966355
H    -1.629001  -0.939954  -0.270013
H    -2.290402  -2.354360  0.558007
H    -0.160957  -3.209545  0.094427
H    0.206866  -2.463366  1.631937
H    0.802483  -0.304328  0.141318
H    0.865025  -1.447986  -1.174368
H    2.691598  -2.572142  -0.152543
H    2.835891  -0.266154  3.095498
H    2.133085  0.392933  1.725365
H    4.114904  -2.114140  2.863462
N    -1.713169  -1.257735  4.282480
C    -1.996896  -1.966521  5.514159
H    -1.194749  -0.385725  4.302766
H    -1.068999  -2.225839  6.041714
H    -2.529167  -2.887177  5.252068
H    -2.630660  -1.368023  6.183943
