35
Energy: -21190.4699524 eV PBE+vdW (tier 2 basis)
C    -1.248344  0.505750  0.174976
C    -0.875308  0.242492  1.618284
O    -0.181516  1.032058  2.269392
H    -1.894924  -0.264931  -0.261938
H    -0.329816  0.582722  -0.420184
H    -1.757362  1.475609  0.115153
N    -1.355261  -0.914021  2.158650
C    -1.089944  -1.303771  3.543108
C    0.261614  -2.063266  3.634878
O    0.328237  -3.283974  3.761958
H    -1.826538  -1.580451  1.556905
H    -0.975124  -0.359818  4.095070
C    -2.238840  -2.131227  4.119099
C    -3.608250  -1.442961  4.083890
C    -3.679770  -0.144122  4.900855
N    -5.010343  0.456303  4.925182
C    -5.908504  0.358663  5.978657
N    -5.684486  -0.725506  6.829238
N    -6.883019  1.164435  6.237682
H    -1.971959  -2.385280  5.155856
H    -2.280441  -3.095442  3.590956
H    -4.361772  -2.150157  4.464424
H    -3.910468  -1.222443  3.048139
H    -2.986551  0.599364  4.481184
H    -3.351281  -0.331913  5.934778
H    -5.140290  1.282108  4.355391
H    -6.443439  -0.808357  7.499194
H    -5.470182  -1.609112  6.375861
H    -6.851040  1.995790  5.641131
N    1.334883  -1.232220  3.546109
C    2.699147  -1.720406  3.496581
H    1.139840  -0.253245  3.329246
H    3.124322  -1.635639  2.485103
H    2.692500  -2.776417  3.786179
H    3.335227  -1.158616  4.193013
