35
Energy: -21189.765035 eV PBE+vdW (tier 2 basis)
C    -0.336646  0.017546  -0.239287
C    -0.175713  0.998379  0.905648
O    0.516163  2.006550  0.796387
H    -1.390734  -0.145318  -0.498154
H    0.112057  -0.952769  0.013880
H    0.182938  0.430650  -1.107459
N    -0.828083  0.740148  2.090354
C    -1.618726  -0.413143  2.531454
C    -0.721816  -1.686406  2.615033
O    0.199077  -1.665422  3.428422
H    -0.544958  1.389295  2.817807
H    -1.771419  -0.217600  3.602125
C    -3.023232  -0.468575  1.900472
C    -4.024217  -1.317867  2.700068
C    -4.555766  -0.609268  3.947722
N    -5.455878  -1.476908  4.684125
C    -5.974228  -1.085447  5.917841
N    -6.922933  -1.993284  6.399446
N    -5.687024  -0.036222  6.605421
H    -2.986360  -0.811234  0.860914
H    -3.383839  0.570231  1.853520
H    -3.572695  -2.273739  3.008947
H    -4.875331  -1.572098  2.047961
H    -5.040456  0.341699  3.650355
H    -3.723497  -0.344758  4.618623
H    -6.115834  -1.994747  4.109551
H    -7.198623  -1.754289  7.347749
H    -6.655179  -2.970326  6.313926
H    -5.096516  0.613328  6.081610
N    -0.915747  -2.809770  1.851212
C    -1.831143  -3.151798  0.771555
H    -0.227181  -3.515882  2.095983
H    -1.784287  -2.440270  -0.061839
H    -2.873071  -3.239450  1.107783
H    -1.528432  -4.129663  0.382061
