35
Energy: -21190.520383 eV PBE+vdW (tier 2 basis)
C    -3.453182  1.465082  0.273033
C    -2.329095  1.106713  1.224907
O    -1.145546  1.310302  0.943231
H    -4.449509  1.204510  0.649562
H    -3.281982  0.952603  -0.681518
H    -3.417270  2.543803  0.075413
N    -2.723004  0.566352  2.415010
C    -1.789309  0.043762  3.392951
C    -2.397504  -1.256124  3.944531
O    -3.616325  -1.432745  3.958563
H    -3.687399  0.272227  2.557859
H    -0.848401  -0.165588  2.861937
C    -1.528434  1.029997  4.562137
C    -0.990182  2.393684  4.119648
C    0.440890  2.346733  3.560613
N    0.816607  3.546261  2.827367
C    1.631706  4.561439  3.287279
N    1.772709  4.604446  4.680043
N    2.267980  5.429683  2.572459
H    -0.828235  0.555413  5.269332
H    -2.475668  1.163501  5.106059
H    -1.036104  3.086367  4.975149
H    -1.651789  2.819124  3.351948
H    0.525220  1.504869  2.860837
H    1.166584  2.180992  4.370363
H    0.697903  3.502082  1.822643
H    2.286391  5.440017  4.945427
H    0.907916  4.507405  5.205604
H    2.211167  5.201437  1.575976
N    -1.499279  -2.148173  4.439591
C    -1.888072  -3.395964  5.071705
H    -0.513422  -1.933632  4.347157
H    -1.493240  -4.259609  4.519453
H    -2.981800  -3.441656  5.066948
H    -1.531320  -3.442311  6.109784
