35
Energy: -21190.4305821 eV PBE+vdW (tier 2 basis)
C    0.082916  0.353335  -0.093628
C    0.304288  -0.261941  1.271563
O    1.423646  -0.601400  1.652086
H    -0.066148  1.438925  -0.001059
H    -0.781319  -0.088888  -0.601626
H    0.988851  0.181822  -0.681645
N    -0.763231  -0.403648  2.138361
C    -2.206779  -0.259642  1.984929
C    -2.857344  -1.352504  1.099189
O    -2.332524  -1.790869  0.076208
H    -0.466483  -0.886258  2.981360
H    -2.593199  -0.420930  2.996736
C    -2.670153  1.140576  1.520420
C    -2.348268  2.286734  2.490524
C    -3.328091  2.496269  3.659039
N    -3.350133  1.461249  4.686295
C    -4.131528  0.325733  4.628873
N    -3.748344  -0.652234  5.544905
N    -5.105888  0.060266  3.815411
H    -3.754864  1.095961  1.340261
H    -2.223981  1.353181  0.541541
H    -2.334032  3.232814  1.926821
H    -1.326646  2.158289  2.883761
H    -4.353691  2.617910  3.279626
H    -3.084024  3.444079  4.160874
H    -2.489374  1.365920  5.215491
H    -4.453171  -1.377583  5.634469
H    -3.420331  -0.315956  6.445172
H    -5.248341  0.817686  3.144809
N    -4.073393  -1.755234  1.551021
C    -4.883626  -2.698476  0.802264
H    -4.474151  -1.312464  2.386295
H    -5.800700  -2.896583  1.366912
H    -4.343526  -3.642516  0.649920
H    -5.150326  -2.304664  -0.189535
