35
Energy: -21190.4396771 eV PBE+vdW (tier 2 basis)
C    -0.955472  -0.348980  -0.686862
C    -0.747687  0.118661  0.738570
O    0.344934  0.519161  1.145396
H    -0.632761  -1.399657  -0.748955
H    -0.324245  0.244019  -1.355977
H    -1.999654  -0.288841  -1.019343
N    -1.856817  0.037033  1.535197
C    -1.914370  0.109305  2.998469
C    -0.614153  0.663441  3.636366
O    0.161512  -0.037443  4.282031
H    -2.691624  -0.335369  1.095021
H    -2.688335  0.856049  3.247484
C    -2.390160  -1.223998  3.627538
C    -1.908080  -2.562327  3.043650
C    -0.474976  -3.017054  3.378113
N    0.582258  -2.413931  2.602963
C    0.932737  -2.813569  1.334134
N    1.942857  -2.029679  0.771414
N    0.468962  -3.820478  0.658160
H    -3.489787  -1.220086  3.558794
H    -2.154120  -1.179729  4.700969
H    -2.037967  -2.579284  1.950293
H    -2.592965  -3.332459  3.433148
H    -0.419823  -4.111062  3.257544
H    -0.262230  -2.811502  4.435935
H    0.987096  -1.564904  2.982519
H    2.093172  -2.293213  -0.197654
H    1.805519  -1.024679  0.883577
H    -0.181199  -4.378024  1.216526
N    -0.493457  2.019518  3.558000
C    0.756151  2.667050  3.921061
H    -1.064070  2.485722  2.860886
H    0.585203  3.742045  4.044928
H    1.530996  2.502708  3.156171
H    1.111471  2.247752  4.867744
