35
Energy: -21190.3330764 eV PBE+vdW (tier 2 basis)
C    -0.383312  0.070746  -0.190429
C    -0.177030  -0.015542  1.308670
O    0.912746  0.197469  1.835397
H    -1.394615  -0.202977  -0.515883
H    0.343718  -0.583827  -0.686088
H    -0.171520  1.097450  -0.514529
N    -1.288104  -0.361078  2.035806
C    -1.287346  -0.402689  3.493095
C    -1.843843  -1.756374  3.969451
O    -2.906627  -1.865811  4.587864
H    -2.165585  -0.496114  1.547855
H    -0.218785  -0.374861  3.757386
C    -1.931690  0.839812  4.149234
C    -3.220729  1.408218  3.533602
C    -4.538269  0.820758  4.050510
N    -4.722857  1.118675  5.467953
C    -5.422186  0.307040  6.365142
N    -5.372834  -1.045873  6.081531
N    -6.070212  0.722223  7.405216
H    -1.160939  1.622157  4.108374
H    -2.104398  0.624073  5.213317
H    -3.198527  1.324662  2.434884
H    -3.232442  2.493269  3.726307
H    -4.550356  -0.265294  3.922972
H    -5.372869  1.225144  3.446860
H    -4.864268  2.104252  5.667366
H    -4.504449  -1.400702  5.682073
H    -5.739224  -1.596209  6.850192
H    -6.128360  1.744300  7.420437
N    -1.098121  -2.861031  3.687032
C    0.154042  -2.972066  2.956200
H    -1.541842  -3.721402  3.995297
H    0.713931  -3.831959  3.342042
H    0.774028  -2.078547  3.087536
H    -0.007551  -3.114906  1.876611
