35
Energy: -21190.2871386 eV PBE+vdW (tier 2 basis)
C    1.336591  0.639834  0.397018
C    0.976670  0.228587  1.809847
O    1.788687  -0.348358  2.540724
H    2.216918  1.293139  0.433748
H    0.528820  1.158064  -0.133935
H    1.619010  -0.256856  -0.168610
N    -0.285634  0.545667  2.216430
C    -0.829052  0.100096  3.505916
C    -2.339102  -0.164127  3.375488
O    -2.800170  -1.273284  3.619895
H    -0.926306  0.903290  1.518118
H    -0.403365  -0.890010  3.702814
C    -0.459448  1.028671  4.693491
C    -0.435584  0.303006  6.052394
C    0.951186  -0.244412  6.440184
N    1.550520  -1.148881  5.476079
C    1.117186  -2.458138  5.390361
N    1.607874  -3.116893  4.255364
N    0.395118  -2.974756  6.329338
H    -1.152067  1.879170  4.735462
H    0.530772  1.459648  4.479056
H    -1.161496  -0.523587  6.060845
H    -0.751635  1.000367  6.842787
H    0.871096  -0.782583  7.392729
H    1.649541  0.595339  6.583159
H    1.855364  -0.736586  4.596132
H    1.064891  -3.929838  3.988383
H    1.828978  -2.516154  3.462786
H    0.206305  -3.961988  6.143586
N    -3.161244  0.848553  2.930004
C    -2.937578  2.285607  2.858049
H    -4.131572  0.544512  2.908105
H    -3.526039  2.703282  2.030797
H    -1.884851  2.515883  2.667635
H    -3.230783  2.801809  3.786309
