35
Energy: -21190.4589363 eV PBE+vdW (tier 2 basis)
C    0.450339  -1.127147  0.868115
C    0.153818  -0.354224  2.133207
O    0.979302  0.389497  2.669275
H    -0.211729  -1.990707  0.727280
H    1.492846  -1.460426  0.892804
H    0.317720  -0.453889  0.007981
N    -1.119288  -0.496977  2.619938
C    -1.572731  0.133974  3.854861
C    -1.719242  -0.975453  4.915386
O    -2.679815  -1.747514  4.883095
H    -1.729415  -1.189566  2.198565
H    -0.778724  0.841482  4.124462
C    -2.906132  0.882462  3.694906
C    -2.814924  2.269229  3.036760
C    -2.175559  2.339630  1.648381
N    -2.883961  1.503899  0.688232
C    -2.248869  1.037107  -0.451811
N    -2.958589  0.004516  -1.080706
N    -1.119703  1.415557  -0.944696
H    -3.342926  1.014186  4.695682
H    -3.618749  0.223776  3.173532
H    -2.237266  2.938940  3.691708
H    -3.830126  2.694786  2.989264
H    -1.115531  2.040792  1.712964
H    -2.188744  3.386992  1.306204
H    -3.519044  0.830754  1.105306
H    -3.963435  0.153072  -1.130197
H    -2.564437  -0.188903  -1.997302
H    -0.651521  2.093595  -0.339589
N    -0.735454  -1.089412  5.849310
C    0.467003  -0.281797  6.017555
H    -0.897907  -1.845343  6.508343
H    1.213474  -0.879425  6.553034
H    0.276841  0.630515  6.604506
H    0.896775  -0.002018  5.048020
