35
Energy: -21190.1502011 eV PBE+vdW (tier 2 basis)
C    0.345766  1.220539  1.070490
C    0.109365  0.951060  2.541012
O    0.887449  1.341277  3.410681
H    0.584600  0.283615  0.549075
H    -0.520401  1.683966  0.581940
H    1.192537  1.906658  0.990785
N    -1.002018  0.225406  2.909312
C    -2.153132  -0.222367  2.132862
C    -1.711662  -1.015957  0.873711
O    -0.967914  -1.985075  0.983105
H    -1.008327  0.021720  3.903500
H    -2.617592  -1.008490  2.749501
C    -3.220293  0.873552  1.930883
C    -3.740487  1.471368  3.255073
C    -3.093249  2.795642  3.690848
N    -3.394013  3.896794  2.790224
C    -2.510941  4.382043  1.832951
N    -3.159715  5.172708  0.870618
N    -1.244137  4.187510  1.721348
H    -4.066681  0.422519  1.391328
H    -2.830656  1.685927  1.296382
H    -3.624849  0.740081  4.071851
H    -4.825909  1.640927  3.171394
H    -2.003250  2.695447  3.765678
H    -3.446591  3.051479  4.702048
H    -4.372147  3.969013  2.526519
H    -2.471878  5.671885  0.312634
H    -3.856620  5.809212  1.250269
H    -0.876206  3.555660  2.435090
N    -2.228581  -0.598971  -0.316351
C    -1.873612  -1.228200  -1.574643
H    -2.752368  0.267054  -0.339767
H    -2.762081  -1.348752  -2.207074
H    -1.449163  -2.211959  -1.349784
H    -1.121440  -0.641594  -2.123582
