35
Energy: -21190.5383353 eV PBE+vdW (tier 2 basis)
C    3.281149  -1.590941  0.306797
C    2.954984  -0.791063  1.550281
O    3.780778  -0.626451  2.455704
H    3.570371  -2.606428  0.604397
H    4.149161  -1.134865  -0.185340
H    2.454040  -1.648891  -0.411164
N    1.701675  -0.257495  1.606063
C    1.241534  0.564332  2.726786
C    0.751040  -0.352585  3.883426
O    -0.442848  -0.564554  4.094961
H    1.029811  -0.497985  0.885931
H    2.124661  1.120296  3.076217
C    0.153536  1.533274  2.273946
C    -0.171669  2.596651  3.325065
C    -1.331760  3.500690  2.892162
N    -1.686461  4.538493  3.861697
C    -0.834829  5.600675  4.169127
N    -0.101145  6.077756  3.081809
N    -0.682671  6.160569  5.320462
H    -0.756361  0.955923  2.042754
H    0.489856  2.019592  1.344413
H    0.714318  3.221452  3.516869
H    -0.439236  2.106531  4.272886
H    -2.234837  2.896012  2.721350
H    -1.097478  3.975856  1.928693
H    -2.143311  4.174150  4.692507
H    0.369981  6.943712  3.326705
H    -0.616184  6.149570  2.208820
H    -1.158563  5.632248  6.057094
N    1.771897  -0.887104  4.602009
C    1.557699  -1.864942  5.650909
H    2.711669  -0.751285  4.221890
H    2.189147  -1.637207  6.519160
H    1.784505  -2.886360  5.308801
H    0.504542  -1.823624  5.947812
