35
Energy: -21190.5780625 eV PBE+vdW (tier 2 basis)
C    -0.822400  -1.448200  0.713808
C    -0.644762  -0.917629  2.121355
O    0.412330  -0.425688  2.523553
H    -0.029007  -2.177536  0.509568
H    -0.692249  -0.615912  0.010053
H    -1.804495  -1.906857  0.546123
N    -1.753054  -1.013840  2.916304
C    -1.726751  -0.542712  4.283704
C    -2.629737  -1.419923  5.149798
O    -3.699809  -1.879553  4.728433
H    -2.597544  -1.446689  2.545594
H    -0.677997  -0.634169  4.601117
C    -2.081881  0.963392  4.453337
C    -3.544230  1.425955  4.342184
C    -4.219508  1.339693  2.966804
N    -4.719078  -0.003385  2.671624
C    -4.529361  -0.645994  1.465774
N    -4.322471  0.188067  0.369025
N    -4.478350  -1.931073  1.286496
H    -1.461380  1.502046  3.722020
H    -1.712315  1.273100  5.443969
H    -3.559360  2.485246  4.641116
H    -4.173645  0.907646  5.084876
H    -3.505401  1.642097  2.185454
H    -5.051708  2.065041  2.945264
H    -4.685350  -0.650202  3.461934
H    -4.373791  -0.336440  -0.498759
H    -4.872592  1.040921  0.348215
H    -4.563130  -2.426163  2.179493
N    -2.240306  -1.635482  6.433724
C    -0.994912  -1.241097  7.076715
H    -2.905523  -2.182953  6.971278
H    -0.966772  -1.692670  8.073661
H    -0.915787  -0.151387  7.198525
H    -0.117677  -1.597529  6.520543
