35
Energy: -21190.7440713 eV PBE+vdW (tier 2 basis)
C    1.378221  1.865106  2.620394
C    0.700462  0.743144  3.379464
O    1.061965  0.425063  4.523844
H    1.133645  1.865159  1.552721
H    2.462257  1.777023  2.752452
H    1.069386  2.824986  3.056994
N    -0.320191  0.124218  2.734248
C    -1.136761  -0.905760  3.381068
C    -0.452471  -2.299808  3.288676
O    -0.890270  -3.203801  2.577426
H    -0.571968  0.442956  1.789378
H    -1.191933  -0.634634  4.448446
C    -2.533559  -0.948604  2.769441
C    -3.347050  0.341843  2.966829
C    -4.231650  0.686214  1.760573
N    -3.456250  0.937790  0.532848
C    -2.516211  1.962994  0.508515
N    -3.023292  3.201507  0.866122
N    -1.287822  1.689422  0.197342
H    -3.065781  -1.811229  3.189623
H    -2.414252  -1.189008  1.701709
H    -2.674101  1.195285  3.144647
H    -3.977708  0.259768  3.864755
H    -4.848628  1.567007  1.982652
H    -4.927062  -0.134318  1.533476
H    -3.014951  0.094698  0.171537
H    -2.398028  3.989886  0.754490
H    -3.985579  3.391938  0.606529
H    -0.746671  2.543603  0.032086
N    0.651215  -2.397481  4.074107
C    1.504809  -3.567730  4.076360
H    0.957618  -1.534594  4.535748
H    1.731071  -3.878727  5.105033
H    2.453622  -3.379811  3.550802
H    0.975779  -4.377815  3.563074
