35
Energy: -21190.5202992 eV PBE+vdW (tier 2 basis)
C    -4.293177  3.418467  2.605601
C    -3.023650  2.610300  2.448490
O    -2.043094  3.043961  1.832476
H    -5.103613  2.870034  3.100480
H    -4.628296  3.747855  1.614890
H    -4.060916  4.318219  3.189812
N    -3.021279  1.383264  3.033678
C    -1.871544  0.507160  2.958531
C    -2.390165  -0.925957  3.125733
O    -3.432901  -1.164515  3.735944
H    -3.838879  0.997203  3.500004
H    -1.428800  0.640112  1.959282
C    -0.799708  0.838857  4.038796
C    0.653794  0.655281  3.591151
C    1.099969  1.632534  2.480660
N    0.849794  3.039286  2.757274
C    1.355794  3.689676  3.870981
N    2.699497  3.425506  4.149530
N    0.609846  4.532117  4.505725
H    -0.997036  0.236702  4.937577
H    -0.946157  1.886528  4.333753
H    0.844860  -0.378946  3.255106
H    1.298537  0.799049  4.471977
H    0.575427  1.416341  1.539645
H    2.166872  1.461507  2.258232
H    -0.107373  3.330869  2.548047
H    3.138480  2.642652  3.678964
H    2.973200  3.525003  5.118623
H    1.155513  5.058391  5.194243
N    -1.591648  -1.891858  2.595228
C    -1.868747  -3.310196  2.730551
H    -0.778744  -1.600097  2.066381
H    -2.775055  -3.412972  3.335887
H    -1.040615  -3.829020  3.232644
H    -2.041187  -3.777312  1.751104
