35
Energy: -21190.3453628 eV PBE+vdW (tier 2 basis)
C    0.549786  -3.342651  1.870795
C    0.070835  -2.807297  3.208417
O    0.561794  -3.170800  4.274451
H    0.042375  -2.897652  1.005656
H    0.393899  -4.428607  1.853825
H    1.628402  -3.163909  1.784524
N    -0.945916  -1.892161  3.142278
C    -1.555328  -1.320029  4.342619
C    -3.048774  -1.076530  4.049006
O    -3.913540  -1.887826  4.363148
H    -1.320941  -1.635464  2.237131
H    -1.529208  -2.106526  5.108984
C    -0.775382  -0.102145  4.861295
C    -1.301048  0.426529  6.196370
C    -0.508124  1.630053  6.721262
N    0.902235  1.340633  6.940011
C    1.882421  1.824394  6.097514
N    3.174030  1.519640  6.558492
N    1.576663  2.500999  5.042009
H    -0.747279  0.705732  4.110231
H    0.269966  -0.417986  4.980449
H    -1.276370  -0.385770  6.941026
H    -2.357687  0.729195  6.106952
H    -0.948038  1.977925  7.667450
H    -0.558945  2.461093  6.004041
H    1.193362  1.143700  7.888879
H    3.899057  1.703189  5.873186
H    3.271778  0.588011  6.956076
H    2.409280  2.717596  4.490714
N    -3.317739  0.078233  3.363647
C    -4.667682  0.479278  3.014327
H    -2.568341  0.753451  3.261245
H    -4.709503  0.834788  1.976680
H    -5.042487  1.273651  3.677173
H    -5.313739  -0.397923  3.124667
