35
Energy: -21190.1487293 eV PBE+vdW (tier 2 basis)
C    -0.606579  1.323695  -0.848972
C    -0.083118  0.816360  0.479450
O    1.111137  0.884097  0.760905
H    -0.054203  2.235783  -1.098090
H    -1.681809  1.523407  -0.892517
H    -0.379020  0.579034  -1.624974
N    -0.963688  0.247086  1.373001
C    -2.409900  0.049608  1.312182
C    -3.005214  0.558144  2.644206
O    -3.328462  -0.212751  3.545166
H    -0.495913  -0.108591  2.205059
H    -2.792815  0.675587  0.495335
C    -2.797100  -1.415541  1.059177
C    -2.467912  -1.878867  -0.363620
C    -3.505985  -1.412706  -1.397509
N    -3.054602  -1.550431  -2.783966
C    -2.482131  -0.492208  -3.478728
N    -3.172731  0.720066  -3.330734
N    -1.404919  -0.691855  -4.159285
H    -3.871313  -1.537737  1.266872
H    -2.283641  -2.040530  1.801999
H    -1.470524  -1.518824  -0.657185
H    -2.409788  -2.977686  -0.387743
H    -3.753952  -0.355133  -1.238379
H    -4.441296  -1.977871  -1.258179
H    -2.513163  -2.393860  -2.962542
H    -2.841212  1.451049  -3.950783
H    -4.186456  0.636896  -3.347144
H    -1.184304  0.108000  -4.759133
N    -3.128032  1.912672  2.784292
C    -2.689912  2.957511  1.873181
H    -3.439939  2.189703  3.709974
H    -3.068257  3.917113  2.241093
H    -3.098680  2.811561  0.864086
H    -1.594302  3.022022  1.799397
