35
Energy: -21190.2257173 eV PBE+vdW (tier 2 basis)
C    0.059173  0.196182  0.411211
C    0.046870  0.043493  1.924559
O    1.086017  0.025837  2.579938
H    1.102048  0.247335  0.088130
H    -0.453923  1.117250  0.098077
H    -0.431248  -0.645722  -0.096173
N    -1.174720  -0.063401  2.536546
C    -2.493599  -0.016515  1.937639
C    -3.434080  0.564092  3.011968
O    -3.136602  0.503255  4.205826
H    -1.170492  -0.049910  3.556762
H    -2.476902  0.665314  1.073805
C    -2.972438  -1.408339  1.431743
C    -3.203336  -2.467473  2.520886
C    -4.642177  -2.496442  3.036179
N    -4.782129  -3.450002  4.126420
C    -6.048263  -3.855891  4.516202
N    -6.018370  -4.623058  5.691022
N    -7.091238  -3.505451  3.843102
H    -2.199495  -1.762313  0.736245
H    -3.884118  -1.286252  0.826368
H    -2.502165  -2.294760  3.353316
H    -2.958462  -3.462155  2.122224
H    -5.330813  -2.813253  2.241963
H    -4.973923  -1.491772  3.348987
H    -4.136296  -3.306314  4.898061
H    -6.897519  -5.082091  5.902925
H    -5.231271  -5.263071  5.763122
H    -7.928307  -3.979128  4.191472
N    -4.602963  1.132876  2.603254
C    -5.174772  1.193762  1.269609
H    -5.196600  1.409441  3.380351
H    -5.843140  2.060419  1.208285
H    -5.752871  0.291143  1.017694
H    -4.391722  1.328956  0.514659
