35
Energy: -21190.2699651 eV PBE+vdW (tier 2 basis)
C    -1.521978  -2.400444  0.398763
C    -1.151351  -1.521350  1.580334
O    -0.613618  -1.966985  2.589017
H    -2.333071  -3.073668  0.705817
H    -0.659393  -3.025100  0.139531
H    -1.844867  -1.842938  -0.489371
N    -1.445146  -0.190424  1.434759
C    -1.319978  0.794555  2.512048
C    0.019088  0.636253  3.281346
O    0.063495  0.536636  4.507772
H    -1.956449  0.096445  0.608571
H    -1.259316  1.773761  2.004597
C    -2.545538  0.807175  3.450492
C    -3.022915  2.196305  3.895470
C    -2.065704  2.996345  4.797412
N    -1.656076  2.305853  6.004178
C    -2.503707  2.198819  7.080603
N    -1.972781  1.432504  8.130796
N    -3.632401  2.832136  7.107708
H    -2.325783  0.173657  4.320164
H    -3.369171  0.319775  2.910150
H    -3.969159  2.078618  4.442055
H    -3.250616  2.810866  3.006553
H    -2.564408  3.927613  5.095382
H    -1.148889  3.271290  4.252778
H    -0.983386  1.557510  5.841407
H    -2.676274  0.982333  8.705266
H    -1.220008  0.796791  7.880995
H    -4.080116  2.733205  8.021669
N    1.174156  0.725488  2.561631
C    1.371479  0.814172  1.127290
H    1.995778  0.568386  3.137054
H    1.305544  -0.164222  0.626910
H    2.366369  1.234916  0.939129
H    0.637948  1.487826  0.668325
