35
Energy: -21190.2268927 eV PBE+vdW (tier 2 basis)
C    0.741653  0.333952  1.250744
C    -0.254014  -0.792628  1.435187
O    0.081766  -1.970700  1.526665
H    0.782335  0.977059  2.141469
H    0.480718  0.979285  0.400989
H    1.727717  -0.107290  1.086310
N    -1.585610  -0.444920  1.497446
C    -2.160566  0.888127  1.561740
C    -1.801326  1.710803  2.818593
O    -1.558340  2.916614  2.684604
H    -2.202726  -1.241377  1.631602
H    -1.747535  1.503982  0.749254
C    -3.686077  0.795118  1.334210
C    -4.442816  2.126374  1.473514
C    -4.981718  2.373407  2.894737
N    -5.471625  3.723442  3.105282
C    -4.925874  4.651211  3.986395
N    -3.619493  4.386358  4.384914
N    -5.531365  5.691556  4.457319
H    -4.114433  0.050655  2.027806
H    -3.822310  0.380480  0.325327
H    -5.286691  2.139198  0.768627
H    -3.792340  2.965841  1.191412
H    -4.203608  2.185441  3.644871
H    -5.787468  1.648698  3.105714
H    -6.437433  3.905330  2.863670
H    -3.257932  5.169551  4.920527
H    -2.959946  4.060206  3.674912
H    -6.521578  5.697053  4.197133
N    -1.771108  1.126820  4.046374
C    -2.129184  -0.225600  4.456363
H    -1.549534  1.791506  4.782194
H    -3.094815  -0.537789  4.038118
H    -2.232077  -0.228418  5.546647
H    -1.365712  -0.964022  4.178826
