35
Energy: -21190.1717622 eV PBE+vdW (tier 2 basis)
C    -0.032865  -0.230467  -0.020810
C    0.102479  -0.090601  1.485909
O    1.199855  -0.144523  2.038491
H    0.971428  -0.167954  -0.447890
H    -0.666365  0.542543  -0.473610
H    -0.465622  -1.205842  -0.282198
N    -1.039459  0.088661  2.226114
C    -2.441381  0.034557  1.810114
C    -3.143676  1.234882  2.486643
O    -3.662470  1.129818  3.595536
H    -0.867225  0.125079  3.229319
H    -2.460845  0.159089  0.719858
C    -3.164225  -1.271827  2.172638
C    -2.572995  -2.554160  1.568392
C    -1.450605  -3.192166  2.405930
N    -0.931344  -4.437318  1.860874
C    -1.646586  -5.614782  1.956888
N    -1.019745  -6.672490  1.273445
N    -2.768056  -5.657733  2.592706
H    -4.206381  -1.156880  1.837999
H    -3.221011  -1.350273  3.268328
H    -2.214700  -2.369106  0.541827
H    -3.370975  -3.304153  1.486277
H    -1.844380  -3.417268  3.406375
H    -0.597673  -2.513029  2.530508
H    -0.326572  -4.359065  1.050903
H    -1.442591  -7.575986  1.458395
H    -0.008960  -6.706690  1.385316
H    -3.105981  -6.618531  2.681415
N    -3.131455  2.426619  1.816679
C    -2.421124  2.762546  0.594161
H    -3.529915  3.188293  2.357396
H    -1.329388  2.681998  0.707256
H    -2.659254  3.798475  0.331005
H    -2.738541  2.132585  -0.248735
