35
Energy: -21190.6017017 eV PBE+vdW (tier 2 basis)
C    -0.083108  0.296779  -0.332959
C    -0.211859  0.015649  1.148349
O    0.633369  -0.628901  1.777684
H    0.677524  1.081432  -0.461963
H    -1.020850  0.629607  -0.794929
H    0.274361  -0.608030  -0.836518
N    -1.311145  0.553310  1.750175
C    -1.579365  0.445691  3.167383
C    -3.006497  0.977934  3.385945
O    -3.595212  1.627174  2.520917
H    -2.005570  1.081600  1.225533
H    -1.539684  -0.617750  3.459369
C    -0.533915  1.203131  4.023502
C    -0.457596  2.707466  3.750996
C    0.922349  3.299939  4.076412
N    2.005425  2.820047  3.211407
C    2.033356  3.091166  1.840985
N    1.584611  4.367413  1.501373
N    2.430679  2.294723  0.908860
H    0.423884  0.717163  3.791607
H    -0.729667  1.013336  5.090773
H    -1.227073  3.245141  4.326826
H    -0.668699  2.909994  2.690657
H    1.212586  3.064358  5.111656
H    0.874804  4.395260  4.016179
H    2.279562  1.859557  3.396313
H    1.789494  4.570925  0.527792
H    1.876671  5.113509  2.125910
H    2.576755  1.346540  1.267803
N    -3.540231  0.698239  4.605592
C    -4.852489  1.158827  5.019301
H    -2.998116  0.130656  5.246117
H    -4.787532  1.787346  5.918274
H    -5.524847  0.313937  5.223106
H    -5.268130  1.751911  4.198361
