35
Energy: -21190.5883311 eV PBE+vdW (tier 2 basis)
C    -1.906083  3.116381  2.177090
C    -1.530276  1.647377  2.161332
O    -0.656487  1.199881  1.415343
H    -1.029584  3.700943  2.484730
H    -2.744704  3.345424  2.845950
H    -2.162372  3.428574  1.157304
N    -2.243467  0.863009  3.021512
C    -1.952888  -0.545756  3.226793
C    -3.242658  -1.362463  3.018188
O    -3.802058  -1.971953  3.942348
H    -2.916885  1.266000  3.682568
H    -1.246155  -0.810849  2.425561
C    -1.267401  -0.847205  4.580079
C    -1.565940  0.069950  5.779726
C    -3.015198  0.154735  6.275983
N    -3.815089  1.117704  5.496310
C    -5.219331  1.036394  5.428049
N    -5.722779  -0.243858  5.326953
N    -5.870509  2.151467  5.465650
H    -0.182878  -0.803386  4.405205
H    -1.505727  -1.885313  4.849417
H    -0.951773  -0.298466  6.615329
H    -1.193421  1.087207  5.574746
H    -3.018680  0.443352  7.341476
H    -3.487672  -0.830159  6.209560
H    -3.597861  2.084284  5.740393
H    -6.707527  -0.303097  5.101578
H    -5.136890  -0.958748  4.884935
H    -6.868177  2.007527  5.288783
N    -3.760931  -1.395872  1.763445
C    -3.305417  -0.721172  0.557878
H    -4.635295  -1.910871  1.712282
H    -3.538388  -1.348239  -0.311016
H    -2.223184  -0.554680  0.580062
H    -3.792645  0.257210  0.429201
