35
Energy: -21190.418836 eV PBE+vdW (tier 2 basis)
C    0.123135  0.647839  0.045385
C    0.196190  0.174666  1.484164
O    1.253296  0.090368  2.101211
H    1.126363  0.954471  -0.260531
H    -0.570622  1.490940  -0.076804
H    -0.218743  -0.159333  -0.618251
N    -0.998031  -0.152456  2.093995
C    -2.334940  -0.153236  1.517919
C    -3.083071  1.200459  1.608230
O    -4.167700  1.341769  1.047107
H    -0.880194  -0.530495  3.031294
H    -2.258333  -0.357925  0.439355
C    -3.203909  -1.254019  2.145045
C    -2.740518  -2.674381  1.819570
C    -3.689077  -3.734777  2.402256
N    -3.270447  -5.109609  2.202931
C    -2.291605  -5.703594  2.993581
N    -1.921495  -6.965001  2.514258
N    -1.725308  -5.240583  4.054178
H    -4.229490  -1.092576  1.784377
H    -3.233638  -1.103529  3.238783
H    -1.722029  -2.852335  2.196237
H    -2.690745  -2.801387  0.725440
H    -4.690553  -3.619411  1.960857
H    -3.817553  -3.575733  3.484213
H    -3.287634  -5.436631  1.241713
H    -1.306324  -7.430475  3.175590
H    -2.699260  -7.557948  2.236138
H    -1.976511  -4.265148  4.227847
N    -2.460950  2.165891  2.332825
C    -3.017721  3.491116  2.519247
H    -1.557632  1.933730  2.732266
H    -3.982877  3.521280  2.002201
H    -2.359698  4.262109  2.094819
H    -3.174943  3.707981  3.584766
