35
Energy: -21190.4809593 eV PBE+vdW (tier 2 basis)
C    1.671359  -1.099889  1.216202
C    0.668159  -0.124676  1.800287
O    0.332882  0.905971  1.214522
H    1.328032  -1.406753  0.220647
H    1.823323  -1.990665  1.838113
H    2.630831  -0.583460  1.085771
N    0.162373  -0.487212  3.018756
C    -0.761515  0.372715  3.729877
C    -0.170080  0.757690  5.091389
O    0.450320  -0.055409  5.788379
H    0.534649  -1.313744  3.492230
H    -0.857268  1.258466  3.087258
C    -2.183492  -0.223755  3.916192
C    -2.285826  -1.480701  4.794096
C    -1.905032  -2.789377  4.067582
N    -1.355353  -3.822819  4.944645
C    0.008617  -4.046617  5.097223
N    0.807831  -2.908353  4.919149
N    0.576832  -5.173381  5.367382
H    -2.586362  -0.419657  2.910151
H    -2.815428  0.568527  4.346426
H    -3.311947  -1.569717  5.179888
H    -1.647294  -1.368243  5.680763
H    -1.186757  -2.581222  3.264061
H    -2.795121  -3.207063  3.576537
H    -1.909450  -4.664478  5.039041
H    1.774590  -3.154198  5.119824
H    0.534946  -2.068546  5.443504
H    -0.093016  -5.947430  5.331177
N    -0.397542  2.023738  5.530519
C    -1.035148  3.119832  4.814355
H    -0.022394  2.207473  6.456123
H    -0.563405  3.297647  3.838666
H    -0.924156  4.030112  5.412474
H    -2.110496  2.947883  4.661026
