35
Energy: -21190.3168845 eV PBE+vdW (tier 2 basis)
C    0.360318  -0.839805  -0.260097
C    -0.074403  -0.786724  1.191125
O    0.181228  -1.695549  1.982495
H    1.448556  -0.972272  -0.295512
H    0.089682  0.053213  -0.836446
H    -0.092592  -1.721215  -0.731003
N    -0.749805  0.344439  1.560128
C    -1.298022  0.525439  2.897653
C    -2.805699  0.189913  2.858714
O    -3.595033  0.945114  2.286817
H    -1.049942  0.995890  0.842923
H    -0.749056  -0.177776  3.535247
C    -1.084539  1.958384  3.392567
C    -1.554799  2.159550  4.835431
C    -1.373625  3.590772  5.343158
N    0.033721  3.952099  5.396397
C    0.514841  5.214891  5.704851
N    -0.328714  6.273546  5.361672
N    1.710099  5.312187  6.183269
H    -1.637652  2.645289  2.732807
H    -0.017049  2.200383  3.299870
H    -2.622724  1.907998  4.919261
H    -1.020755  1.466275  5.508390
H    -1.871016  3.690331  6.328349
H    -1.892696  4.266554  4.644275
H    0.656838  3.243647  5.774794
H    -0.090200  7.151598  5.806540
H    -1.327460  6.095999  5.359823
H    1.992496  6.288827  6.292628
N    -3.215008  -0.962469  3.453681
C    -2.413791  -1.967479  4.143657
H    -4.217389  -1.113374  3.386600
H    -2.987799  -2.900111  4.177962
H    -2.181421  -1.673956  5.179219
H    -1.479988  -2.165442  3.602601
