35
Energy: -21190.5075419 eV PBE+vdW (tier 2 basis)
C    0.004405  0.235874  1.571155
C    -0.652532  0.667176  2.864083
O    -0.033309  1.359252  3.683644
H    -0.621448  -0.373698  0.913413
H    0.907716  -0.331943  1.829561
H    0.334348  1.131689  1.030532
N    -1.932333  0.253236  3.140361
C    -2.987939  -0.057179  2.165112
C    -2.830295  -1.465781  1.526411
O    -3.348096  -1.748077  0.449007
H    -2.261012  0.630142  4.034408
H    -3.902762  -0.150257  2.774111
C    -3.265811  1.027165  1.106751
C    -4.078168  2.248235  1.575827
C    -3.313986  3.452529  2.155636
N    -2.605252  3.231702  3.407228
C    -3.278887  2.930721  4.567572
N    -2.475312  2.258580  5.510119
N    -4.538957  3.185418  4.689357
H    -3.823336  0.512261  0.313167
H    -2.320127  1.348836  0.642636
H    -4.842523  1.940219  2.305294
H    -4.634827  2.635310  0.708049
H    -4.033976  4.267243  2.313829
H    -2.569803  3.812259  1.429690
H    -1.644967  2.908625  3.349929
H    -2.769831  2.385376  6.472563
H    -1.466193  2.349487  5.390011
H    -4.885542  2.894713  5.606060
N    -2.143473  -2.355858  2.292645
C    -1.940089  -3.736265  1.903501
H    -1.726145  -2.000619  3.146183
H    -2.331205  -4.423409  2.666384
H    -0.874481  -3.955252  1.743540
H    -2.480243  -3.900139  0.964876
