35
Energy: -21190.1181548 eV PBE+vdW (tier 2 basis)
C    -0.368988  0.161053  -0.021452
C    -0.162597  -0.164198  1.449394
O    0.924131  -0.520181  1.883841
H    0.297677  -0.466473  -0.620851
H    -0.084810  1.210671  -0.182076
H    -1.403660  0.025975  -0.362784
N    -1.307229  -0.035675  2.211484
C    -1.386387  0.110495  3.664415
C    -0.697891  1.429796  4.113288
O    0.027278  2.075725  3.363699
H    -2.082892  0.387800  1.715585
H    -2.460204  0.279534  3.849825
C    -1.075179  -1.167565  4.487367
C    0.322468  -1.803062  4.503741
C    1.474067  -0.927642  5.017752
N    1.267643  -0.303378  6.326948
C    0.964395  -1.001713  7.478541
N    1.600187  -2.237835  7.591808
N    0.126981  -0.489982  8.325963
H    -1.780659  -1.929754  4.123475
H    -1.376689  -0.963197  5.524693
H    0.598280  -2.140631  3.498075
H    0.245333  -2.697881  5.141035
H    1.670794  -0.117592  4.305894
H    2.394344  -1.532497  5.032913
H    0.749721  0.570217  6.294364
H    1.566429  -2.646961  8.517831
H    2.516107  -2.309686  7.158677
H    0.099012  -1.028833  9.195233
N    -0.965592  1.877990  5.383416
C    -1.967185  1.432459  6.351484
H    -0.518978  2.772899  5.563772
H    -1.543542  0.744033  7.100708
H    -2.814304  0.951132  5.847391
H    -2.358174  2.313651  6.874770
