35
Energy: -21190.3558518 eV PBE+vdW (tier 2 basis)
C    0.003962  0.270002  0.042390
C    0.072960  -0.041969  1.523517
O    1.133259  -0.156100  2.131462
H    1.024237  0.398116  -0.327221
H    -0.575701  1.181819  -0.156278
H    -0.480972  -0.545698  -0.512598
N    -1.130510  -0.187763  2.183838
C    -2.472389  -0.184948  1.611206
C    -2.963173  1.214633  1.173540
O    -3.744077  1.339628  0.232413
H    -1.026204  -0.490173  3.149340
H    -2.499151  -0.789379  0.691581
C    -3.436227  -0.809540  2.638569
C    -4.903548  -0.854314  2.214937
C    -5.757287  -1.623215  3.232203
N    -7.185157  -1.576828  2.963468
C    -7.930474  -0.479693  3.358137
N    -9.276272  -0.547757  2.977144
N    -7.398440  0.442508  4.087439
H    -3.352844  -0.247165  3.584230
H    -3.072887  -1.830659  2.844195
H    -4.994661  -1.318985  1.220050
H    -5.303179  0.164021  2.124524
H    -5.617455  -1.193730  4.232964
H    -5.451515  -2.680404  3.273113
H    -7.496838  -2.056229  2.126419
H    -9.724024  0.353903  2.861820
H    -9.516363  -1.197489  2.234653
H    -8.102352  1.116098  4.396784
N    -2.496872  2.246337  1.926285
C    -2.879168  3.625453  1.699018
H    -1.793950  2.027827  2.624468
H    -3.353704  4.055943  2.591560
H    -3.597962  3.637416  0.872654
H    -2.010463  4.241315  1.426422
