35
Energy: -21190.1425987 eV PBE+vdW (tier 2 basis)
C    0.035224  0.853856  -0.462816
C    0.253622  0.914332  1.034891
O    1.225020  1.501428  1.510008
H    -1.004712  0.712913  -0.773399
H    0.614237  0.007678  -0.855630
H    0.427729  1.778585  -0.897053
N    -0.623333  0.268833  1.876307
C    -1.890701  -0.413609  1.644052
C    -1.810044  -1.410943  0.457313
O    -0.800038  -2.075606  0.253321
H    -0.318169  0.330493  2.842942
H    -1.997604  -1.102081  2.499669
C    -3.109179  0.536102  1.725410
C    -3.162681  1.692643  0.723749
C    -4.412549  2.575773  0.863932
N    -4.569376  3.216153  2.160029
C    -5.386943  2.685144  3.139326
N    -5.298923  3.399245  4.344188
N    -6.096221  1.629790  2.917417
H    -3.103862  0.957399  2.741829
H    -4.044146  -0.046446  1.690871
H    -3.142084  1.322673  -0.314106
H    -2.262446  2.317556  0.837199
H    -5.321858  1.981159  0.709541
H    -4.385420  3.356731  0.088493
H    -3.787611  3.770182  2.492932
H    -6.004169  3.138885  5.024929
H    -5.230849  4.409022  4.242309
H    -6.726347  1.438762  3.698980
N    -2.950519  -1.541244  -0.280968
C    -3.078614  -2.516162  -1.347285
H    -3.756766  -0.982836  -0.031625
H    -3.359974  -2.031119  -2.292025
H    -3.829481  -3.281358  -1.103727
H    -2.104442  -3.001077  -1.469153
