35
Energy: -21190.3193089 eV PBE+vdW (tier 2 basis)
C    -2.690915  -0.164386  1.003871
C    -1.654822  0.057525  2.094988
O    -0.524605  0.478921  1.850489
H    -3.640647  -0.569228  1.375014
H    -2.273654  -0.851328  0.257141
H    -2.880911  0.789830  0.495993
N    -2.081220  -0.230288  3.355923
C    -1.233077  -0.165101  4.538328
C    -0.536742  1.205843  4.729259
O    0.654967  1.294348  5.007522
H    -3.004467  -0.639025  3.525459
H    -1.944199  -0.257370  5.374326
C    -0.195160  -1.302432  4.658991
C    -0.543322  -2.644445  4.000398
C    -1.939042  -3.247649  4.244702
N    -2.454223  -3.115663  5.603229
C    -3.602540  -2.418117  5.884864
N    -4.086662  -2.640568  7.177980
N    -4.167946  -1.661248  4.993424
H    -0.002204  -1.452972  5.730590
H    0.750707  -0.945828  4.233645
H    0.224503  -3.364802  4.323687
H    -0.425440  -2.560126  2.909095
H    -1.920796  -4.315234  3.974302
H    -2.682678  -2.774137  3.596190
H    -2.191055  -3.831575  6.268607
H    -4.737981  -1.935203  7.504014
H    -3.387138  -2.857557  7.882629
H    -5.001358  -1.210077  5.373909
N    -1.322303  2.326811  4.667651
C    -2.744512  2.458381  4.413992
H    -0.779714  3.179263  4.760101
H    -3.089397  3.405270  4.848334
H    -3.309194  1.649480  4.893943
H    -2.991614  2.457437  3.340927
