35
Energy: -21190.2504416 eV PBE+vdW (tier 2 basis)
C    -0.431584  0.175533  -0.202003
C    -0.294845  0.359891  1.301998
O    0.785372  0.597866  1.828601
H    -1.465276  0.047199  -0.547166
H    0.156484  -0.701053  -0.502398
H    0.005592  1.048097  -0.701939
N    -1.477930  0.259207  2.001405
C    -1.573449  0.193366  3.466537
C    -3.041276  0.078489  3.906265
O    -3.345380  -0.494036  4.947833
H    -2.242456  -0.178973  1.497790
H    -1.093805  -0.728498  3.831675
C    -0.904413  1.375695  4.205631
C    -1.329504  2.774279  3.758755
C    -0.740887  3.866633  4.661363
N    -1.255512  3.805976  6.022398
C    -0.437138  3.531399  7.101690
N    -1.137852  3.604238  8.319835
N    0.815750  3.279257  6.940649
H    0.181513  1.276631  4.098497
H    -1.138587  1.237869  5.270900
H    -2.428321  2.873677  3.761381
H    -0.994008  2.961258  2.726748
H    -0.952701  4.859142  4.234511
H    0.350048  3.761958  4.729835
H    -2.077940  4.358585  6.230765
H    -0.602461  3.256869  9.108603
H    -2.065133  3.185260  8.293656
H    1.254437  2.999942  7.820201
N    -3.963647  0.663142  3.077706
C    -5.367983  0.744835  3.435646
H    -3.612463  1.273139  2.346838
H    -5.993673  0.655103  2.539314
H    -5.609536  1.689493  3.947318
H    -5.590931  -0.079835  4.120376
