35
Energy: -21190.5042752 eV PBE+vdW (tier 2 basis)
C    -1.451315  -0.226290  1.440685
C    -0.157626  0.539104  1.629821
O    0.027160  1.643500  1.103280
H    -1.640178  -0.338160  0.366251
H    -2.272231  0.372827  1.855890
H    -1.453127  -1.215110  1.914293
N    0.764137  -0.059175  2.428550
C    2.052988  0.502801  2.784854
C    2.711769  -0.537303  3.716436
O    2.075174  -1.489608  4.170553
H    0.564549  -0.941657  2.900206
H    2.672783  0.597693  1.875890
C    1.961667  1.907479  3.431651
C    0.995323  2.005250  4.623626
C    0.272738  3.351142  4.691528
N    -0.660360  3.481077  3.571919
C    -1.269185  4.684258  3.232456
N    -1.427983  5.573511  4.298756
N    -1.676643  5.031365  2.059153
H    1.655019  2.593471  2.632661
H    2.970915  2.224891  3.733739
H    1.533217  1.838223  5.567225
H    0.235809  1.211405  4.559225
H    1.006808  4.178733  4.702264
H    -0.275543  3.403986  5.646202
H    -0.421688  2.931610  2.745555
H    -2.037330  6.341063  4.031656
H    -1.694603  5.154206  5.184822
H    -1.384735  4.348152  1.354240
N    4.022313  -0.313410  3.991913
C    4.802129  -1.161089  4.875397
H    4.472752  0.486377  3.562997
H    5.167849  -0.598073  5.745196
H    5.660157  -1.598058  4.346827
H    4.149292  -1.968188  5.222284
