35
Energy: -21190.0282981 eV PBE+vdW (tier 2 basis)
C    -0.677510  -0.171955  0.095540
C    -0.337518  0.137343  1.545582
O    0.825551  0.319224  1.901097
H    -0.125122  -1.069824  -0.207420
H    -0.320477  0.655908  -0.529911
H    -1.745854  -0.329332  -0.098015
N    -1.421719  0.209843  2.377587
C    -1.512760  0.406268  3.831403
C    -2.082357  1.773526  4.284556
O    -2.827632  1.786138  5.265253
H    -2.317770  0.046000  1.933965
H    -2.315924  -0.274402  4.145562
C    -0.280611  0.006685  4.678606
C    0.804161  1.060400  4.902060
C    1.911740  0.540343  5.825821
N    3.019063  1.478388  6.026359
C    2.854216  2.710709  6.660403
N    1.935774  2.698269  7.707570
N    3.462754  3.812072  6.373913
H    0.154670  -0.901934  4.238060
H    -0.691728  -0.282110  5.658111
H    0.370180  1.964008  5.355516
H    1.253371  1.338652  3.940558
H    2.348158  -0.380747  5.411261
H    1.491211  0.261647  6.803571
H    3.626283  1.557181  5.216060
H    1.944257  1.869620  8.294273
H    1.982461  3.561141  8.240306
H    3.998002  3.723647  5.505684
N    -1.775200  2.924512  3.622007
C    -0.834272  3.188703  2.543751
H    -2.237986  3.726818  4.039539
H    -0.442657  4.205348  2.666904
H    -1.308536  3.118449  1.552524
H    0.017834  2.503330  2.571162
