35
Energy: -21189.9755417 eV PBE+vdW (tier 2 basis)
C    -0.406111  -0.555056  -0.408256
C    -0.121728  0.084508  0.938628
O    0.893348  0.735471  1.143353
H    0.542521  -0.840324  -0.873196
H    -0.885355  0.199381  -1.048080
H    -1.065231  -1.430896  -0.349822
N    -1.092005  -0.153013  1.891810
C    -1.298670  0.622841  3.111903
C    -1.680490  2.088640  2.751571
O    -1.592571  2.516526  1.606682
H    -1.933629  -0.584193  1.527080
H    -2.215518  0.190137  3.546958
C    -0.228484  0.407369  4.216686
C    1.193153  0.975338  4.095903
C    1.288811  2.499069  3.926098
N    2.628129  3.038472  4.088521
C    3.579489  2.995283  3.067686
N    4.830767  3.453958  3.521668
N    3.449089  2.613262  1.850622
H    -0.151073  -0.683703  4.335533
H    -0.665153  0.771559  5.158465
H    1.729024  0.491518  3.272782
H    1.715269  0.699031  5.027823
H    0.640369  3.005169  4.660052
H    0.929334  2.792322  2.930864
H    3.025740  2.937033  5.018100
H    5.470493  3.531197  2.735292
H    4.783508  4.324014  4.047524
H    2.552937  2.157274  1.659158
N    -2.185958  2.881301  3.749938
C    -2.523856  2.567190  5.125971
H    -2.395656  3.818182  3.419468
H    -1.673794  2.688563  5.815860
H    -2.902825  1.541691  5.222223
H    -3.324691  3.240864  5.453134
