35
Energy: -21190.4101101 eV PBE+vdW (tier 2 basis)
C    0.061663  2.017010  0.308397
C    0.048353  2.098034  1.815504
O    0.739728  2.919812  2.423911
H    1.084399  2.210573  -0.031872
H    -0.577935  2.823598  -0.076315
H    -0.291346  1.063744  -0.098134
N    -0.747006  1.229936  2.531891
C    -1.904495  0.445059  2.080585
C    -1.518489  -0.830160  1.280123
O    -2.339684  -1.407135  0.572601
H    -0.707827  1.438751  3.526195
H    -2.340658  0.044204  3.011396
C    -3.012329  1.236016  1.368256
C    -3.729502  2.291226  2.222894
C    -2.985593  3.603597  2.503955
N    -2.591914  4.257061  1.251721
C    -1.859955  5.457328  1.236020
N    -0.869175  5.541649  2.199092
N    -2.040293  6.433637  0.409774
H    -3.740198  0.487485  1.030387
H    -2.615564  1.699299  0.455064
H    -4.027008  1.853956  3.190154
H    -4.676746  2.541105  1.716242
H    -2.086644  3.430541  3.105625
H    -3.640200  4.255218  3.112440
H    -3.361628  4.308428  0.587916
H    -0.295612  6.366497  2.053680
H    -0.315934  4.700232  2.371449
H    -2.889980  6.299070  -0.145748
N    -0.248491  -1.269713  1.485591
C    0.277920  -2.468864  0.864794
H    0.350879  -0.695135  2.068052
H    0.630614  -3.182810  1.621631
H    1.109301  -2.234317  0.185001
H    -0.532569  -2.929020  0.289613
