35
Energy: -21190.2594419 eV PBE+vdW (tier 2 basis)
C    0.612854  0.297264  1.215803
C    0.051542  0.880167  2.498060
O    0.692449  1.652143  3.204801
H    0.079967  0.715353  0.348250
H    0.534663  -0.797264  1.153280
H    1.664713  0.587153  1.148501
N    -1.230678  0.512466  2.859355
C    -2.165914  -0.258287  2.061258
C    -2.884970  0.625404  1.020712
O    -3.314047  1.736797  1.317730
H    -1.626837  1.123707  3.570472
H    -1.594776  -1.044013  1.558044
C    -3.240422  -0.907562  2.962875
C    -2.694326  -1.836082  4.055490
C    -2.435204  -3.296430  3.628428
N    -1.735284  -3.497680  2.367659
C    -0.400633  -3.258911  2.101463
N    0.361137  -2.870749  3.195302
N    0.180734  -3.403296  0.951417
H    -3.955131  -1.447346  2.320463
H    -3.814435  -0.088448  3.422384
H    -3.409703  -1.873866  4.890849
H    -1.784615  -1.382828  4.478754
H    -3.401136  -3.809891  3.522173
H    -1.894356  -3.820280  4.431673
H    -2.299425  -3.695779  1.553175
H    -0.044663  -2.184804  3.824176
H    1.310260  -2.640112  2.918800
H    -0.444340  -3.842345  0.269527
N    -3.034002  0.105148  -0.235557
C    -2.637487  -1.207753  -0.720033
H    -3.569403  0.702554  -0.858473
H    -3.270247  -2.015582  -0.316118
H    -1.588559  -1.432470  -0.485379
H    -2.739789  -1.220260  -1.810422
