35
Energy: -21190.6307945 eV PBE+vdW (tier 2 basis)
C    1.296918  0.666792  0.381005
C    0.833484  0.372909  1.791272
O    1.620029  0.019470  2.677928
H    0.486920  0.959549  -0.297787
H    1.798735  -0.222368  -0.019901
H    2.040251  1.472964  0.417599
N    -0.500084  0.530587  2.028586
C    -1.091584  0.323223  3.352516
C    -1.362033  -1.190537  3.544161
O    -2.468784  -1.705227  3.355946
H    -1.122858  0.737451  1.255595
H    -0.316631  0.623432  4.073731
C    -2.325038  1.208140  3.527486
C    -2.859718  1.291548  4.970583
C    -4.071102  0.395235  5.271362
N    -5.207043  0.715950  4.417278
C    -6.021000  -0.207631  3.759847
N    -5.441137  -1.438613  3.524590
N    -7.234992  0.013751  3.367521
H    -3.134020  0.869795  2.861263
H    -2.036926  2.213153  3.187526
H    -3.146144  2.333800  5.178709
H    -2.060142  1.056810  5.692038
H    -4.339888  0.507238  6.337015
H    -3.816661  -0.658785  5.125448
H    -5.704517  1.565560  4.659915
H    -4.437221  -1.482879  3.346531
H    -6.010267  -2.008136  2.909295
H    -7.576716  0.914982  3.712376
N    -0.256819  -1.885310  3.903977
C    -0.244685  -3.333011  4.003209
H    0.630153  -1.379085  3.837834
H    -1.261491  -3.677734  4.216910
H    0.423828  -3.644107  4.814625
H    0.091352  -3.804628  3.067002
