35
Energy: -21190.0645023 eV PBE+vdW (tier 2 basis)
C    -0.253316  0.818782  -0.122896
C    -0.089101  0.282613  1.288143
O    0.959520  -0.219754  1.676343
H    0.528046  1.565184  -0.310597
H    -1.235072  1.269236  -0.318493
H    -0.094738  -0.005000  -0.830066
N    -1.205462  0.398021  2.084552
C    -1.216349  -0.031147  3.475939
C    -2.207815  -1.169831  3.795955
O    -1.828947  -2.136961  4.449136
H    -1.994398  0.909978  1.711380
H    -0.234094  -0.497676  3.627575
C    -1.358877  1.138041  4.471004
C    -0.165545  2.093818  4.417208
C    -0.311922  3.324468  5.327571
N    -0.529250  3.057454  6.745429
C    0.342379  2.301543  7.524499
N    1.695907  2.552191  7.312822
N    -0.161217  1.521901  8.420048
H    -1.451525  0.707354  5.479042
H    -2.294399  1.692675  4.278727
H    -0.012522  2.451287  3.386403
H    0.746058  1.536338  4.682218
H    -1.164685  3.934862  4.994784
H    0.568685  3.976617  5.205282
H    -1.483699  2.818250  6.998387
H    2.320438  1.798958  7.572008
H    1.966600  3.023030  6.457045
H    0.562711  1.126179  9.025194
N    -3.516943  -1.075361  3.394792
C    -4.196803  -0.046503  2.631155
H    -4.055947  -1.894474  3.658562
H    -3.902064  0.960543  2.955322
H    -5.274514  -0.130177  2.812372
H    -4.032249  -0.137629  1.544563
