35
Energy: -21190.1617547 eV PBE+vdW (tier 2 basis)
C    -0.895117  -1.783528  1.487610
C    -1.236376  -0.798004  2.579230
O    -0.891014  -0.963236  3.748207
H    0.021909  -1.464231  0.963716
H    -1.680205  -1.896899  0.730497
H    -0.694363  -2.749277  1.960563
N    -1.941135  0.345566  2.250788
C    -2.501770  0.796945  0.976647
C    -3.519498  -0.206687  0.373149
O    -3.403530  -0.634041  -0.774740
H    -2.064932  0.950467  3.056400
H    -3.078719  1.702611  1.231156
C    -1.448791  1.178454  -0.071670
C    -0.453740  2.230282  0.415538
C    0.731486  2.444096  -0.540832
N    1.632688  1.301946  -0.666344
C    1.347107  0.148411  -1.388204
N    0.820157  0.347697  -2.660172
N    1.671836  -0.992192  -0.872861
H    -1.973710  1.529674  -0.971500
H    -0.923176  0.264860  -0.373108
H    -0.052706  1.936922  1.398912
H    -0.961516  3.198969  0.564899
H    1.332852  3.296116  -0.192053
H    0.367800  2.734217  -1.538673
H    2.087009  1.035909  0.204709
H    0.464372  1.270797  -2.880833
H    0.223257  -0.397578  -2.998329
H    1.575416  -1.748518  -1.555625
N    -4.562652  -0.592282  1.165312
C    -4.901543  -0.177659  2.517200
H    -5.165507  -1.273211  0.714486
H    -5.954344  -0.422065  2.698335
H    -4.794248  0.908402  2.641593
H    -4.288391  -0.677897  3.280001
