35
Energy: -21190.3498796 eV PBE+vdW (tier 2 basis)
C    -0.772796  1.889399  -0.268092
C    -0.773324  1.684933  1.236407
O    -0.005781  2.287737  1.980056
H    -0.983887  2.945288  -0.478497
H    -1.503404  1.269532  -0.802653
H    0.232007  1.674173  -0.651848
N    -1.711991  0.793822  1.705536
C    -1.720325  0.356931  3.104773
C    -2.589092  -0.895416  3.279382
O    -2.288180  -1.771727  4.091544
H    -2.115989  0.158242  1.025847
H    -0.699245  0.066935  3.393877
C    -2.192517  1.483063  4.061968
C    -1.696341  1.308232  5.513072
C    -2.809949  1.200618  6.559189
N    -3.589047  -0.024517  6.425673
C    -4.920214  -0.120046  6.073659
N    -5.665410  1.059614  6.190731
N    -5.513687  -1.185130  5.640315
H    -3.291439  1.542938  4.034749
H    -1.807054  2.424084  3.655740
H    -1.048825  2.153828  5.786100
H    -1.060264  0.412706  5.591291
H    -2.364575  1.252777  7.567220
H    -3.486692  2.059583  6.463079
H    -3.049961  -0.847940  6.169060
H    -6.653645  0.845533  6.088207
H    -5.485853  1.602597  7.030934
H    -4.835690  -1.941409  5.510314
N    -3.701076  -0.948912  2.490679
C    -4.675164  -2.027974  2.563014
H    -3.986629  -0.090385  2.030914
H    -5.497158  -1.779292  3.250013
H    -4.165052  -2.920511  2.939724
H    -5.070006  -2.234585  1.560634
