35
Energy: -21190.1263029 eV PBE+vdW (tier 2 basis)
C    0.019220  -0.026013  0.006757
C    0.034187  0.097020  1.522469
O    1.077298  0.316266  2.135872
H    0.637778  -0.886685  -0.277753
H    0.488151  0.868057  -0.421306
H    -0.980259  -0.150674  -0.428053
N    -1.192331  -0.052652  2.115212
C    -1.555666  -0.095856  3.538277
C    -2.319820  1.166986  4.016560
O    -3.448674  1.029514  4.492275
H    -1.970815  -0.205614  1.484967
H    -2.339261  -0.863650  3.611062
C    -0.430843  -0.521434  4.498335
C    -0.971152  -0.865881  5.888741
C    0.161451  -1.241917  6.856163
N    -0.275633  -1.681164  8.169491
C    -0.744703  -2.971569  8.393691
N    -1.279030  -3.121056  9.678913
N    -0.738775  -3.980770  7.592470
H    0.342874  0.252484  4.570440
H    0.068340  -1.401396  4.065806
H    -1.689186  -1.697757  5.822606
H    -1.531248  -0.014884  6.306833
H    0.832890  -0.380877  6.995173
H    0.784355  -2.040663  6.424775
H    -0.730963  -0.970698  8.734827
H    -1.489008  -4.097604  9.865012
H    -0.721319  -2.704099  10.419831
H    -0.452220  -3.715581  6.647757
N    -1.738154  2.398186  3.944622
C    -0.487261  2.823155  3.338653
H    -2.367880  3.127414  4.268619
H    -0.634422  3.191515  2.310709
H    0.238746  2.005410  3.297700
H    -0.054153  3.634248  3.937632
