35
Energy: -21190.5445118 eV PBE+vdW (tier 2 basis)
C    -1.508992  0.014830  0.019882
C    -1.576202  -0.243138  1.512486
O    -1.764862  -1.373628  1.973931
H    -1.353200  1.072438  -0.223766
H    -2.441176  -0.336086  -0.440755
H    -0.693646  -0.585312  -0.404463
N    -1.395363  0.868044  2.289211
C    -1.505200  0.779276  3.738796
C    -2.700057  1.639820  4.186656
O    -2.638512  2.871817  4.270152
H    -1.419596  1.799240  1.825119
H    -1.728537  -0.279955  3.919505
C    -0.204067  1.045786  4.535943
C    0.355938  2.469012  4.722194
C    1.305487  2.997627  3.637536
N    0.747744  3.184417  2.299058
C    -0.381252  3.935548  2.040982
N    -0.507264  5.125307  2.738508
N    -1.205775  3.504385  1.134751
H    0.565296  0.390166  4.095459
H    -0.395043  0.638303  5.541340
H    -0.477154  3.168495  4.869866
H    0.936352  2.475745  5.659069
H    2.157392  2.312806  3.515357
H    1.749859  3.946445  3.982935
H    0.759294  2.354258  1.714161
H    0.129608  5.265523  3.515232
H    -1.464169  5.360284  2.978588
H    -1.937843  4.188249  0.934198
N    -3.864671  0.982342  4.451310
C    -4.152025  -0.445876  4.397321
H    -4.616080  1.606954  4.729039
H    -3.863879  -0.963632  5.325736
H    -3.642881  -0.926815  3.553879
H    -5.231365  -0.576331  4.257438
