35
Energy: -21190.2344253 eV PBE+vdW (tier 2 basis)
C    0.344121  -0.085676  0.661397
C    0.218524  -0.117592  2.171841
O    1.191830  -0.300860  2.905341
H    1.367765  0.209256  0.413415
H    -0.366573  0.600577  0.184133
H    0.174876  -1.090061  0.247680
N    -1.027068  0.075269  2.709650
C    -2.330091  0.022661  2.054272
C    -3.452313  0.501463  3.000872
O    -4.338291  1.243692  2.580792
H    -1.020314  0.084575  3.725441
H    -2.359428  0.767664  1.247843
C    -2.691397  -1.358450  1.413648
C    -2.082871  -2.646673  1.991897
C    -2.493629  -3.104166  3.397545
N    -1.715348  -2.431272  4.443518
C    -1.879053  -2.696236  5.814578
N    -3.129129  -3.199442  6.160919
N    -1.041429  -2.391715  6.741486
H    -2.389457  -1.319614  0.357273
H    -3.789074  -1.438803  1.397545
H    -0.982551  -2.606139  1.945713
H    -2.366406  -3.454553  1.301325
H    -2.364019  -4.201188  3.454928
H    -3.561428  -2.888761  3.558521
H    -0.734102  -2.312217  4.198726
H    -3.159363  -3.457383  7.142515
H    -3.533478  -3.901268  5.550255
H    -0.207799  -1.930566  6.367072
N    -3.404629  0.034999  4.274070
C    -4.440481  0.355416  5.241894
H    -2.750027  -0.721020  4.493996
H    -4.232508  -0.196958  6.163459
H    -5.435963  0.077601  4.867153
H    -4.452850  1.431744  5.457844
