35
Energy: -21190.1344827 eV PBE+vdW (tier 2 basis)
C    -0.869556  -0.032586  -1.332258
C    -0.537869  0.551912  0.026434
O    0.579960  0.998059  0.278261
H    0.064906  -0.365845  -1.792834
H    -1.293207  0.761757  -1.963837
H    -1.592508  -0.855084  -1.315063
N    -1.522412  0.601374  0.987819
C    -2.927761  0.205205  0.930945
C    -3.138753  -1.269246  0.516294
O    -3.882203  -1.583742  -0.411720
H    -1.259229  1.160545  1.801139
H    -3.258616  0.253702  1.982491
C    -3.822551  1.148533  0.106414
C    -3.656725  2.615879  0.513277
C    -4.195862  2.939282  1.920729
N    -3.541172  4.072357  2.579606
C    -2.202246  4.018769  2.964841
N    -1.789546  2.758568  3.443842
N    -1.344537  4.976131  2.941577
H    -4.866734  0.820430  0.217953
H    -3.590968  1.023146  -0.959224
H    -4.155328  3.260393  -0.225492
H    -2.589443  2.880563  0.479054
H    -4.098948  2.065408  2.578209
H    -5.272051  3.158399  1.882315
H    -3.777413  4.973701  2.174785
H    -0.858474  2.855848  3.845174
H    -2.435170  2.350797  4.118294
H    -1.707759  5.796585  2.448117
N    -2.477827  -2.218531  1.243739
C    -1.606608  -2.058358  2.397221
H    -2.646542  -3.160008  0.904039
H    -1.539816  -3.022411  2.914225
H    -2.017325  -1.330929  3.110183
H    -0.593882  -1.733307  2.121749
