35
Energy: -21190.4950782 eV PBE+vdW (tier 2 basis)
C    -1.630250  1.374202  0.987526
C    -1.250393  0.600533  2.231809
O    -0.689371  1.139676  3.193144
H    -2.121197  0.763032  0.220566
H    -0.726669  1.827863  0.561984
H    -2.302562  2.192560  1.273955
N    -1.571129  -0.724582  2.233014
C    -1.289315  -1.596160  3.372361
C    0.126167  -2.212765  3.227770
O    0.313605  -3.370627  2.861503
H    -1.945329  -1.143607  1.388910
H    -1.268012  -0.929570  4.246197
C    -2.367331  -2.665651  3.542864
C    -3.790318  -2.110401  3.677873
C    -3.967169  -1.135171  4.840882
N    -5.346364  -0.663083  4.900167
C    -5.780368  0.262833  5.842973
N    -4.832935  1.227554  6.188050
N    -6.972753  0.142338  6.320164
H    -2.104512  -3.258068  4.431603
H    -2.311359  -3.370188  2.700022
H    -4.480524  -2.959161  3.808672
H    -4.101456  -1.604604  2.750829
H    -3.303186  -0.271515  4.692526
H    -3.650003  -1.615872  5.787380
H    -6.046097  -1.397466  4.816178
H    -5.213795  2.022540  6.687787
H    -4.173582  1.499928  5.464728
H    -7.225349  0.941500  6.907088
N    1.112925  -1.325744  3.532249
C    2.519917  -1.631964  3.363526
H    0.825392  -0.365599  3.723915
H    2.952415  -1.092690  2.507446
H    2.611982  -2.708130  3.183179
H    3.084927  -1.367942  4.267158
