35
Energy: -21190.1201603 eV PBE+vdW (tier 2 basis)
C    -2.279656  0.589577  0.359906
C    -0.897290  0.804850  0.940701
O    -0.217025  1.797155  0.689939
H    -2.388464  -0.405683  -0.091645
H    -2.453552  1.357986  -0.397377
H    -3.052136  0.673760  1.137587
N    -0.413074  -0.173418  1.780055
C    -1.120303  -1.327094  2.314989
C    -2.330625  -0.994332  3.217837
O    -3.368860  -1.646709  3.092961
H    0.513284  0.033607  2.143688
H    -1.583947  -1.885250  1.488044
C    -0.104928  -2.271988  2.990704
C    -0.689637  -3.580735  3.544247
C    -1.187302  -3.485975  4.995975
N    -1.804811  -4.713071  5.496370
C    -1.096588  -5.904046  5.659290
N    0.223203  -5.728677  6.081689
N    -1.539739  -7.099492  5.470810
H    0.427981  -1.733019  3.793112
H    0.652100  -2.502157  2.226610
H    0.082416  -4.361625  3.503316
H    -1.517288  -3.920398  2.903480
H    -1.938346  -2.693552  5.102983
H    -0.348324  -3.207802  5.651163
H    -2.737330  -4.871932  5.126582
H    0.632858  -6.623132  6.335131
H    0.355745  -5.025318  6.803165
H    -2.462667  -7.089367  5.027732
N    -2.239319  0.003130  4.146297
C    -1.121331  0.863853  4.509912
H    -3.111575  0.136368  4.648802
H    -0.197092  0.290809  4.656047
H    -1.360274  1.339717  5.467495
H    -0.933813  1.653055  3.769053
