35
Energy: -21189.9424732 eV PBE+vdW (tier 2 basis)
C    0.107915  0.905145  -0.202875
C    0.279236  0.522125  1.253999
O    1.392390  0.356740  1.748755
H    -0.372298  0.092969  -0.765135
H    1.101868  1.089060  -0.618517
H    -0.504757  1.807543  -0.325522
N    -0.846085  0.353265  2.027089
C    -2.273719  0.393539  1.687707
C    -2.646493  -0.736056  0.688867
O    -2.567174  -1.897353  1.096702
H    -0.612017  -0.020508  2.941088
H    -2.754558  -0.000209  2.590099
C    -2.822589  1.827841  1.520243
C    -3.130291  2.485624  2.877682
C    -4.509963  2.125807  3.453704
N    -4.705616  0.704181  3.738052
C    -5.356523  -0.132116  2.847884
N    -5.514256  -1.428164  3.354187
N    -5.753331  0.304934  1.699068
H    -3.755256  1.802319  0.945817
H    -2.104865  2.445896  0.964793
H    -3.112158  3.580253  2.761378
H    -2.337159  2.245457  3.604595
H    -5.294628  2.438739  2.749485
H    -4.664149  2.677415  4.391675
H    -4.787140  0.441822  4.712392
H    -4.707411  -1.771948  3.871066
H    -5.786107  -2.099706  2.643221
H    -6.130250  -0.458611  1.133686
N    -3.039050  -0.503779  -0.600677
C    -3.378065  0.715558  -1.317472
H    -3.287152  -1.376994  -1.057734
H    -3.398912  0.482185  -2.388393
H    -2.626241  1.496426  -1.169296
H    -4.363450  1.110683  -1.026643
