35
Energy: -21190.4214278 eV PBE+vdW (tier 2 basis)
C    0.199963  0.321840  0.833323
C    -0.318839  0.472457  2.250910
O    0.427064  0.614231  3.215225
H    1.282341  0.470948  0.854035
H    -0.256241  1.046237  0.144799
H    -0.009374  -0.684064  0.441730
N    -1.688026  0.463273  2.422023
C    -2.723499  0.215098  1.427119
C    -3.334981  1.500794  0.815179
O    -4.277640  1.426026  0.021570
H    -1.968577  0.498723  3.399210
H    -2.264763  -0.313413  0.579286
C    -3.850338  -0.674279  1.974683
C    -4.705392  -0.010170  3.057183
C    -6.033224  -0.738910  3.312048
N    -6.820534  -1.044988  2.107488
C    -7.677572  -0.107055  1.505775
N    -7.100190  1.136965  1.290853
N    -8.900055  -0.320192  1.150097
H    -3.410219  -1.614153  2.340817
H    -4.502043  -0.933892  1.130695
H    -4.927269  1.029640  2.777404
H    -4.173613  0.038228  4.021856
H    -6.624028  -0.150169  4.034913
H    -5.821428  -1.709008  3.784687
H    -7.277027  -1.948462  2.169988
H    -7.744870  1.741583  0.789657
H    -6.169952  1.132608  0.865617
H    -9.240431  -1.214898  1.514318
N    -2.763172  2.664886  1.202211
C    -3.208450  3.961372  0.729636
H    -2.018068  2.602056  1.888632
H    -2.377977  4.518476  0.276129
H    -3.631205  4.559229  1.548949
H    -3.984096  3.793922  -0.024976
