35
Energy: -21190.1955257 eV PBE+vdW (tier 2 basis)
C    -0.296413  -0.743190  -0.186333
C    -0.614786  0.320709  0.847896
O    -0.395944  1.507248  0.621817
H    0.784616  -0.939296  -0.154835
H    -0.526721  -0.328599  -1.173044
H    -0.815297  -1.697562  -0.058554
N    -1.073772  -0.059291  2.099054
C    -1.694280  -1.308155  2.559031
C    -0.817730  -2.547607  2.261756
O    -1.286215  -3.625275  1.899877
H    -1.268389  0.761403  2.668689
H    -1.657376  -1.240712  3.660035
C    -3.195783  -1.442837  2.220470
C    -3.624236  -1.386247  0.744363
C    -3.802656  -2.738120  0.029598
N    -5.012957  -3.451181  0.401761
C    -5.085369  -4.434810  1.383807
N    -6.417456  -4.827304  1.613386
N    -4.143421  -4.981052  2.064380
H    -3.684177  -0.615540  2.757283
H    -3.567880  -2.363482  2.692031
H    -2.928772  -0.762059  0.164374
H    -4.586033  -0.852730  0.685323
H    -2.946431  -3.397172  0.218033
H    -3.834775  -2.559403  -1.056995
H    -5.878648  -2.939783  0.259996
H    -6.432200  -5.637498  2.227198
H    -6.951979  -4.997722  0.764367
H    -3.230452  -4.542625  1.914004
N    0.504602  -2.360102  2.518513
C    1.498790  -3.394111  2.307552
H    0.806244  -1.415035  2.730320
H    2.085541  -3.213641  1.393927
H    0.974935  -4.349732  2.203224
H    2.183537  -3.448513  3.163239
