35
Energy: -21189.9472376 eV PBE+vdW (tier 2 basis)
C    0.207480  -0.502079  0.410920
C    -0.269743  -1.326569  1.584552
O    0.148258  -2.464872  1.787470
H    0.821365  0.341787  0.754397
H    -0.636693  -0.116633  -0.171694
H    0.824421  -1.149393  -0.217806
N    -1.156846  -0.773695  2.488385
C    -1.986730  0.424792  2.480208
C    -3.119500  0.346426  1.428570
O    -3.032185  -0.330034  0.409051
H    -1.414867  -1.467104  3.184207
H    -2.473945  0.394249  3.465289
C    -1.225238  1.787629  2.434237
C    -1.227497  2.577367  1.119794
C    -0.781679  4.030506  1.317309
N    -1.749738  4.828819  2.072886
C    -1.457437  5.287401  3.348449
N    -2.394194  6.231016  3.799019
N    -0.412954  4.873065  3.977560
H    -0.193218  1.597428  2.758808
H    -1.652476  2.431963  3.214234
H    -2.232331  2.581159  0.669420
H    -0.567190  2.110349  0.377395
H    -0.632695  4.504287  0.336214
H    0.173627  4.074348  1.858409
H    -2.307145  5.469308  1.519517
H    -2.330970  6.429572  4.791545
H    -3.354588  6.060745  3.511047
H    -0.376825  5.245212  4.928591
N    -4.249886  1.076147  1.694363
C    -4.506017  2.000908  2.786201
H    -4.930852  1.030808  0.942247
H    -5.582952  2.198493  2.829056
H    -3.978404  2.961075  2.665453
H    -4.216499  1.567774  3.752944
