35
Energy: -21190.570675 eV PBE+vdW (tier 2 basis)
C    -0.073536  0.407177  -0.291961
C    -0.405193  -0.082923  1.101963
O    0.457498  -0.570918  1.842958
H    0.379366  -0.414839  -0.859571
H    0.677694  1.203077  -0.212692
H    -0.940407  0.790965  -0.843605
N    -1.703024  0.051619  1.489264
C    -2.187180  -0.303864  2.825478
C    -2.499700  -1.824574  2.907171
O    -3.647495  -2.262882  2.967377
H    -2.383754  0.387488  0.817307
H    -1.351750  -0.096306  3.512601
C    -3.396079  0.541477  3.209768
C    -3.087931  2.030224  3.370563
C    -4.290783  2.841927  3.865965
N    -4.761682  2.420372  5.181900
C    -4.200297  2.950463  6.329016
N    -4.876604  2.540480  7.490712
N    -3.193460  3.751901  6.256009
H    -3.790266  0.144567  4.154887
H    -4.200388  0.380395  2.471944
H    -2.753570  2.469845  2.417268
H    -2.259939  2.172508  4.081009
H    -5.133384  2.727567  3.168171
H    -4.018940  3.907175  3.903003
H    -5.741277  2.176323  5.254701
H    -4.379093  2.760964  8.346806
H    -5.187079  1.571715  7.481498
H    -2.842793  3.993316  7.185315
N    -1.377144  -2.591602  2.907437
C    -1.420913  -4.039660  2.882655
H    -0.490611  -2.104400  2.750017
H    -0.755023  -4.460207  3.648057
H    -1.122018  -4.438166  1.901176
H    -2.449958  -4.352578  3.089220
