35
Energy: -21190.4006845 eV PBE+vdW (tier 2 basis)
C    -1.122504  -1.441172  1.246760
C    -0.359634  -0.302301  1.890290
O    0.841066  -0.364069  2.146891
H    -1.515437  -1.141934  0.263933
H    -1.987988  -1.757598  1.846862
H    -0.431231  -2.277868  1.118036
N    -1.066755  0.853420  2.154494
C    -2.502816  1.075736  2.044187
C    -2.928221  1.816244  0.757009
O    -4.099871  2.149358  0.578324
H    -0.511010  1.557630  2.634901
H    -2.999383  0.092227  1.975668
C    -3.064281  1.807438  3.290143
C    -4.448576  1.287854  3.695457
C    -4.375462  -0.106328  4.356023
N    -5.508879  -0.970265  4.076796
C    -5.586928  -1.651109  2.883492
N    -6.819716  -2.277426  2.666681
N    -4.547855  -1.739433  2.116068
H    -3.111381  2.888273  3.096582
H    -2.357030  1.660653  4.122008
H    -5.076152  1.236996  2.796013
H    -4.931246  2.001996  4.379399
H    -4.278492  -0.013265  5.446831
H    -3.487127  -0.646298  4.003264
H    -6.373227  -0.786596  4.569659
H    -6.975203  -2.551043  1.702995
H    -7.635050  -1.816248  3.060651
H    -4.750479  -2.301513  1.287419
N    -1.931733  2.041922  -0.141216
C    -2.155882  2.691450  -1.415672
H    -1.000614  1.735775  0.120846
H    -1.896529  2.027923  -2.252821
H    -1.566188  3.614945  -1.502165
H    -3.220869  2.941922  -1.475830
