35
Energy: -21190.3170503 eV PBE+vdW (tier 2 basis)
C    -0.234251  0.761674  -0.261465
C    0.130262  0.227373  1.109668
O    1.290628  0.136092  1.498907
H    0.681146  1.120625  -0.738284
H    -0.964004  1.580907  -0.204824
H    -0.672359  -0.028232  -0.888460
N    -0.912800  -0.146540  1.932160
C    -2.336148  -0.197323  1.628446
C    -3.130731  1.072294  2.025420
O    -4.331292  1.150012  1.774865
H    -0.601513  -0.553803  2.811419
H    -2.458623  -0.272206  0.537639
C    -2.988391  -1.435144  2.262456
C    -2.511178  -2.753016  1.651485
C    -3.139118  -3.971463  2.327175
N    -2.646933  -5.199909  1.727560
C    -3.203188  -6.460552  1.900138
N    -4.429733  -6.471700  2.564149
N    -2.731617  -7.570747  1.440773
H    -4.074451  -1.324930  2.141110
H    -2.792700  -1.421570  3.349139
H    -1.412678  -2.825448  1.721913
H    -2.757614  -2.776119  0.578417
H    -4.231119  -3.938155  2.198765
H    -2.936281  -3.923881  3.417501
H    -1.664590  -5.211152  1.479187
H    -4.733343  -7.427091  2.727077
H    -4.503181  -5.890568  3.393562
H    -1.907411  -7.413155  0.854589
N    -2.408397  2.046445  2.636741
C    -2.987420  3.306732  3.058544
H    -1.419485  1.869074  2.777534
H    -4.051965  3.285338  2.801561
H    -2.511766  4.153663  2.544911
H    -2.883449  3.447154  4.143247
