35
Energy: -21190.4828917 eV PBE+vdW (tier 2 basis)
C    0.587929  0.598825  -0.561437
C    0.934558  0.320339  0.890923
O    2.105700  0.252994  1.263683
H    1.396070  1.190908  -1.000989
H    -0.370009  1.108264  -0.711920
H    0.538183  -0.358501  -1.099790
N    -0.097156  0.063027  1.769572
C    -1.474629  0.552918  1.655940
C    -2.327554  -0.199293  0.607371
O    -3.315235  0.322606  0.092648
H    0.220529  -0.026737  2.746934
H    -1.934282  0.257652  2.613136
C    -1.610108  2.090773  1.510519
C    -2.493001  2.783218  2.556783
C    -2.055640  2.623188  4.026864
N    -0.649998  2.905155  4.278747
C    0.315061  1.911997  4.310207
N    1.574688  2.333122  3.915689
N    0.154025  0.679028  4.684997
H    -2.027679  2.317995  0.521304
H    -0.600484  2.523630  1.546070
H    -3.529584  2.422013  2.467054
H    -2.527499  3.857294  2.311782
H    -2.249003  1.599830  4.374255
H    -2.676764  3.272315  4.661700
H    -0.321763  3.829611  4.018747
H    2.230501  1.558307  3.854146
H    1.609047  2.923428  3.089569
H    -0.755398  0.540362  5.131537
N    -1.927432  -1.476123  0.373958
C    -2.620870  -2.367999  -0.531880
H    -1.070376  -1.772387  0.830870
H    -2.937324  -3.286326  -0.018249
H    -1.986927  -2.643047  -1.387273
H    -3.507390  -1.842582  -0.903117
