35
Energy: -21190.2814637 eV PBE+vdW (tier 2 basis)
C    -0.800675  1.677210  0.600994
C    -0.429002  0.819619  1.792741
O    0.625253  0.956112  2.409214
H    0.075594  2.265979  0.318698
H    -1.623288  2.361047  0.854722
H    -1.134817  1.076828  -0.255797
N    -1.334798  -0.144849  2.174147
C    -2.685100  -0.352110  1.672783
C    -3.666109  0.815560  1.902109
O    -4.466428  1.098936  0.997958
H    -1.042732  -0.664595  2.997387
H    -2.655562  -0.449950  0.577185
C    -3.225394  -1.679780  2.247690
C    -4.560088  -2.195407  1.669613
C    -5.800391  -1.999873  2.554685
N    -6.269263  -0.624484  2.612806
C    -6.488076  0.144192  3.732278
N    -6.395185  -0.519226  4.961375
N    -6.715866  1.421243  3.738981
H    -3.307285  -1.598305  3.343142
H    -2.441683  -2.426985  2.053546
H    -4.466849  -3.277488  1.497158
H    -4.745149  -1.751910  0.679196
H    -5.565107  -2.338382  3.573228
H    -6.602091  -2.658304  2.175729
H    -6.137688  -0.078686  1.764169
H    -6.746023  0.086294  5.698662
H    -6.829513  -1.437112  4.995718
H    -6.706943  1.790566  2.783199
N    -3.660792  1.494872  3.076031
C    -2.971912  1.200303  4.327469
H    -4.475150  2.101115  3.167578
H    -3.110518  0.158866  4.649879
H    -3.418131  1.835655  5.099086
H    -1.899831  1.424389  4.271885
