35
Energy: -21190.9177818 eV PBE+vdW (tier 2 basis)
C    1.544636  -0.740251  0.687024
C    0.802636  -0.822240  2.007318
O    1.152203  -1.594210  2.904664
H    2.602906  -0.532231  0.886639
H    1.148955  0.024783  0.008209
H    1.491548  -1.719173  0.193801
N    -0.259666  0.023541  2.135199
C    -1.181743  -0.057563  3.251287
C    -2.607135  0.093825  2.691417
O    -2.816302  0.715928  1.642731
H    -0.631684  0.520723  1.326773
H    -1.068764  -1.057312  3.689103
C    -0.906622  1.013316  4.331053
C    0.341424  0.753615  5.182828
C    0.264445  -0.503333  6.066337
N    -0.847948  -0.501815  7.009924
C    -2.118857  -0.937465  6.714478
N    -3.104742  -0.363612  7.509794
N    -2.466247  -1.828862  5.834825
H    -1.789724  1.089396  4.983654
H    -0.815348  1.986344  3.826340
H    0.516916  1.632155  5.825377
H    1.228411  0.655219  4.539763
H    1.194995  -0.606095  6.641144
H    0.208031  -1.400892  5.437070
H    -0.767606  0.120589  7.806374
H    -4.033533  -0.694325  7.270120
H    -3.053052  0.641259  7.645663
H    -1.649334  -2.321951  5.466065
N    -3.570874  -0.478809  3.442684
C    -4.971794  -0.392500  3.076498
H    -3.299063  -1.012888  4.287367
H    -5.344726  0.640501  3.139867
H    -5.549594  -1.023430  3.760357
H    -5.131636  -0.740279  2.046789
