35
Energy: -21190.1490166 eV PBE+vdW (tier 2 basis)
C    -0.656996  1.004827  0.296153
C    -0.757234  -0.161158  1.251361
O    0.055434  -1.085633  1.240524
H    -0.206851  0.637486  -0.631519
H    0.025912  1.758991  0.719666
H    -1.608290  1.501203  0.077392
N    -1.785836  -0.189719  2.172838
C    -2.829196  0.793651  2.470273
C    -3.732529  1.112495  1.251696
O    -3.938455  2.266125  0.880912
H    -1.725563  -1.006324  2.772997
H    -3.486833  0.292434  3.202321
C    -2.285950  2.075475  3.115231
C    -1.666315  1.820579  4.492610
C    -0.723722  2.934321  4.976110
N    0.575799  2.951015  4.298704
C    0.801810  3.528452  3.050394
N    0.102162  4.710462  2.825269
N    1.581967  3.074948  2.126068
H    -3.101293  2.806994  3.189263
H    -1.553263  2.526571  2.435074
H    -1.090885  0.879342  4.481385
H    -2.464244  1.683583  5.241752
H    -0.532994  2.813550  6.052750
H    -1.199020  3.915812  4.851132
H    1.089249  2.079964  4.400930
H    0.415782  5.161309  1.971417
H    0.048737  5.348521  3.613312
H    1.923106  2.136309  2.353239
N    -4.312802  0.053274  0.611755
C    -4.253924  -1.365677  0.923202
H    -4.869995  0.339055  -0.187040
H    -5.094167  -1.862372  0.424750
H    -4.363512  -1.544854  2.001406
H    -3.318934  -1.835340  0.586951
