35
Energy: -21190.6537652 eV PBE+vdW (tier 2 basis)
C    -2.203910  0.243545  3.600392
C    -1.048060  0.226975  2.615649
O    -1.153878  -0.250751  1.488350
H    -2.539365  -0.788204  3.765998
H    -3.044869  0.783097  3.145885
H    -1.946178  0.701822  4.563026
N    0.124905  0.757329  3.100126
C    1.291938  0.930146  2.243406
C    2.487029  0.026239  2.620499
O    3.595188  0.207880  2.117301
H    0.065720  1.287720  3.977037
H    0.969073  0.586272  1.247239
C    1.742314  2.396217  2.146627
C    2.305933  2.964253  3.464626
C    1.765910  4.352083  3.849866
N    0.314971  4.475434  3.796952
C    -0.566329  3.689009  4.496972
N    -1.889840  3.867176  4.105681
N    -0.291397  2.832443  5.434490
H    0.873639  2.984427  1.818383
H    2.499603  2.460594  1.356498
H    3.399989  3.038221  3.406060
H    2.116242  2.261357  4.288797
H    2.156195  5.104417  3.151120
H    2.149406  4.628449  4.848384
H    -0.072531  5.272523  3.309027
H    -2.517341  3.239568  4.597726
H    -2.058135  3.894329  3.104254
H    0.669633  2.944983  5.765294
N    2.208605  -0.963044  3.509691
C    3.180371  -1.961077  3.904812
H    1.249953  -1.025450  3.835285
H    3.275097  -2.008082  4.998323
H    4.145046  -1.673513  3.472464
H    2.908075  -2.958385  3.529762
