35
Energy: -21190.4086124 eV PBE+vdW (tier 2 basis)
C    -0.022266  -2.057369  -0.960147
C    -1.249752  -1.984225  -0.070602
O    -2.171041  -2.797791  -0.155374
H    0.462534  -3.030473  -0.812899
H    0.707706  -1.260856  -0.770564
H    -0.343847  -2.007575  -2.007818
N    -1.258602  -0.958686  0.828483
C    -2.374530  -0.725074  1.726950
C    -2.433183  0.792033  1.954057
O    -1.382594  1.433874  2.057046
H    -0.513865  -0.268020  0.866664
H    -3.270455  -1.117062  1.227213
C    -2.180421  -1.473416  3.066969
C    -3.366779  -1.400106  4.026490
C    -3.109599  -2.099788  5.369874
N    -2.055390  -1.500040  6.172911
C    -2.252030  -0.307349  6.835608
N    -1.117787  0.153716  7.519614
N    -3.422693  0.238629  6.857987
H    -1.276912  -1.060092  3.542551
H    -1.966080  -2.522514  2.811323
H    -4.252166  -1.865047  3.563627
H    -3.629506  -0.357327  4.252708
H    -2.842048  -3.155190  5.211004
H    -4.028410  -2.072133  5.969437
H    -1.102898  -1.769547  5.966042
H    -1.114822  1.155892  7.673108
H    -0.217601  -0.175579  7.182291
H    -3.430321  1.060045  7.466304
N    -3.643185  1.405749  2.050281
C    -4.983690  0.851326  1.964022
H    -3.560646  2.395201  2.268962
H    -5.628926  1.544189  1.409151
H    -5.424102  0.677475  2.956845
H    -4.972597  -0.099307  1.422917
