35
Energy: -21190.1465159 eV PBE+vdW (tier 2 basis)
C    -0.735955  -0.745772  0.321080
C    -0.444703  -0.278157  1.732960
O    0.684821  -0.384345  2.211221
H    -1.081697  -1.787446  0.364552
H    0.201114  -0.705058  -0.241713
H    -1.507369  -0.171011  -0.202925
N    -1.462052  0.219320  2.513357
C    -2.847945  0.595341  2.239087
C    -3.562944  -0.414281  1.304048
O    -3.528845  -1.620931  1.533615
H    -1.128758  0.428909  3.450335
H    -3.382287  0.422438  3.188432
C    -3.013061  2.095648  1.922615
C    -2.182415  2.656887  0.751582
C    -2.927205  3.743150  -0.031209
N    -4.043276  3.198441  -0.806045
C    -5.367277  3.492257  -0.526692
N    -6.237075  3.093674  -1.554549
N    -5.695777  3.972113  0.622529
H    -2.750606  2.653664  2.833840
H    -4.082587  2.310676  1.772724
H    -1.900808  1.861763  0.045841
H    -1.231967  3.065974  1.122300
H    -2.237327  4.255698  -0.718646
H    -3.349044  4.495661  0.647738
H    -3.835899  2.880311  -1.744579
H    -7.193833  3.401006  -1.416144
H    -5.920341  3.283441  -2.502482
H    -6.699274  4.152553  0.682451
N    -4.274315  0.118159  0.276193
C    -5.057730  -0.714359  -0.616934
H    -4.246690  1.118097  0.097428
H    -5.718235  -0.068014  -1.205537
H    -5.661450  -1.425854  -0.039832
H    -4.418515  -1.297424  -1.297403
