35
Energy: -21190.0686975 eV PBE+vdW (tier 2 basis)
C    -0.604908  -1.818243  -0.129447
C    -0.206549  -0.637613  0.733508
O    0.943111  -0.201756  0.727555
H    -0.439578  -2.745777  0.437638
H    0.062899  -1.831765  -0.995739
H    -1.647558  -1.816767  -0.461681
N    -1.131992  -0.078133  1.590281
C    -2.578211  -0.257352  1.747978
C    -3.015304  -1.732468  1.659997
O    -3.832223  -2.138299  0.832875
H    -0.726036  0.701842  2.101664
H    -2.779208  0.017115  2.798897
C    -3.419760  0.726475  0.905414
C    -3.193558  0.755851  -0.618031
C    -4.235704  0.020381  -1.475974
N    -5.554963  0.629992  -1.464054
C    -6.597130  0.234031  -0.633496
N    -7.700857  1.099318  -0.745668
N    -6.658858  -0.759030  0.180435
H    -3.185719  1.721626  1.312608
H    -4.481255  0.554882  1.134700
H    -2.194122  0.370133  -0.868241
H    -3.174013  1.807543  -0.945223
H    -4.335507  -1.020926  -1.149434
H    -3.877880  -0.003191  -2.517716
H    -5.591900  1.603416  -1.750216
H    -7.951352  1.330720  -1.704388
H    -8.492576  0.709448  -0.241185
H    -5.765381  -1.249533  0.277044
N    -2.483742  -2.584177  2.583693
C    -1.526399  -2.317338  3.644484
H    -2.814019  -3.537724  2.470682
H    -1.753696  -1.374625  4.158576
H    -0.490967  -2.267032  3.277827
H    -1.597628  -3.121768  4.384900
