35
Energy: -21190.5109934 eV PBE+vdW (tier 2 basis)
C    1.271578  0.020668  0.317131
C    0.437907  0.546323  1.457510
O    0.476698  1.745698  1.788112
H    2.276834  -0.164129  0.733044
H    1.341391  0.785715  -0.462475
H    0.887289  -0.913472  -0.111436
N    -0.314843  -0.377233  2.110328
C    -1.051668  -0.272292  3.385850
C    -2.272827  0.676563  3.425601
O    -3.224353  0.376653  4.149539
H    -0.249348  -1.319643  1.745375
H    -1.516710  -1.259620  3.497501
C    -0.143860  -0.079238  4.627251
C    0.300532  1.358530  4.973141
C    1.801001  1.473793  5.265145
N    2.612243  1.186552  4.084298
C    3.411622  0.079592  3.918934
N    3.964435  -0.422046  5.104020
N    3.575385  -0.424762  2.735211
H    0.735915  -0.721034  4.472968
H    -0.692822  -0.501502  5.479518
H    -0.256206  1.723636  5.848214
H    0.063874  2.047106  4.152833
H    2.085996  0.774113  6.062622
H    2.021801  2.489878  5.631201
H    2.219016  1.514895  3.203099
H    4.671139  -1.132892  4.953160
H    4.260200  0.275961  5.781144
H    4.313733  -1.132534  2.737841
N    -2.206268  1.798938  2.671419
C    -3.264037  2.790206  2.685252
H    -1.300842  2.020245  2.240947
H    -3.374542  3.231645  1.687224
H    -3.061709  3.597175  3.407158
H    -4.200071  2.301274  2.975545
