35
Energy: -21190.1683556 eV PBE+vdW (tier 2 basis)
C    -0.261283  -0.292929  0.024114
C    -0.150580  0.321884  1.406421
O    0.889240  0.841566  1.800916
H    -0.791028  0.393313  -0.651725
H    -0.791700  -1.253516  0.020688
H    0.752801  -0.438158  -0.357537
N    -1.270290  0.324306  2.207935
C    -2.556674  -0.332163  2.010352
C    -2.390191  -1.880457  1.956301
O    -1.596564  -2.447526  2.698821
H    -1.063271  0.662617  3.141628
H    -3.085987  -0.183105  2.965239
C    -3.423453  0.304761  0.901393
C    -3.516789  1.833007  0.950356
C    -4.117166  2.418074  2.240137
N    -5.407745  1.876973  2.646695
C    -6.561913  2.148141  1.938829
N    -7.672311  1.450593  2.448953
N    -6.539736  2.934249  0.917035
H    -4.443576  -0.107070  0.979032
H    -3.045678  0.015850  -0.090600
H    -4.132135  2.170349  0.106269
H    -2.516426  2.271724  0.821158
H    -4.242425  3.499862  2.101948
H    -3.431460  2.279970  3.088793
H    -5.403319  0.999331  3.152629
H    -8.552593  1.744390  2.038679
H    -7.728257  1.428686  3.464796
H    -7.485164  3.131077  0.581212
N    -3.201348  -2.541818  1.080603
C    -3.195937  -3.987491  0.953738
H    -3.799154  -2.000105  0.469516
H    -2.850751  -4.299921  -0.042025
H    -4.197878  -4.402831  1.128421
H    -2.506124  -4.381943  1.707016
