35
Energy: -21190.3776741 eV PBE+vdW (tier 2 basis)
C    -0.107239  -0.133617  1.056988
C    -0.759308  0.099520  2.408685
O    -0.078678  0.082487  3.445098
H    0.976333  -0.082836  1.193140
H    -0.414867  0.609271  0.308938
H    -0.358192  -1.130590  0.666302
N    -2.095242  0.352251  2.446002
C    -3.051698  -0.037547  1.427260
C    -4.255785  0.918535  1.475267
O    -4.648182  1.413105  2.528065
H    -2.508023  0.390451  3.397419
H    -2.566484  0.037042  0.445915
C    -3.529296  -1.505414  1.602994
C    -4.275082  -1.869520  2.899763
C    -3.477673  -1.872010  4.214438
N    -3.396504  -0.537469  4.834483
C    -2.690675  -0.404262  6.053020
N    -1.365905  -0.794296  5.963314
N    -3.336422  0.040738  7.076400
H    -2.639724  -2.148617  1.506426
H    -4.181496  -1.757127  0.751184
H    -4.659032  -2.891006  2.759640
H    -5.166168  -1.232563  3.017040
H    -2.456682  -2.239890  4.043437
H    -3.956465  -2.583938  4.910762
H    -4.323337  -0.134828  4.975453
H    -0.821898  -0.613091  6.799268
H    -0.875081  -0.526851  5.097461
H    -2.700320  0.235236  7.856337
N    -4.912422  1.138359  0.295268
C    -4.524322  0.727419  -1.044418
H    -5.712364  1.755660  0.393469
H    -5.285235  1.082939  -1.747057
H    -3.559305  1.157664  -1.352919
H    -4.470361  -0.365943  -1.145048
