35
Energy: -21190.3798904 eV PBE+vdW (tier 2 basis)
C    -0.366719  -0.310453  0.016561
C    -0.038714  -0.045705  1.472019
O    1.111696  0.130098  1.859648
H    -0.553502  0.646159  -0.490889
H    -1.246473  -0.945534  -0.137542
H    0.509405  -0.772139  -0.448185
N    -1.083008  -0.017586  2.382395
C    -2.525633  -0.007033  2.123505
C    -3.057882  -1.386142  1.650597
O    -4.116908  -1.492526  1.027779
H    -0.774137  0.285337  3.301890
H    -2.978283  0.111101  3.122297
C    -3.023868  1.168260  1.242864
C    -4.143714  2.014671  1.864067
C    -5.497658  1.305556  2.045024
N    -6.057914  0.726800  0.826462
C    -6.372977  1.491574  -0.290578
N    -6.870204  2.766167  -0.000745
N    -6.253048  1.135976  -1.525944
H    -3.347963  0.787955  0.265136
H    -2.167381  1.829363  1.058454
H    -4.302989  2.895278  1.224729
H    -3.816637  2.400160  2.845450
H    -6.209499  2.014531  2.492344
H    -5.412722  0.476816  2.763790
H    -5.598544  -0.153412  0.591809
H    -7.244358  3.197645  -0.840920
H    -7.524021  2.804752  0.776353
H    -5.759962  0.241362  -1.598756
N    -2.307166  -2.448415  2.029967
C    -2.659533  -3.820044  1.718949
H    -1.426013  -2.243171  2.489868
H    -2.715754  -4.425748  2.633247
H    -1.926190  -4.274264  1.037865
H    -3.640100  -3.813558  1.232067
