35
Energy: -21190.5254858 eV PBE+vdW (tier 2 basis)
C    -0.868416  0.633251  -2.413773
C    -0.193168  0.698270  -1.061940
O    1.017452  0.847715  -0.920242
H    -0.109379  0.806941  -3.180707
H    -1.658154  1.392739  -2.505576
H    -1.343304  -0.347321  -2.581524
N    -1.012517  0.603343  0.050109
C    -2.424141  0.238360  0.075610
C    -3.390605  1.437525  0.023495
O    -4.592636  1.262222  -0.187831
H    -0.491513  0.551807  0.922717
H    -2.641650  -0.345465  -0.829272
C    -2.679152  -0.661470  1.305441
C    -4.078764  -1.267618  1.461913
C    -4.582618  -2.070610  0.250722
N    -3.655706  -3.083116  -0.219301
C    -2.925705  -3.016478  -1.388793
N    -1.958289  -4.020845  -1.475302
N    -3.051452  -2.182715  -2.370088
H    -2.440919  -0.089532  2.217633
H    -1.940583  -1.475414  1.243988
H    -4.819597  -0.482191  1.664146
H    -4.057075  -1.920526  2.349564
H    -4.796346  -1.376782  -0.572033
H    -5.543681  -2.542629  0.505115
H    -3.580379  -3.941818  0.312458
H    -1.394835  -3.911707  -2.313197
H    -1.392990  -4.156742  -0.641760
H    -3.901841  -1.620339  -2.283300
N    -2.822803  2.654185  0.226929
C    -3.573401  3.892500  0.182592
H    -1.811646  2.671741  0.316633
H    -3.235657  4.534354  -0.643294
H    -3.475514  4.448794  1.125000
H    -4.627027  3.636852  0.025890
