35
Energy: -21190.2461986 eV PBE+vdW (tier 2 basis)
C    0.664779  1.840112  1.368166
C    0.559911  0.531075  2.134860
O    1.533064  0.019684  2.680747
H    1.710294  2.157711  1.389753
H    0.047831  2.624778  1.830426
H    0.343376  1.738266  0.322668
N    -0.676990  -0.059421  2.204842
C    -1.930691  0.415382  1.655154
C    -3.052228  -0.162844  2.533117
O    -2.880091  -1.210058  3.165284
H    -0.744462  -0.883365  2.801230
H    -1.950618  1.513745  1.714743
C    -2.172609  0.025486  0.165058
C    -2.616229  -1.417280  -0.108158
C    -1.560222  -2.507315  0.161773
N    -2.038243  -3.856898  -0.075081
C    -2.809070  -4.599691  0.819914
N    -2.781728  -4.169960  2.135368
N    -3.449355  -5.685866  0.527999
H    -1.241878  0.241847  -0.380939
H    -2.928904  0.710346  -0.247612
H    -2.912525  -1.485611  -1.167215
H    -3.526408  -1.650261  0.466768
H    -1.184005  -2.457687  1.189704
H    -0.681745  -2.333707  -0.479347
H    -2.214183  -4.099346  -1.043331
H    -3.415882  -4.710111  2.712869
H    -2.770370  -3.176754  2.355393
H    -3.291638  -5.958921  -0.445768
N    -4.247905  0.480979  2.557916
C    -4.654628  1.690945  1.863236
H    -4.953552  -0.015204  3.095373
H    -3.822607  2.400817  1.792558
H    -5.453961  2.176256  2.434418
H    -5.028328  1.487161  0.848343
