35
Energy: -21190.1126369 eV PBE+vdW (tier 2 basis)
C    -1.004865  0.074003  0.496992
C    -0.535531  0.243025  1.933569
O    0.660563  0.348867  2.204897
H    -0.572363  -0.851480  0.096312
H    -0.608034  0.903789  -0.100433
H    -2.094721  0.035816  0.377640
N    -1.543014  0.265571  2.860406
C    -1.488119  0.340098  4.327566
C    -1.928840  1.708169  4.909539
O    -2.815889  1.722129  5.764032
H    -2.480941  0.178242  2.487633
H    -2.297044  -0.316024  4.679841
C    -0.195040  -0.163948  4.989298
C    0.083853  -1.646202  4.729522
C    1.436094  -2.107680  5.290845
N    1.611202  -1.950393  6.737082
C    0.820867  -2.610952  7.677120
N    0.424470  -3.891861  7.292061
N    0.447958  -2.159653  8.826093
H    -0.338394  0.000229  6.068232
H    0.665198  0.438361  4.671846
H    0.095057  -1.843253  3.647684
H    -0.719156  -2.261280  5.164295
H    2.247357  -1.541179  4.810832
H    1.601765  -3.159570  5.018681
H    1.835680  -1.005116  7.028764
H    0.002399  -4.383747  8.073921
H    1.132688  -4.444607  6.817767
H    0.674323  -1.166466  8.928693
N    -1.326409  2.863535  4.507965
C    -0.292767  3.102013  3.515156
H    -1.734815  3.676096  4.961251
H    0.354659  2.228722  3.388722
H    0.331429  3.941663  3.845244
H    -0.716282  3.352697  2.529245
