35
Energy: -21190.0973954 eV PBE+vdW (tier 2 basis)
C    -0.249215  -0.202878  -0.128303
C    -0.132324  -0.402496  1.370667
O    0.887043  -0.905377  1.859590
H    0.598564  0.405525  -0.466770
H    -1.183430  0.274886  -0.447284
H    -0.165154  -1.180967  -0.618344
N    -1.204484  0.023974  2.095640
C    -1.496361  -0.097245  3.534167
C    -1.272734  1.173069  4.397465
O    -2.055497  1.337958  5.335663
H    -1.947558  0.448072  1.553625
H    -2.592207  -0.135844  3.572928
C    -1.001803  -1.442887  4.156916
C    -0.387206  -1.438714  5.566314
C    0.926569  -0.674805  5.758979
N    1.891351  -0.970323  4.708543
C    3.134710  -0.375251  4.755856
N    3.813338  -0.424468  3.528252
N    3.553517  0.200527  5.835106
H    -0.293446  -1.899741  3.458930
H    -1.868317  -2.117238  4.177527
H    -0.221968  -2.495944  5.824916
H    -1.110998  -1.045862  6.293972
H    1.370454  -0.954974  6.723162
H    0.745831  0.410288  5.830868
H    1.503784  -1.055567  3.767381
H    4.822578  -0.375339  3.610924
H    3.512988  -1.154263  2.887013
H    4.506639  0.551606  5.712813
N    -0.328668  2.110605  4.105074
C    0.879273  2.041863  3.295511
H    -0.384159  2.884820  4.762429
H    1.739755  2.359194  3.898845
H    0.807331  2.690060  2.409223
H    1.084479  1.021743  2.969115
