35
Energy: -21190.0774687 eV PBE+vdW (tier 2 basis)
C    -0.461897  0.148461  -0.239429
C    -0.600593  -0.495219  1.129467
O    -0.311342  -1.668325  1.338697
H    0.591058  0.102854  -0.544366
H    -0.797559  1.192694  -0.278951
H    -1.036371  -0.440013  -0.965267
N    -1.075614  0.327754  2.118810
C    -1.231974  -0.113317  3.495337
C    -2.442873  -1.024162  3.808184
O    -2.334540  -1.845255  4.714656
H    -1.296324  1.288277  1.885838
H    -0.380166  -0.769229  3.725872
C    -1.224566  1.083462  4.458516
C    0.116108  1.817201  4.524455
C    0.116554  2.993587  5.511003
N    -0.153288  2.617043  6.896528
C    0.813694  2.529547  7.891426
N    2.101326  2.273142  7.416783
N    0.628995  2.674949  9.159505
H    -1.477722  0.702125  5.457367
H    -2.028919  1.789117  4.179737
H    0.403010  2.203176  3.533008
H    0.900318  1.095833  4.806361
H    -0.646715  3.725640  5.202527
H    1.085557  3.510241  5.467389
H    -1.075602  2.835242  7.250532
H    2.734699  2.111240  8.194456
H    2.171123  1.548060  6.707964
H    -0.316050  3.010365  9.365713
N    -3.620892  -0.888423  3.125951
C    -4.033856  0.061948  2.107459
H    -4.311298  -1.565095  3.435989
H    -5.126537  0.020996  2.029752
H    -3.612764  -0.163229  1.117093
H    -3.769779  1.093585  2.376432
