35
Energy: -21190.2279466 eV PBE+vdW (tier 2 basis)
C    0.502993  -0.164375  1.275981
C    0.268216  0.166044  2.734616
O    1.103277  0.741730  3.429470
H    1.561073  -0.000682  1.056540
H    -0.101515  0.487946  0.630248
H    0.224863  -1.197301  1.028566
N    -0.944045  -0.200313  3.274249
C    -2.078069  -0.846374  2.625370
C    -2.737575  -0.022432  1.488637
O    -2.873186  -0.541579  0.380448
H    -1.037659  0.051082  4.254605
H    -1.733130  -1.743531  2.090055
C    -3.081168  -1.286098  3.707358
C    -4.439465  -1.727436  3.166545
C    -5.407726  -2.206351  4.260879
N    -5.570377  -1.323479  5.410729
C    -6.158911  -0.080617  5.310704
N    -6.149471  0.610049  6.534733
N    -6.608321  0.353364  4.180377
H    -3.231954  -0.451179  4.409837
H    -2.609131  -2.098075  4.285472
H    -4.315965  -2.545525  2.440352
H    -4.915766  -0.897326  2.629540
H    -5.077905  -3.175474  4.663373
H    -6.397875  -2.358737  3.810593
H    -4.900457  -1.428818  6.163077
H    -6.697570  1.463568  6.522449
H    -6.364667  0.040238  7.349495
H    -7.130518  1.224182  4.302871
N    -3.131842  1.264690  1.716060
C    -3.283567  1.977235  2.977159
H    -3.591790  1.664997  0.903269
H    -4.162581  1.637097  3.546760
H    -3.409030  3.042979  2.754888
H    -2.383112  1.877995  3.592833
