35
Energy: -21190.1410917 eV PBE+vdW (tier 2 basis)
C    0.020760  -0.044260  0.596940
C    -0.120941  0.069069  2.105186
O    0.850785  0.073151  2.854726
H    1.085058  -0.144077  0.369757
H    -0.368573  0.846158  0.083271
H    -0.514007  -0.918066  0.199647
N    -1.395626  0.183957  2.610647
C    -2.663589  0.083056  1.893217
C    -3.624130  1.112037  2.533042
O    -4.439369  0.782817  3.392757
H    -1.435079  0.185930  3.627712
H    -2.475513  0.371289  0.849744
C    -3.257342  -1.329859  1.920777
C    -4.470049  -1.490313  1.002816
C    -5.041164  -2.907196  1.035833
N    -6.199688  -3.013239  0.163467
C    -6.777514  -4.200579  -0.265439
N    -6.046769  -5.349893  0.038438
N    -7.854650  -4.314027  -0.968207
H    -3.534870  -1.568463  2.957834
H    -2.462231  -2.031516  1.624615
H    -4.199500  -1.243763  -0.036794
H    -5.253469  -0.779208  1.310379
H    -5.278057  -3.173495  2.085892
H    -4.279959  -3.618053  0.681587
H    -6.838804  -2.226908  0.182704
H    -6.569257  -6.178398  -0.230577
H    -5.675435  -5.412412  0.981679
H    -8.218520  -3.397570  -1.243260
N    -3.497692  2.407158  2.121895
C    -2.504953  2.966041  1.217665
H    -4.093693  3.050966  2.632931
H    -1.481431  2.861666  1.606296
H    -2.716128  4.032815  1.091498
H    -2.554989  2.503246  0.221776
