35
Energy: -21190.6824645 eV PBE+vdW (tier 2 basis)
C    -1.018655  -1.764260  2.038090
C    -1.127894  -0.256174  1.944665
O    -0.382269  0.393199  1.196429
H    -1.080647  -2.186779  1.028208
H    -1.783874  -2.227778  2.671937
H    -0.028009  -2.016553  2.437959
N    -2.087138  0.314068  2.721649
C    -2.332408  1.745563  2.960387
C    -2.888559  2.538726  1.754507
O    -3.854764  3.299805  1.919005
H    -2.666130  -0.313076  3.267149
H    -3.158164  1.750919  3.679711
C    -1.101461  2.440934  3.593157
C    -1.241652  3.949990  3.846434
C    -2.157324  4.369636  5.007680
N    -3.564983  4.012619  4.823511
C    -4.192850  2.988935  5.512214
N    -3.708217  2.749602  6.803499
N    -5.148869  2.240556  5.061453
H    -0.238526  2.274490  2.934396
H    -0.885440  1.922730  4.540604
H    -1.563473  4.459246  2.923999
H    -0.239247  4.349034  4.067204
H    -2.067743  5.460346  5.142457
H    -1.802368  3.901091  5.935191
H    -3.875445  4.055764  3.848867
H    -4.329760  2.109333  7.289696
H    -3.520978  3.585531  7.350867
H    -5.328134  2.446253  4.073526
N    -2.231834  2.391348  0.586514
C    -2.614794  3.092031  -0.623376
H    -1.425717  1.750150  0.586577
H    -1.794311  3.728985  -0.982591
H    -3.483119  3.719989  -0.398995
H    -2.880140  2.383115  -1.420119
