35
Energy: -21190.7965037 eV PBE+vdW (tier 2 basis)
C    0.136002  -1.890796  0.731240
C    -0.215564  -1.186022  2.029780
O    0.324248  -1.477470  3.099792
H    -0.041188  -2.966307  0.855618
H    1.207158  -1.756283  0.535025
H    -0.434588  -1.530304  -0.133399
N    -1.160122  -0.211906  1.926446
C    -1.650463  0.531800  3.070118
C    -3.045647  1.041085  2.658520
O    -3.314237  1.232419  1.464491
H    -1.638814  -0.001620  1.052123
H    -1.730432  -0.159186  3.923610
C    -0.660614  1.664787  3.466241
C    -0.733783  2.106027  4.935228
C    -1.731832  3.236677  5.236913
N    -2.072489  3.356361  6.651927
C    -2.911747  2.442562  7.248092
N    -2.953168  2.564003  8.638641
N    -3.552617  1.557854  6.548386
H    -0.785374  2.517474  2.779443
H    0.340126  1.255383  3.280266
H    0.266034  2.428670  5.263627
H    -0.990610  1.233617  5.554145
H    -2.669222  3.093852  4.689555
H    -1.323204  4.204434  4.912955
H    -1.332609  3.703855  7.253543
H    -3.691422  2.032584  9.086118
H    -2.891573  3.512422  8.998113
H    -4.200716  1.025357  7.131482
N    -3.923186  1.261589  3.657613
C    -5.228088  1.838825  3.391033
H    -3.648476  1.181755  4.651647
H    -5.894235  1.118556  2.894589
H    -5.145384  2.718462  2.737786
H    -5.671129  2.135500  4.348164
