35
Energy: -21190.4211742 eV PBE+vdW (tier 2 basis)
C    0.521776  1.394756  0.298196
C    0.163579  1.373398  1.772089
O    0.343418  2.344070  2.507042
H    1.586520  1.639034  0.198739
H    -0.044843  2.197444  -0.189953
H    0.320053  0.448883  -0.219267
N    -0.375315  0.202431  2.226257
C    -0.746385  0.007549  3.615631
C    -0.420808  -1.448028  3.964094
O    -0.712112  -2.368106  3.198718
H    -0.483628  -0.602974  1.617078
H    -0.133175  0.705548  4.206176
C    -2.237814  0.348968  3.850799
C    -2.737859  0.202320  5.295870
C    -3.280125  -1.195516  5.634953
N    -3.744401  -1.346450  7.014690
C    -4.847142  -0.658795  7.524814
N    -5.874263  -0.462626  6.602883
N    -4.991623  -0.218134  8.728027
H    -2.843088  -0.273999  3.173207
H    -2.360754  1.388411  3.518279
H    -3.545505  0.926330  5.473298
H    -1.936746  0.466650  6.007325
H    -2.521530  -1.971116  5.467560
H    -4.103593  -1.436828  4.948245
H    -2.992998  -1.402674  7.695141
H    -6.706814  -0.110361  7.065619
H    -6.069792  -1.248964  5.990214
H    -4.120599  -0.294933  9.260561
N    0.176843  -1.633265  5.173745
C    0.507427  -2.945319  5.698429
H    0.424768  -0.810128  5.709273
H    -0.023867  -3.143700  6.640193
H    1.587473  -3.042693  5.872601
H    0.198923  -3.685185  4.952474
