35
Energy: -21190.241427 eV PBE+vdW (tier 2 basis)
C    -0.432360  -0.167433  0.015840
C    -0.536242  -0.018285  1.520288
O    0.447130  0.222552  2.213947
H    -0.521990  0.826067  -0.445692
H    -1.192938  -0.819312  -0.427811
H    0.565893  -0.551645  -0.215445
N    -1.775589  -0.173273  2.116025
C    -3.105362  -0.278744  1.507625
C    -3.361558  -1.632022  0.790354
O    -4.241274  -1.743646  -0.059427
H    -1.739850  0.046908  3.107363
H    -3.797423  -0.300573  2.366453
C    -3.526122  0.907807  0.626488
C    -3.470493  2.247904  1.357801
C    -3.935372  3.405999  0.478276
N    -3.834609  4.668127  1.208237
C    -4.242512  5.879225  0.659161
N    -3.969820  6.012829  -0.704470
N    -4.835826  6.734710  1.419898
H    -4.544322  0.696141  0.273830
H    -2.901709  0.943516  -0.278064
H    -2.448516  2.458468  1.708825
H    -4.106786  2.201649  2.259347
H    -4.965246  3.218365  0.119367
H    -3.296410  3.448369  -0.417283
H    -4.171046  4.618213  2.167692
H    -4.069486  6.959509  -1.052933
H    -3.117691  5.567741  -1.033586
H    -4.967782  7.632030  0.945876
N    -2.586681  -2.661799  1.224493
C    -2.710848  -4.010524  0.708894
H    -1.868615  -2.444161  1.907055
H    -2.963917  -4.719326  1.509474
H    -1.779364  -4.339330  0.227065
H    -3.515867  -4.009882  -0.033730
