35
Energy: -21190.2707277 eV PBE+vdW (tier 2 basis)
C    -0.711593  -1.299702  -0.733678
C    -0.266472  -0.431902  0.415367
O    0.833705  0.115690  0.423615
H    -1.081783  -0.673555  -1.563580
H    -1.499781  -2.016339  -0.483682
H    0.168666  -1.840433  -1.098620
N    -1.090933  -0.274597  1.525938
C    -2.518843  -0.527669  1.739684
C    -2.946874  -1.999384  1.522243
O    -4.074962  -2.298218  1.137842
H    -0.669170  0.386746  2.174079
H    -2.642080  -0.417549  2.831632
C    -3.488560  0.514532  1.141262
C    -3.462277  0.834640  -0.358150
C    -4.129284  -0.198589  -1.281397
N    -4.435886  0.314808  -2.612309
C    -3.459040  0.486128  -3.570046
N    -3.950269  1.121754  -4.722754
N    -2.241408  0.109764  -3.362276
H    -3.285082  1.451997  1.681311
H    -4.502526  0.202947  1.434591
H    -2.439398  1.037372  -0.704619
H    -4.005810  1.785508  -0.483205
H    -3.500564  -1.085316  -1.410669
H    -5.071605  -0.544947  -0.835899
H    -5.196620  0.984397  -2.659854
H    -3.296107  1.118106  -5.497930
H    -4.876403  0.818073  -5.013653
H    -1.676688  0.196727  -4.209781
N    -2.011009  -2.911785  1.904256
C    -2.216381  -4.341022  1.787199
H    -1.087385  -2.554666  2.126158
H    -1.927483  -4.851943  2.714968
H    -1.638083  -4.767112  0.953210
H    -3.281359  -4.512360  1.598295
