35
Energy: -21190.1872672 eV PBE+vdW (tier 2 basis)
C    -0.148825  -0.103657  0.016222
C    -0.010032  0.051582  1.516014
O    1.090470  0.179340  2.057290
H    0.851296  -0.287258  -0.385676
H    -0.532357  0.818537  -0.448333
H    -0.808970  -0.936322  -0.254007
N    -1.144656  0.055588  2.292885
C    -2.551983  0.176039  1.918772
C    -2.998403  -1.042842  1.063045
O    -2.870606  -2.182163  1.498796
H    -0.927858  0.086411  3.283533
H    -3.102677  0.017928  2.859001
C    -2.940561  1.567536  1.385889
C    -2.731314  2.744013  2.355715
C    -1.283681  3.236591  2.581859
N    -0.455503  3.362039  1.384113
C    -0.869004  3.980949  0.218277
N    -1.602894  5.151610  0.426237
N    -0.589866  3.434722  -0.920489
H    -4.014769  1.540283  1.144548
H    -2.410496  1.785474  0.445407
H    -3.164722  2.503259  3.341028
H    -3.316261  3.588822  1.965728
H    -0.733407  2.560952  3.246349
H    -1.333481  4.200599  3.114763
H    0.138686  2.562921  1.187521
H    -1.764613  5.698767  -0.411394
H    -1.307705  5.720519  1.215035
H    -0.801521  4.063276  -1.700102
N    -3.553340  -0.761852  -0.150273
C    -3.970518  -1.804865  -1.068356
H    -3.516854  0.192811  -0.486188
H    -4.933589  -1.548895  -1.527665
H    -4.073237  -2.733164  -0.497169
H    -3.227956  -1.966885  -1.864611
