35
Energy: -21190.5515165 eV PBE+vdW (tier 2 basis)
C    2.157726  -1.616414  1.466266
C    1.248906  -1.279170  2.626661
O    1.533934  -1.627319  3.785977
H    1.835021  -1.189792  0.509223
H    2.199651  -2.710494  1.371985
H    3.171895  -1.268580  1.695722
N    0.109327  -0.611383  2.321973
C    -0.997399  -0.264725  3.232345
C    -0.682331  0.873083  4.239164
O    -1.445045  1.836156  4.320990
H    -0.002710  -0.319449  1.359125
H    -1.759710  0.183186  2.582581
C    -1.639406  -1.468906  3.950765
C    -2.206760  -2.549191  3.014679
C    -1.272658  -3.735707  2.747913
N    -1.010148  -4.497685  3.968287
C    0.154447  -5.246350  4.173967
N    1.316728  -4.649229  3.699780
N    0.221200  -6.393507  4.763387
H    -2.447761  -1.042923  4.561538
H    -0.930529  -1.927001  4.653161
H    -2.495872  -2.107592  2.046841
H    -3.141690  -2.940869  3.445872
H    -0.310319  -3.400964  2.349677
H    -1.720665  -4.378676  1.966893
H    -1.827917  -4.987380  4.320382
H    2.128052  -5.184276  3.994369
H    1.416725  -3.648261  3.884895
H    -0.712629  -6.779932  4.929361
N    0.419656  0.689579  5.006555
C    0.828270  1.639712  6.022127
H    0.958215  -0.168697  4.856497
H    0.783156  1.191752  7.025223
H    0.143849  2.493687  5.984932
H    1.853717  1.991064  5.841589
