35
Energy: -21190.2938748 eV PBE+vdW (tier 2 basis)
C    -1.145397  0.778409  0.482845
C    -0.170698  0.548506  1.619886
O    0.650863  1.391357  1.972316
H    -0.877698  1.716288  -0.009970
H    -2.176350  0.853022  0.857155
H    -1.126765  -0.040545  -0.248966
N    -0.235096  -0.668922  2.260051
C    -1.230393  -1.714542  2.094289
C    -2.673520  -1.332223  2.490819
O    -3.607009  -1.764610  1.797189
H    0.425297  -0.753501  3.028148
H    -1.331207  -1.954097  1.024999
C    -0.745504  -2.992570  2.812886
C    -1.713913  -4.189767  2.734169
C    -2.268665  -4.633902  4.099011
N    -2.818785  -3.549540  4.912938
C    -4.173092  -3.254170  5.014812
N    -4.917494  -3.538904  3.870703
N    -4.601139  -2.779323  6.140196
H    -0.549770  -2.745119  3.867936
H    0.225786  -3.250522  2.367447
H    -1.204069  -5.054702  2.286223
H    -2.546453  -3.951995  2.058876
H    -1.455124  -5.086792  4.684410
H    -3.027108  -5.416001  3.944516
H    -2.384573  -3.419932  5.820378
H    -4.519742  -3.187859  2.994723
H    -5.890606  -3.265723  3.960364
H    -5.578834  -2.486806  6.067385
N    -2.913572  -0.530031  3.557667
C    -2.024195  -0.131160  4.641166
H    -3.908022  -0.398000  3.717157
H    -2.646534  0.138022  5.500788
H    -1.398874  0.729771  4.371048
H    -1.383570  -0.962005  4.960252
