35
Energy: -21190.4711677 eV PBE+vdW (tier 2 basis)
C    0.654848  0.349824  1.259639
C    0.448239  -0.562338  2.448546
O    1.389131  -0.919062  3.176106
H    0.250318  -0.089810  0.337403
H    1.725815  0.529650  1.137904
H    0.141761  1.310938  1.409034
N    -0.816650  -0.979684  2.715687
C    -2.062267  -0.648450  2.057167
C    -2.627628  0.786256  2.227350
O    -3.451908  1.168248  1.394479
H    -0.895948  -1.614982  3.523371
H    -1.935601  -0.717116  0.965735
C    -3.149650  -1.681814  2.431350
C    -3.534832  -1.812698  3.923050
C    -2.825454  -2.920847  4.725090
N    -1.398126  -2.701607  4.947363
C    -0.931926  -1.864356  5.986041
N    0.444751  -1.753934  5.963928
N    -1.646046  -1.230165  6.851882
H    -2.828765  -2.661651  2.043183
H    -4.039560  -1.395780  1.856784
H    -4.609459  -2.041965  3.976058
H    -3.422429  -0.847906  4.439996
H    -2.918018  -3.870880  4.180368
H    -3.355268  -3.064491  5.683551
H    -0.805167  -3.513895  4.801905
H    0.783409  -1.103575  6.665768
H    0.879564  -1.619339  5.040632
H    -2.624518  -1.526947  6.826388
N    -2.237574  1.610236  3.243040
C    -1.365369  1.423304  4.400575
H    -2.705135  2.509172  3.169639
H    -1.516394  2.281855  5.064161
H    -0.301668  1.390329  4.129687
H    -1.608966  0.526207  4.980407
