35
Energy: -21190.2581034 eV PBE+vdW (tier 2 basis)
C    0.060675  0.287864  0.613325
C    0.057732  -0.131302  2.068057
O    1.076037  -0.105995  2.757073
H    -0.604435  -0.311636  -0.019246
H    1.089836  0.225510  0.248833
H    -0.262820  1.336555  0.539666
N    -1.135659  -0.518961  2.639713
C    -2.477865  -0.692201  2.072251
C    -2.516579  -1.817684  1.012425
O    -2.642310  -1.589090  -0.191772
H    -1.016898  -0.772459  3.616131
H    -3.080152  -1.045864  2.920773
C    -3.134745  0.587358  1.535761
C    -3.073816  1.795121  2.476221
C    -3.620061  1.572003  3.899234
N    -4.942147  0.973636  3.951570
C    -5.189767  -0.355059  4.233152
N    -6.435039  -0.786702  3.781789
N    -4.433623  -1.187382  4.878449
H    -4.182808  0.335259  1.314149
H    -2.696803  0.853909  0.565853
H    -3.627618  2.622496  2.004690
H    -2.035515  2.146977  2.578167
H    -3.631477  2.530978  4.438988
H    -2.939172  0.922837  4.464971
H    -5.706770  1.498510  3.542561
H    -6.580143  -1.772643  3.975228
H    -6.680902  -0.527801  2.830680
H    -3.655473  -0.704159  5.334788
N    -2.405117  -3.091557  1.486805
C    -2.227075  -3.534535  2.862246
H    -2.361745  -3.789737  0.750867
H    -2.468255  -4.601914  2.915537
H    -2.911253  -3.009954  3.543948
H    -1.192726  -3.398170  3.213926
