35
Energy: -21190.6706153 eV PBE+vdW (tier 2 basis)
C    -2.308310  -0.989576  3.871680
C    -1.234491  0.061824  3.698496
O    -1.498314  1.273120  3.733169
H    -1.928924  -2.016081  3.807680
H    -3.074545  -0.840289  3.100898
H    -2.791747  -0.844774  4.845888
N    0.025577  -0.398100  3.503663
C    1.155491  0.488979  3.309094
C    2.288794  -0.364416  2.724486
O    2.330416  -1.582001  2.909371
H    0.249177  -1.391469  3.479497
H    0.858737  1.259093  2.579804
C    1.573336  1.170995  4.640575
C    2.339884  2.494141  4.514695
C    1.698630  3.537419  3.588036
N    0.285100  3.706146  3.840216
C    -0.397924  4.841051  3.405765
N    -1.769039  4.636609  3.327837
N    0.082639  5.994418  3.078215
H    2.154633  0.452831  5.237030
H    0.645792  1.357372  5.197631
H    3.371517  2.317795  4.171569
H    2.421464  2.921801  5.524675
H    1.894186  3.280501  2.522162
H    2.207614  4.497351  3.753185
H    -0.271103  2.846157  3.782287
H    -2.164565  3.889124  3.887588
H    -2.302094  5.497878  3.316206
H    1.103297  6.001467  3.105300
N    3.232235  0.329637  2.036993
C    4.417219  -0.290314  1.472018
H    3.083113  1.321994  1.892076
H    4.401488  -1.349465  1.747691
H    5.330726  0.171862  1.870001
H    4.423993  -0.208080  0.376522
