35
Energy: -21190.1580803 eV PBE+vdW (tier 2 basis)
C    0.412520  -0.219884  0.121741
C    0.006818  0.211242  1.519064
O    0.589033  1.110818  2.117717
H    1.377422  -0.740379  0.189942
H    0.565835  0.673527  -0.493605
H    -0.309994  -0.882071  -0.371496
N    -1.046745  -0.485624  2.056117
C    -1.570602  -0.389860  3.426662
C    -1.326273  1.008287  4.052309
O    -0.712591  1.173010  5.103383
H    -1.428771  -1.239614  1.495852
H    -2.666434  -0.456486  3.315599
C    -1.180686  -1.592444  4.318441
C    0.183946  -1.649004  5.023186
C    1.429244  -1.388592  4.162394
N    2.673738  -1.410684  4.916044
C    3.103089  -0.365976  5.738065
N    2.487085  0.854467  5.524526
N    4.072989  -0.443145  6.592637
H    -1.308732  -2.488231  3.686882
H    -1.955627  -1.670140  5.096043
H    0.272607  -2.652551  5.471406
H    0.182057  -0.937221  5.856270
H    1.367895  -0.413699  3.663478
H    1.506103  -2.139874  3.359022
H    2.961017  -2.319493  5.261676
H    2.787499  1.541269  6.206823
H    1.490393  0.888067  5.320746
H    4.519467  -1.363766  6.558986
N    -1.968533  2.023135  3.407189
C    -1.678609  3.408648  3.740463
H    -2.297626  1.832816  2.466919
H    -2.447005  4.053699  3.300621
H    -0.687017  3.712442  3.371483
H    -1.692284  3.525438  4.828901
