35
Energy: -21190.5406952 eV PBE+vdW (tier 2 basis)
C    0.525831  1.265967  0.184269
C    0.246732  0.892217  1.626643
O    1.129925  0.395786  2.338674
H    0.800543  0.355524  -0.363491
H    1.391357  1.938800  0.155053
H    -0.319418  1.743881  -0.325508
N    -1.017382  1.144758  2.064611
C    -1.607210  0.786390  3.366208
C    -1.054316  1.581754  4.576266
O    -1.832643  2.160638  5.339876
H    -1.642679  1.592901  1.406917
H    -2.647565  1.125736  3.301619
C    -1.590971  -0.740184  3.608010
C    -2.195319  -1.179009  4.946143
C    -3.681518  -0.827669  5.110193
N    -4.277151  -1.335670  6.337825
C    -4.629280  -2.665841  6.455885
N    -5.038658  -2.993308  7.760895
N    -4.543391  -3.467863  5.448327
H    -0.555378  -1.098136  3.542465
H    -2.141547  -1.212436  2.778702
H    -1.623549  -0.736760  5.777891
H    -2.091880  -2.269543  5.028675
H    -4.254894  -1.254259  4.275658
H    -3.824320  0.261500  5.110684
H    -3.963224  -0.892310  7.194700
H    -5.467291  -3.910114  7.830239
H    -5.605792  -2.282421  8.217092
H    -4.952516  -4.378799  5.667929
N    0.284375  1.540501  4.753792
C    0.924624  2.217524  5.865166
H    0.841548  1.052657  4.042289
H    1.998663  2.007518  5.831600
H    0.519795  1.867196  6.824701
H    0.770322  3.305314  5.817362
