35
Energy: -21190.6332139 eV PBE+vdW (tier 2 basis)
C    -1.709264  -2.974940  0.245405
C    -2.095931  -2.055738  1.379164
O    -3.044960  -1.263524  1.298520
H    -1.922567  -2.486696  -0.710315
H    -2.329003  -3.880161  0.324446
H    -0.654569  -3.275884  0.280307
N    -1.363624  -2.179341  2.521956
C    -1.835253  -1.643654  3.799754
C    -1.359372  -0.174884  4.011242
O    -0.550553  0.139761  4.883614
H    -0.659688  -2.907790  2.561443
H    -2.933964  -1.602653  3.715182
C    -1.412212  -2.543055  4.961961
C    -2.437648  -2.581954  6.100609
C    -3.726508  -3.360852  5.784065
N    -3.514443  -4.764335  5.464249
C    -3.384348  -5.257739  4.172740
N    -2.900268  -6.574170  4.159602
N    -3.628672  -4.678097  3.047618
H    -0.453716  -2.171989  5.349863
H    -1.253928  -3.565799  4.588578
H    -2.707434  -1.556786  6.400516
H    -1.966070  -3.034558  6.987658
H    -4.271975  -2.904564  4.946011
H    -4.406297  -3.299021  6.647392
H    -2.987789  -5.282935  6.160818
H    -3.308267  -7.181193  4.866323
H    -2.993004  -6.972676  3.229356
H    -3.890492  -3.697521  3.163917
N    -1.944740  0.690323  3.146250
C    -1.600535  2.096399  3.090745
H    -2.541726  0.275441  2.422582
H    -1.015990  2.334678  2.189261
H    -0.997386  2.336207  3.972860
H    -2.506802  2.716699  3.093307
