35
Energy: -21190.4172511 eV PBE+vdW (tier 2 basis)
C    -1.701989  -2.772862  0.906996
C    -0.521971  -1.960736  1.398784
O    0.609540  -2.425904  1.507490
H    -1.328769  -3.751538  0.594684
H    -2.208972  -2.287619  0.061426
H    -2.454737  -2.912039  1.698222
N    -0.760212  -0.635492  1.708287
C    -2.039224  0.055449  1.773435
C    -2.413342  0.863184  0.506387
O    -3.456434  1.513040  0.473054
H    0.058365  -0.160555  2.082352
H    -2.834260  -0.698886  1.854109
C    -2.120673  0.984115  2.994448
C    -1.981856  0.304160  4.363647
C    -2.861845  -0.933606  4.589356
N    -4.266923  -0.721824  4.229771
C    -4.930308  -1.486417  3.273830
N    -4.555560  -2.835270  3.275281
N    -5.807908  -1.084771  2.420790
H    -3.079313  1.512192  2.909492
H    -1.347628  1.765238  2.904079
H    -2.200512  1.057170  5.137610
H    -0.940518  -0.006512  4.540200
H    -2.771946  -1.236790  5.645817
H    -2.487144  -1.774753  3.991609
H    -4.573604  0.245028  4.236643
H    -4.467619  -3.258570  4.195687
H    -5.163801  -3.368232  2.659848
H    -5.854013  -0.062847  2.377542
N    -1.530457  0.775868  -0.521974
C    -1.739831  1.434891  -1.795485
H    -0.703827  0.207243  -0.371654
H    -0.935509  2.152479  -2.009119
H    -2.692127  1.973068  -1.737179
H    -1.790733  0.705600  -2.615812
