35
Energy: -21190.3394099 eV PBE+vdW (tier 2 basis)
C    -0.633674  -0.325683  -1.086682
C    -0.396705  0.688688  0.012692
O    0.609102  1.401042  0.032130
H    0.340763  -0.610880  -1.494062
H    -1.207799  0.147280  -1.897023
H    -1.184777  -1.214572  -0.759341
N    -1.340606  0.828189  1.001533
C    -2.670169  0.227643  1.170011
C    -2.568186  -1.279335  1.507221
O    -2.866045  -2.161301  0.700905
H    -1.087147  1.538890  1.687943
H    -3.070159  0.719909  2.065766
C    -3.666067  0.457123  0.021326
C    -3.735639  1.869772  -0.572166
C    -4.172545  3.019271  0.352901
N    -3.127310  3.503853  1.246958
C    -3.023769  3.156474  2.580726
N    -1.721916  3.321118  3.081077
N    -3.917388  2.663559  3.371068
H    -4.659591  0.169389  0.400257
H    -3.451695  -0.258186  -0.783228
H    -4.451130  1.837159  -1.408421
H    -2.768238  2.139126  -1.027091
H    -5.037223  2.718764  0.961463
H    -4.515348  3.863631  -0.264281
H    -2.235577  3.649015  0.781668
H    -1.721573  3.303033  4.097179
H    -1.209825  4.121151  2.717669
H    -4.807386  2.507831  2.893738
N    -2.123149  -1.583447  2.760824
C    -1.671304  -0.678228  3.806895
H    -2.002182  -2.580542  2.909789
H    -0.657187  -0.293937  3.618587
H    -1.664949  -1.223170  4.757397
H    -2.353455  0.174664  3.921620
