35
Energy: -21190.3270873 eV PBE+vdW (tier 2 basis)
C    0.041052  -0.246613  2.557832
C    -0.645320  0.572672  3.637276
O    -0.202372  0.630252  4.788586
H    0.995757  -0.595734  2.959724
H    0.221680  0.343996  1.649665
H    -0.557186  -1.124118  2.273683
N    -1.770294  1.261955  3.292800
C    -2.670627  1.033094  2.176744
C    -3.040162  2.401015  1.570440
O    -3.257075  3.372685  2.287593
H    -2.147581  1.857561  4.028180
H    -2.147292  0.419005  1.430260
C    -3.973589  0.325280  2.619293
C    -3.881254  -1.161672  2.985167
C    -3.086975  -1.565471  4.258057
N    -3.156066  -0.670577  5.389814
C    -4.275657  -0.487191  6.170638
N    -4.090057  0.469174  7.174098
N    -5.432900  -1.049813  6.047846
H    -4.701561  0.421990  1.798602
H    -4.395766  0.893205  3.461956
H    -3.462074  -1.734568  2.140916
H    -4.917554  -1.514599  3.091210
H    -2.022066  -1.674662  4.021880
H    -3.428228  -2.570415  4.560055
H    -2.342556  -0.086674  5.560394
H    -4.865971  0.458040  7.829084
H    -3.188228  0.442493  7.641847
H    -5.474867  -1.647295  5.220348
N    -3.145365  2.420992  0.210486
C    -3.571725  3.596487  -0.527402
H    -2.935654  1.572637  -0.301234
H    -3.736543  4.397606  0.200652
H    -4.508287  3.408906  -1.070757
H    -2.801510  3.916730  -1.242096
