35
Energy: -21190.4916298 eV PBE+vdW (tier 2 basis)
C    0.318383  -0.382311  0.750977
C    0.015284  0.152708  2.135931
O    0.919841  0.361642  2.955281
H    0.264318  -1.480501  0.757741
H    1.341751  -0.094112  0.492937
H    -0.370436  -0.013356  -0.019478
N    -1.283249  0.409370  2.453908
C    -2.480544  -0.015852  1.754932
C    -3.646740  0.744959  2.409968
O    -3.545730  1.193284  3.552990
H    -1.457328  0.781140  3.388847
H    -2.409175  0.274416  0.695181
C    -2.725244  -1.549954  1.820166
C    -2.847401  -2.134650  3.243125
C    -1.766318  -3.174062  3.562997
N    -0.434699  -2.602306  3.549078
C    0.628126  -3.198339  2.899817
N    1.840067  -2.558832  3.171485
N    0.439505  -4.238668  2.151869
H    -1.892794  -2.037931  1.295027
H    -3.623690  -1.783151  1.231783
H    -3.829838  -2.611736  3.371410
H    -2.813536  -1.330506  3.994177
H    -1.758903  -3.979150  2.816569
H    -1.982195  -3.642175  4.539165
H    -0.194662  -1.948521  4.285140
H    2.597219  -2.853902  2.565317
H    1.784397  -1.538429  3.247450
H    1.309178  -4.513658  1.690804
N    -4.802802  0.876321  1.700316
C    -5.117483  0.418543  0.358403
H    -5.542475  1.324250  2.233143
H    -5.875602  1.081094  -0.075230
H    -5.507485  -0.610908  0.341816
H    -4.233976  0.462481  -0.288854
