35
Energy: -21190.3763804 eV PBE+vdW (tier 2 basis)
C    0.806288  0.999302  0.429319
C    -0.111875  -0.017129  1.090340
O    0.193806  -1.204455  1.172866
H    1.021265  1.852575  1.088219
H    0.365726  1.396373  -0.495667
H    1.743360  0.493815  0.182278
N    -1.299821  0.442224  1.595156
C    -1.824457  1.791133  1.607873
C    -2.790131  1.877695  2.804938
O    -3.297405  0.850574  3.269181
H    -1.864096  -0.231844  2.114530
H    -1.001132  2.504404  1.765243
C    -2.529790  2.192721  0.277705
C    -3.612926  1.240797  -0.249765
C    -4.975061  1.263563  0.462470
N    -5.571372  2.588030  0.492784
C    -6.026244  3.236953  1.622582
N    -6.337270  4.587491  1.379192
N    -6.147671  2.787223  2.825327
H    -1.743317  2.265543  -0.486940
H    -2.938063  3.208661  0.381907
H    -3.237580  0.206686  -0.230541
H    -3.772665  1.476171  -1.315057
H    -4.866297  0.908178  1.493421
H    -5.645959  0.550746  -0.045284
H    -5.433708  3.164352  -0.329673
H    -6.852137  4.967233  2.169459
H    -6.834574  4.756142  0.507724
H    -5.826794  1.820240  2.912277
N    -3.095269  3.102495  3.301809
C    -2.710216  4.412714  2.807419
H    -3.912723  3.080882  3.911011
H    -2.674858  5.113764  3.650206
H    -3.423667  4.803313  2.064915
H    -1.710210  4.384043  2.361357
