35
Energy: -21190.6054141 eV PBE+vdW (tier 2 basis)
C    0.076079  -0.166945  -0.006435
C    0.068024  0.003861  1.498610
O    1.124476  0.045273  2.143279
H    0.710540  0.611608  -0.446658
H    -0.918452  -0.125016  -0.466420
H    0.535112  -1.135288  -0.243564
N    -1.162540  0.110944  2.073064
C    -1.480861  0.158510  3.509392
C    -1.046562  1.449153  4.244159
O    -1.861417  2.050344  4.958391
H    -1.957298  0.110830  1.446174
H    -2.575241  0.206586  3.549159
C    -1.006616  -1.113948  4.251344
C    -1.298062  -1.109840  5.756573
C    -2.795936  -1.089860  6.117099
N    -3.083139  -1.019893  7.534605
C    -2.927003  0.116505  8.320170
N    -3.051815  1.330526  7.657660
N    -2.780820  -0.058672  9.594813
H    0.072131  -1.234482  4.087972
H    -1.497384  -1.975958  3.770920
H    -0.800859  -0.251775  6.234370
H    -0.840658  -2.006323  6.201985
H    -3.277684  -1.999051  5.723471
H    -3.303250  -0.249287  5.622457
H    -2.891924  -1.852631  8.082819
H    -2.761783  2.126972  8.211375
H    -2.759643  1.417345  6.683133
H    -2.757799  0.836681  10.088430
N    0.239033  1.820937  4.104362
C    0.777402  2.981841  4.789723
H    0.833895  1.241206  3.498147
H    0.164821  3.870944  4.590700
H    1.796641  3.158482  4.431942
H    0.802162  2.828644  5.878300
