35
Energy: -21190.4907123 eV PBE+vdW (tier 2 basis)
C    -0.623566  -2.035551  -1.014672
C    -0.937447  -2.210060  0.457164
O    -1.204768  -3.319563  0.933627
H    0.309982  -2.568684  -1.237054
H    -0.512635  -0.988436  -1.321331
H    -1.419212  -2.503716  -1.605930
N    -0.890034  -1.073091  1.204639
C    -1.088238  -1.060540  2.648260
C    -2.467074  -0.437148  2.949535
O    -2.654686  0.773535  2.829618
H    -0.723072  -0.185325  0.743778
H    -1.062058  -2.111191  2.941546
C    0.026548  -0.282724  3.362306
C    0.068297  -0.508562  4.884402
C    0.838196  -1.755676  5.356234
N    0.280965  -3.039862  4.955744
C    0.648148  -3.652256  3.769710
N    -0.081941  -4.808724  3.462010
N    1.615507  -3.179043  3.058272
H    -0.125477  0.786559  3.153795
H    0.982597  -0.595949  2.922450
H    -0.956162  -0.520953  5.296658
H    0.556631  0.359125  5.354332
H    0.905396  -1.739000  6.454976
H    1.860979  -1.732989  4.958620
H    -0.642688  -3.259728  5.309307
H    -0.341998  -4.832845  2.476890
H    -0.891266  -4.985702  4.051874
H    1.810961  -3.806693  2.275708
N    -3.471142  -1.280346  3.327531
C    -3.438811  -2.726830  3.483925
H    -4.347598  -0.800341  3.510739
H    -4.455204  -3.116191  3.353137
H    -3.089721  -3.030995  4.485428
H    -2.801068  -3.191288  2.721790
