35
Energy: -21190.2072992 eV PBE+vdW (tier 2 basis)
C    -0.755103  0.642659  0.408447
C    -0.915989  1.026098  1.869194
O    -0.109980  1.755267  2.441326
H    0.093177  1.206659  0.012177
H    -1.650779  0.881044  -0.182182
H    -0.536465  -0.429259  0.300838
N    -1.988848  0.502719  2.553902
C    -3.072825  -0.299536  2.024669
C    -4.334905  0.564646  1.824015
O    -4.634855  1.437038  2.634116
H    -2.146191  0.939564  3.460018
H    -2.736969  -0.710060  1.066502
C    -3.433195  -1.464043  2.980010
C    -2.245642  -2.341682  3.383824
C    -1.599468  -3.103730  2.218996
N    -0.382462  -3.814610  2.590740
C    0.904031  -3.367673  2.314421
N    0.999024  -1.990737  2.102515
N    1.966246  -4.093875  2.220170
H    -4.218250  -2.073586  2.502957
H    -3.892792  -1.030703  3.881183
H    -2.574587  -3.063759  4.146056
H    -1.481876  -1.717379  3.870501
H    -1.352525  -2.413414  1.399722
H    -2.318434  -3.830886  1.809419
H    -0.455735  -4.816664  2.707728
H    1.972461  -1.714755  2.010516
H    0.500990  -1.399692  2.763879
H    1.741122  -5.092457  2.242261
N    -5.114460  0.284307  0.737958
C    -4.868649  -0.692846  -0.310875
H    -5.948172  0.860237  0.674087
H    -5.706729  -0.661166  -1.014693
H    -4.805780  -1.718901  0.080479
H    -3.951332  -0.475751  -0.878553
