35
Energy: -21190.3888586 eV PBE+vdW (tier 2 basis)
C    -0.131483  0.139984  0.586230
C    0.005377  -0.256047  2.047361
O    1.090892  -0.531511  2.549938
H    0.867365  0.126693  0.143014
H    -0.558327  1.146358  0.470756
H    -0.776940  -0.558777  0.035764
N    -1.145592  -0.284369  2.799028
C    -2.521959  -0.108921  2.335805
C    -3.279861  0.603552  3.475267
O    -3.947382  -0.036067  4.298405
H    -1.008648  -0.621686  3.749268
H    -2.494116  0.555806  1.463320
C    -3.191330  -1.437670  1.941298
C    -4.377001  -1.344754  0.968957
C    -5.618564  -0.590457  1.454258
N    -5.394019  0.857512  1.457096
C    -6.094192  1.772135  2.248522
N    -6.536405  1.272731  3.462729
N    -6.314482  3.010141  1.943244
H    -3.498604  -1.951864  2.863656
H    -2.415098  -2.060272  1.473435
H    -4.687039  -2.371099  0.720306
H    -4.039684  -0.901906  0.014424
H    -5.875489  -0.905980  2.471133
H    -6.480330  -0.852467  0.814054
H    -5.205649  1.236083  0.533242
H    -6.921834  2.014167  4.038900
H    -5.881161  0.667504  3.962590
H    -6.064967  3.203983  0.968883
N    -3.125244  1.947076  3.578278
C    -2.516911  2.837435  2.605696
H    -3.680360  2.366622  4.317646
H    -1.469585  2.566690  2.418557
H    -2.532612  3.853150  3.012595
H    -3.073587  2.849493  1.655551
