35
Energy: -21190.2095206 eV PBE+vdW (tier 2 basis)
C    0.171855  -1.048883  -0.472976
C    0.845297  -0.157991  0.553997
O    1.487525  0.840403  0.241128
H    -0.490347  -0.433497  -1.093670
H    -0.407862  -1.871729  -0.036299
H    0.943379  -1.467707  -1.131272
N    0.684397  -0.540821  1.862164
C    1.359152  0.164847  2.951016
C    1.683755  -0.840250  4.072043
O    2.818596  -1.266504  4.254000
H    0.206283  -1.410061  2.066592
H    2.332042  0.494216  2.561587
C    0.577635  1.408654  3.408708
C    1.333232  2.227949  4.457050
C    0.617345  3.510334  4.878836
N    0.475833  4.424212  3.744010
C    -0.141854  5.669941  3.846601
N    -1.181333  5.721674  4.775441
N    0.154684  6.733238  3.180813
H    -0.417398  1.122447  3.793879
H    0.386730  2.019167  2.516184
H    2.334862  2.480413  4.069028
H    1.511519  1.624897  5.360927
H    1.164504  3.981560  5.715405
H    -0.381618  3.254818  5.263750
H    1.300399  4.460761  3.150785
H    -1.700110  6.589593  4.678207
H    -1.787136  4.906777  4.803231
H    1.011651  6.607558  2.635233
N    0.603793  -1.245653  4.812096
C    0.724421  -2.173231  5.922524
H    -0.272355  -0.751335  4.687877
H    0.673391  -1.657695  6.893127
H    1.700512  -2.662510  5.841258
H    -0.067781  -2.931591  5.880719
