35
Energy: -21190.4010456 eV PBE+vdW (tier 2 basis)
C    -0.123857  1.761870  -0.042917
C    -0.280077  1.998467  1.442545
O    0.309606  2.896403  2.046090
H    0.830511  2.179634  -0.376126
H    -0.949548  2.285120  -0.549279
H    -0.173346  0.697173  -0.307956
N    -1.172026  1.162190  2.061824
C    -1.564933  1.312910  3.455320
C    -1.047440  0.091897  4.240680
O    -1.640175  -0.988132  4.190912
H    -1.578825  0.396748  1.535892
H    -1.072092  2.235356  3.785397
C    -3.082000  1.462096  3.634192
C    -3.699544  2.617723  2.826614
C    -4.286929  2.182367  1.476597
N    -4.908188  3.284688  0.753946
C    -4.218636  3.993335  -0.207413
N    -5.020769  4.966270  -0.826760
N    -2.988536  3.717467  -0.483968
H    -3.264850  1.616339  4.707918
H    -3.564877  0.502654  3.390655
H    -2.951409  3.403775  2.643937
H    -4.505512  3.084457  3.411909
H    -5.051713  1.408393  1.638270
H    -3.503429  1.752987  0.837984
H    -5.912988  3.254061  0.638260
H    -4.500432  5.600535  -1.423278
H    -5.638607  5.471139  -0.195890
H    -2.599743  4.399234  -1.138954
N    0.105141  0.242876  4.951125
C    0.936571  1.429939  5.107381
H    0.387607  -0.604058  5.435794
H    1.961816  1.110452  5.328210
H    0.594056  2.072188  5.934301
H    0.962188  2.021468  4.184158
