35
Energy: -21189.9054131 eV PBE+vdW (tier 2 basis)
C    -0.116066  0.218565  -0.113001
C    -0.230870  -0.635083  1.133365
O    0.699737  -1.343248  1.512797
H    0.900842  0.105337  -0.497448
H    -0.309491  1.281456  0.080543
H    -0.825186  -0.118926  -0.880160
N    -1.405470  -0.620647  1.854057
C    -2.702313  0.031834  1.625423
C    -3.452777  -0.675504  0.455535
O    -3.910297  -1.794087  0.693693
H    -1.396069  -1.330320  2.580341
H    -3.310752  -0.306572  2.475906
C    -2.635436  1.561349  1.733269
C    -4.008747  2.230929  1.834411
C    -3.930385  3.765604  1.869716
N    -3.361586  4.366675  0.659893
C    -1.994163  4.464664  0.430355
N    -1.260733  4.905763  1.528852
N    -1.530000  4.128968  -0.729515
H    -2.066373  2.000056  0.908516
H    -2.056182  1.783017  2.642596
H    -4.528284  1.887991  2.744723
H    -4.654018  1.928498  0.993753
H    -3.329630  4.086712  2.730749
H    -4.937222  4.183318  2.014661
H    -3.820231  4.074615  -0.200120
H    -0.287194  5.108835  1.335082
H    -1.706000  5.609154  2.110842
H    -0.550705  4.406612  -0.836988
N    -3.571101  -0.160394  -0.808988
C    -3.327268  1.148596  -1.397905
H    -4.094509  -0.811295  -1.390321
H    -3.123807  1.014568  -2.467119
H    -2.462742  1.661108  -0.973559
H    -4.200716  1.814487  -1.304957
