35
Energy: -21190.169659 eV PBE+vdW (tier 2 basis)
C    -0.173906  0.865136  -0.159938
C    -0.666961  1.113401  1.256363
O    -0.874727  2.242246  1.689912
H    -0.117516  -0.195505  -0.435632
H    0.822685  1.312112  -0.267152
H    -0.840096  1.383260  -0.860157
N    -0.879739  -0.013165  2.005744
C    -1.242883  0.006521  3.423555
C    -2.426056  0.958203  3.742575
O    -2.374495  1.740357  4.684548
H    -0.633606  -0.907219  1.599773
H    -1.602250  -1.013771  3.645418
C    -0.053917  0.307622  4.344875
C    1.119718  -0.652127  4.151973
C    2.220543  -0.416080  5.194096
N    3.401142  -1.254515  5.038896
C    3.386570  -2.578137  5.437266
N    4.575779  -3.245949  5.092394
N    2.357005  -3.083844  6.027092
H    -0.419607  0.258931  5.379914
H    0.256580  1.349635  4.182750
H    1.549608  -0.530346  3.143777
H    0.786289  -1.698107  4.240520
H    1.820793  -0.608183  6.198229
H    2.551673  0.632995  5.163522
H    3.984215  -1.058217  4.232121
H    4.654571  -4.167574  5.509188
H    5.422296  -2.700016  5.236302
H    2.555614  -4.025868  6.371630
N    -3.572692  0.824907  3.005088
C    -3.869086  -0.042075  1.881366
H    -4.271099  1.515035  3.261972
H    -3.450180  -1.045071  2.030750
H    -3.493808  0.351066  0.923327
H    -4.957745  -0.152498  1.805378
