35
Energy: -21190.3669453 eV PBE+vdW (tier 2 basis)
C    0.559910  -0.856651  2.288629
C    -0.121013  0.186968  3.147025
O    0.470993  0.764863  4.065469
H    0.235382  -1.862342  2.593548
H    1.638698  -0.775082  2.445894
H    0.338843  -0.740337  1.219660
N    -1.427574  0.484783  2.872009
C    -2.364167  -0.297085  2.062832
C    -3.475062  0.652176  1.561561
O    -4.642166  0.545973  1.929880
H    -1.834594  1.119788  3.554777
H    -1.814196  -0.645472  1.174875
C    -2.932149  -1.537726  2.773962
C    -3.519870  -1.317155  4.183664
C    -2.756417  -2.074411  5.276149
N    -1.383594  -1.621571  5.422887
C    -0.300408  -2.472987  5.354787
N    0.894684  -1.840930  5.717839
N    -0.453914  -3.708871  5.001556
H    -2.121662  -2.278215  2.838065
H    -3.693880  -1.968772  2.110815
H    -4.569411  -1.640309  4.202178
H    -3.553872  -0.245666  4.434431
H    -2.700149  -3.144767  5.038706
H    -3.290392  -1.981508  6.236812
H    -1.226545  -0.747753  5.910442
H    1.720643  -2.384094  5.492244
H    0.980885  -0.871958  5.401335
H    0.448839  -4.184650  4.946601
N    -3.091748  1.627271  0.682113
C    -1.772122  1.890591  0.131417
H    -3.852797  2.243218  0.414184
H    -1.882091  2.567200  -0.722908
H    -1.300533  0.969767  -0.238815
H    -1.094699  2.354134  0.862552
