35
Energy: -21190.6039796 eV PBE+vdW (tier 2 basis)
C    0.109195  0.730368  0.163919
C    0.018527  0.749521  1.674575
O    0.964760  1.125723  2.379216
H    0.966217  0.113592  -0.132962
H    0.304442  1.751436  -0.187417
H    -0.794790  0.351822  -0.328308
N    -1.161551  0.332083  2.208031
C    -1.466068  0.374765  3.640496
C    -0.881428  -0.857850  4.392014
O    -1.586569  -1.697800  4.960884
H    -1.877733  -0.027968  1.588305
H    -0.931129  1.253590  4.033244
C    -2.964773  0.555212  3.882077
C    -3.877010  -0.468964  3.197457
C    -5.306106  -0.473646  3.764813
N    -5.395807  -0.570104  5.227389
C    -5.367075  -1.796159  5.911802
N    -4.408189  -2.680786  5.449091
N    -6.135947  -2.126054  6.896687
H    -3.245594  1.574798  3.574553
H    -3.135512  0.494622  4.965576
H    -3.451704  -1.476159  3.288461
H    -3.972645  -0.261655  2.117498
H    -5.874208  -1.284795  3.278425
H    -5.798210  0.472338  3.494694
H    -6.101102  0.043586  5.618904
H    -4.377688  -3.512780  6.030254
H    -3.479566  -2.291149  5.265115
H    -6.890516  -1.444686  7.020275
N    0.470693  -0.891432  4.377060
C    1.240972  -1.962039  4.978835
H    0.943441  -0.151677  3.846071
H    1.725138  -2.587086  4.214053
H    0.561592  -2.587189  5.567156
H    2.016942  -1.552479  5.638757
