35
Energy: -21190.0770115 eV PBE+vdW (tier 2 basis)
C    1.165439  -0.210189  0.396424
C    0.780596  0.132368  1.825929
O    1.577910  0.627108  2.616784
H    0.333671  -0.577753  -0.217401
H    1.953244  -0.973824  0.419977
H    1.592812  0.682296  -0.076258
N    -0.521380  -0.137683  2.157348
C    -1.106210  0.024425  3.490606
C    -0.585318  1.262752  4.267019
O    -0.184559  1.162722  5.422332
H    -1.103583  -0.579469  1.455876
H    -2.177105  0.230099  3.316486
C    -1.030328  -1.257103  4.336939
C    0.374468  -1.799246  4.611094
C    0.349755  -3.124732  5.373808
N    -0.198312  -4.194891  4.549314
C    -0.716210  -5.396669  5.005659
N    -0.896178  -5.474116  6.386176
N    -1.107498  -6.386433  4.271469
H    -1.629906  -2.029659  3.830140
H    -1.528779  -1.047697  5.294479
H    0.945402  -1.062215  5.188317
H    0.925979  -1.942695  3.667484
H    -0.287685  -3.019867  6.263809
H    1.373173  -3.357920  5.725659
H    0.154582  -4.235583  3.599884
H    -1.186175  -6.410206  6.652255
H    -0.140787  -5.116675  6.962547
H    -1.048640  -6.154891  3.275901
N    -0.732997  2.490511  3.681085
C    -1.142188  2.830991  2.332460
H    -0.327520  3.230058  4.246278
H    -1.480293  3.874096  2.323463
H    -1.986462  2.210915  2.007438
H    -0.328049  2.724243  1.597899
