35
Energy: -21190.4362584 eV PBE+vdW (tier 2 basis)
C    -0.562788  -1.529822  0.335619
C    -0.484189  -0.631434  1.554654
O    0.440799  -0.746997  2.369077
H    0.390366  -1.477207  -0.203748
H    -1.380907  -1.284235  -0.352056
H    -0.687573  -2.565498  0.677078
N    -1.476403  0.294520  1.662074
C    -1.821531  1.199448  2.776262
C    -0.764717  2.217223  3.257063
O    -1.166864  3.221029  3.861355
H    -2.154300  0.291697  0.909862
H    -2.608127  1.840210  2.356462
C    -2.435968  0.493673  4.009006
C    -1.444492  -0.100070  5.013329
C    -2.058681  -0.302686  6.404278
N    -2.746764  0.873724  6.963426
C    -2.058901  1.905947  7.613163
N    -1.004761  2.454464  6.885288
N    -2.447215  2.238047  8.799459
H    -3.142898  -0.271303  3.652809
H    -3.034497  1.252213  4.533487
H    -0.569546  0.555127  5.115632
H    -1.048919  -1.063700  4.663807
H    -1.271601  -0.668096  7.087437
H    -2.823830  -1.090993  6.349457
H    -3.517225  0.606971  7.570705
H    -0.580913  3.254483  7.343385
H    -1.182326  2.645883  5.895906
H    -1.991625  3.102565  9.107246
N    0.536253  1.942574  3.040117
C    1.576299  2.795091  3.589410
H    0.761071  0.971346  2.781278
H    1.337426  3.846403  3.393458
H    2.529647  2.544103  3.112611
H    1.676231  2.667370  4.678947
