35
Energy: -21190.3663953 eV PBE+vdW (tier 2 basis)
C    -0.311980  -1.073415  -0.073252
C    -0.369573  -0.003596  0.996896
O    0.298227  1.027070  0.950571
H    0.531214  -0.848921  -0.731346
H    -1.235742  -1.070735  -0.670976
H    -0.205514  -2.084253  0.344031
N    -1.228430  -0.223335  2.051325
C    -2.177009  -1.312100  2.206445
C    -3.383897  -1.279632  1.241979
O    -3.814242  -2.343877  0.771880
H    -1.227959  0.526586  2.737288
H    -1.668132  -2.248161  1.947302
C    -2.630036  -1.386313  3.681988
C    -3.668417  -2.460570  4.042433
C    -3.174194  -3.914233  4.010163
N    -2.828613  -4.370112  2.673764
C    -1.563138  -4.836380  2.356009
N    -1.261785  -4.690302  0.995772
N    -0.657036  -5.325001  3.134211
H    -3.037947  -0.402459  3.968384
H    -1.721058  -1.533986  4.285857
H    -4.558843  -2.361925  3.401403
H    -4.016794  -2.256834  5.066343
H    -3.951729  -4.559720  4.452293
H    -2.286234  -4.009202  4.654970
H    -3.293073  -3.849756  1.923163
H    -0.511925  -5.311480  0.709279
H    -2.055201  -4.699462  0.361884
H    -0.970592  -5.358088  4.105827
N    -3.981699  -0.104116  0.914055
C    -3.714659  1.257972  1.360078
H    -4.747043  -0.236066  0.259333
H    -3.634907  1.320168  2.452541
H    -4.565516  1.880007  1.061304
H    -2.803757  1.677785  0.913552
