35
Energy: -21190.100933 eV PBE+vdW (tier 2 basis)
C    0.488003  0.324311  -0.605321
C    0.120133  0.249547  0.868094
O    0.675442  -0.546868  1.624686
H    0.240857  -0.636400  -1.074953
H    1.573239  0.457567  -0.688529
H    -0.015979  1.126983  -1.157812
N    -0.858670  1.125946  1.253998
C    -1.527224  1.295457  2.552081
C    -1.110840  2.576418  3.320399
O    -1.995875  3.348966  3.691431
H    -1.212767  1.734112  0.525231
H    -2.575038  1.522332  2.307925
C    -1.551776  0.067372  3.475917
C    -2.298362  -1.131829  2.891176
C    -2.388782  -2.305494  3.873359
N    -3.147000  -1.989127  5.081338
C    -2.696380  -2.207790  6.373155
N    -1.316999  -2.039560  6.542280
N    -3.550145  -2.555776  7.276735
H    -2.067906  0.394092  4.391965
H    -0.531654  -0.232952  3.748058
H    -1.791523  -1.489191  1.983279
H    -3.315439  -0.825119  2.595136
H    -1.379851  -2.622753  4.169014
H    -2.845933  -3.170137  3.364154
H    -4.146434  -2.162412  5.034097
H    -1.024867  -2.043446  7.512801
H    -0.894661  -1.279275  6.016323
H    -3.133514  -2.539551  8.210948
N    0.198782  2.824139  3.607365
C    1.404067  2.091841  3.257810
H    0.314613  3.708290  4.094689
H    1.864308  2.471112  2.331295
H    1.201992  1.025266  3.117894
H    2.132855  2.195481  4.071359
