35
Energy: -21190.0214241 eV PBE+vdW (tier 2 basis)
C    0.382015  0.135533  1.105622
C    -0.608142  -0.955120  1.447532
O    -0.250567  -2.114900  1.639958
H    0.440676  0.881926  1.909704
H    0.100953  0.636757  0.172237
H    1.362944  -0.333150  0.991820
N    -1.945703  -0.638054  1.602133
C    -2.742899  0.537241  1.274295
C    -2.871991  0.754912  -0.255337
O    -2.008722  0.376413  -1.042042
H    -2.482272  -1.484770  1.766504
H    -3.743155  0.269773  1.641277
C    -2.346651  1.848145  2.027353
C    -1.672865  2.957291  1.214959
C    -1.509731  4.268212  2.006682
N    -2.733432  4.837968  2.554336
C    -3.747152  5.343984  1.755849
N    -4.925944  5.588902  2.472316
N    -3.727923  5.578997  0.487517
H    -1.715270  1.555879  2.879272
H    -3.268540  2.260892  2.462240
H    -2.257680  3.157649  0.306558
H    -0.678295  2.648307  0.868278
H    -1.029871  5.023640  1.366126
H    -0.828376  4.112691  2.855703
H    -3.043483  4.445637  3.436374
H    -5.580813  6.117862  1.902713
H    -4.788233  6.022029  3.382064
H    -2.855516  5.267997  0.056221
N    -4.003180  1.386112  -0.694593
C    -5.071719  2.015281  0.068534
H    -3.987951  1.554320  -1.696936
H    -5.984256  2.017209  -0.539039
H    -4.841296  3.055810  0.345019
H    -5.290892  1.445528  0.979279
