35
Energy: -21190.5145166 eV PBE+vdW (tier 2 basis)
C    -0.258213  1.746591  0.801416
C    -0.725319  1.459730  2.216458
O    -1.204662  2.333774  2.937521
H    -1.088427  2.189779  0.238068
H    0.104299  0.859160  0.268577
H    0.544434  2.493739  0.841833
N    -0.592115  0.158311  2.619375
C    -0.815608  -0.256924  3.990104
C    0.347448  -1.183272  4.382961
O    0.970083  -1.823900  3.534033
H    -0.022344  -0.489536  2.078013
H    -0.815610  0.654687  4.609019
C    -2.160362  -0.991937  4.184823
C    -3.375922  -0.083689  4.002453
C    -4.713681  -0.804499  4.226869
N    -4.849666  -1.513990  5.505461
C    -4.665326  -0.899827  6.743655
N    -5.100576  0.419372  6.800347
N    -4.144321  -1.435936  7.797473
H    -2.171113  -1.417544  5.200222
H    -2.194981  -1.841823  3.482862
H    -3.383249  0.344805  2.989221
H    -3.300981  0.768542  4.692729
H    -4.875840  -1.560094  3.444212
H    -5.536673  -0.082240  4.117466
H    -4.470622  -2.454544  5.494919
H    -5.118974  0.763248  7.754962
H    -5.943861  0.635222  6.278404
H    -3.752065  -2.357876  7.586348
N    0.592603  -1.260493  5.717707
C    1.590316  -2.144738  6.291137
H    0.042918  -0.677828  6.338889
H    2.065564  -2.686087  5.466785
H    1.130904  -2.868039  6.979047
H    2.357944  -1.576143  6.833632
