35
Energy: -21190.5039092 eV PBE+vdW (tier 2 basis)
C    -0.582679  0.189001  -0.170850
C    -0.338362  0.206141  1.323382
O    0.778470  0.492778  1.784395
H    0.074378  -0.565095  -0.622634
H    -0.296142  1.162622  -0.586743
H    -1.619764  -0.031100  -0.450766
N    -1.409072  -0.094519  2.103262
C    -1.424779  -0.251603  3.568024
C    -1.300759  1.060964  4.383982
O    -1.951254  1.162444  5.426797
H    -2.287857  -0.254912  1.626927
H    -2.445387  -0.574919  3.809755
C    -0.459738  -1.388142  3.989493
C    -0.252338  -1.601137  5.500502
C    1.120277  -1.132882  6.001646
N    1.313521  0.309894  5.921917
C    2.403961  0.939308  5.352093
N    2.897311  0.316092  4.198317
N    2.859787  2.014536  5.912118
H    0.508947  -1.214943  3.505544
H    -0.860618  -2.304756  3.533110
H    -0.336932  -2.674215  5.728467
H    -1.044175  -1.099034  6.074874
H    1.915210  -1.610136  5.413191
H    1.255271  -1.466031  7.045135
H    0.958311  0.845848  6.707583
H    3.670631  0.826655  3.784910
H    2.189435  0.103948  3.493255
H    3.543513  2.477621  5.307247
N    -0.504817  2.031407  3.880203
C    -0.265976  3.271502  4.600055
H    0.136678  1.758982  3.134106
H    -0.158679  4.097045  3.885199
H    0.641412  3.212204  5.220077
H    -1.125195  3.464868  5.250333
