35
Energy: -21190.3650334 eV PBE+vdW (tier 2 basis)
C    -2.745858  -0.018217  1.259387
C    -2.018552  0.171731  2.576884
O    -1.739630  1.289284  3.005545
H    -2.782848  -1.058932  0.913276
H    -2.263933  0.603056  0.496376
H    -3.773583  0.350033  1.387292
N    -1.764559  -0.989100  3.268874
C    -1.064686  -1.102315  4.552789
C    -1.252230  -2.507761  5.151416
O    -0.378126  -3.014220  5.847741
H    -1.871729  -1.851979  2.747193
H    0.021434  -0.998759  4.405354
C    -1.495632  -0.040513  5.595839
C    -3.010897  0.072218  5.808895
C    -3.453817  1.502975  6.156008
N    -4.892533  1.712095  6.085005
C    -5.546216  1.737039  4.854049
N    -6.936182  1.601220  4.989451
N    -5.036640  1.854638  3.677979
H    -1.103112  0.924929  5.257336
H    -0.978237  -0.296058  6.531131
H    -3.353817  -0.624012  6.589724
H    -3.539076  -0.209277  4.885683
H    -2.970383  2.208405  5.464654
H    -3.121906  1.783557  7.166017
H    -5.424224  1.251882  6.818466
H    -7.395067  1.811925  4.107309
H    -7.336425  2.139754  5.753942
H    -4.013483  1.864894  3.689826
N    -2.446600  -3.116254  4.878378
C    -2.820969  -4.382135  5.482058
H    -3.166320  -2.557750  4.431391
H    -1.903168  -4.889929  5.795767
H    -3.355219  -5.007640  4.756359
H    -3.457774  -4.240782  6.368606
