35
Energy: -21190.7745325 eV PBE+vdW (tier 2 basis)
C    0.042238  -2.711678  1.574771
C    -0.171762  -1.239267  1.868731
O    0.509274  -0.354205  1.355005
H    -0.634394  -3.369156  2.134720
H    1.082106  -2.973597  1.806498
H    -0.101213  -2.877920  0.499594
N    -1.175812  -0.976605  2.768650
C    -1.606126  0.381364  3.062109
C    -1.655444  0.641456  4.584255
O    -2.548316  1.307922  5.121918
H    -1.754435  -1.758502  3.087820
H    -0.782570  1.011644  2.684614
C    -2.883927  0.823121  2.309710
C    -3.976768  -0.228103  2.072784
C    -4.911089  -0.569202  3.249783
N    -4.303410  -0.999012  4.502251
C    -3.595802  -2.173299  4.623676
N    -2.946255  -2.299911  5.853820
N    -3.433612  -3.114996  3.743307
H    -2.553673  1.175969  1.323101
H    -3.294274  1.693621  2.841462
H    -3.516956  -1.141387  1.665974
H    -4.630817  0.143476  1.268588
H    -5.626864  -1.341115  2.924730
H    -5.509460  0.317873  3.498975
H    -3.967721  -0.228887  5.081496
H    -3.449592  -1.913411  6.646465
H    -2.640614  -3.255406  6.010402
H    -3.905607  -2.883256  2.867166
N    -0.605248  0.124768  5.265211
C    -0.477819  0.211000  6.704466
H    0.006853  -0.501317  4.753262
H    -0.792862  -0.725333  7.190102
H    -1.122979  1.022840  7.055831
H    0.560946  0.428510  6.982750
