35
Energy: -21190.2379999 eV PBE+vdW (tier 2 basis)
C    -0.129761  -1.736669  1.451087
C    -0.285416  -0.317863  1.973742
O    0.676566  0.418596  2.168962
H    0.392056  -1.701341  0.486869
H    -1.079088  -2.272383  1.323326
H    0.506701  -2.298744  2.146000
N    -1.574649  0.077332  2.212965
C    -1.918062  1.400141  2.708044
C    -1.602143  1.669953  4.198964
O    -1.256130  2.806029  4.528123
H    -2.327135  -0.580808  2.049159
H    -1.256639  2.118823  2.204330
C    -3.381838  1.704033  2.322435
C    -3.936256  3.024637  2.885039
C    -4.728002  2.877235  4.193294
N    -6.073669  2.341655  4.021870
C    -6.416568  1.023961  4.200893
N    -7.785160  0.801395  3.976250
N    -5.538837  0.121519  4.503251
H    -4.024861  0.872603  2.651511
H    -3.413051  1.718997  1.223094
H    -4.593126  3.492380  2.134942
H    -3.112815  3.731769  3.059594
H    -4.817178  3.861966  4.675647
H    -4.209901  2.217711  4.899116
H    -6.707781  2.884255  3.446595
H    -8.092621  -0.133806  4.219512
H    -8.404798  1.512867  4.355845
H    -5.998570  -0.762920  4.731045
N    -1.713248  0.679754  5.130196
C    -2.253448  -0.668039  5.026147
H    -1.439366  1.003322  6.052493
H    -1.551991  -1.365100  4.545530
H    -3.219272  -0.668934  4.504931
H    -2.446060  -1.028228  6.043420
