35
Energy: -21190.262007 eV PBE+vdW (tier 2 basis)
C    -0.509634  0.973517  -0.004744
C    -0.482248  0.869285  1.504482
O    -0.038814  1.770681  2.216130
H    0.463740  1.340965  -0.349996
H    -1.263981  1.720927  -0.284461
H    -0.743575  0.028329  -0.509655
N    -0.963058  -0.296982  2.034710
C    -1.209798  -0.455827  3.469595
C    -1.972080  0.792380  3.999118
O    -3.012250  1.138573  3.447109
H    -1.459493  -0.920660  1.410555
H    -1.977662  -1.241576  3.538490
C    -0.004664  -0.984668  4.276359
C    1.328115  -0.209827  4.276221
C    2.255949  -0.570443  3.100162
N    3.598454  -0.033174  3.194167
C    3.916757  1.277338  2.838271
N    5.261650  1.569066  3.123573
N    3.171104  2.182534  2.316384
H    0.193963  -2.008811  3.918305
H    -0.356731  -1.110452  5.312009
H    1.864665  -0.453191  5.207224
H    1.168929  0.877395  4.272118
H    1.826162  -0.233693  2.148808
H    2.338029  -1.667151  3.032267
H    4.172440  -0.412060  3.941422
H    5.503040  2.483533  2.751287
H    5.918025  0.854428  2.817633
H    2.176163  1.941038  2.292641
N    -1.493757  1.378510  5.130134
C    -2.096533  2.594606  5.648806
H    -0.530421  1.191748  5.380403
H    -1.846055  2.702825  6.710327
H    -3.183222  2.523847  5.536630
H    -1.753347  3.485972  5.101436
