35
Energy: -21189.9994419 eV PBE+vdW (tier 2 basis)
C    0.465288  -0.472743  1.553321
C    -0.286486  -0.142518  2.823811
O    0.199729  -0.348498  3.933930
H    0.720150  0.440543  0.998288
H    -0.130150  -1.127643  0.906904
H    1.390988  -0.978597  1.839961
N    -1.529507  0.455511  2.740046
C    -2.464825  0.657240  1.640816
C    -3.067350  -0.677445  1.129665
O    -2.481403  -1.749405  1.255944
H    -1.930516  0.551621  3.668268
H    -3.290116  1.209959  2.111124
C    -1.947924  1.566182  0.478724
C    -1.663242  0.900441  -0.870741
C    -1.513966  1.941109  -1.988353
N    -1.529151  1.379571  -3.330119
C    -2.717956  0.974240  -3.902977
N    -2.578812  0.468561  -5.197988
N    -3.840742  1.151969  -3.284448
H    -2.706822  2.344581  0.308084
H    -1.060167  2.097154  0.850513
H    -2.497976  0.245732  -1.151948
H    -0.766806  0.267223  -0.823370
H    -0.583350  2.516714  -1.873531
H    -2.351253  2.650504  -1.936628
H    -0.691388  0.892684  -3.626563
H    -3.267894  -0.223946  -5.465345
H    -1.642738  0.243928  -5.518762
H    -4.628115  0.938757  -3.900951
N    -4.302651  -0.609858  0.546023
C    -5.071259  0.562449  0.147546
H    -4.598651  -1.506183  0.169409
H    -6.127126  0.276933  0.070766
H    -4.746433  0.970602  -0.823748
H    -5.005805  1.348656  0.909776
