35
Energy: -21190.1741978 eV PBE+vdW (tier 2 basis)
C    -0.090342  -0.249080  0.097610
C    -0.042149  0.049880  1.587688
O    1.009598  0.373236  2.139742
H    -1.097723  -0.436046  -0.294456
H    0.534102  -1.129561  -0.101491
H    0.354748  0.594812  -0.442838
N    -1.244692  -0.075603  2.230138
C    -1.582674  0.048669  3.654975
C    -2.379061  1.330034  4.012572
O    -3.431694  1.207044  4.640885
H    -2.027391  -0.339004  1.643317
H    -2.333292  -0.732734  3.841994
C    -0.437922  -0.192160  4.653260
C    0.152406  -1.600960  4.582398
C    1.316232  -1.774687  5.569814
N    1.924023  -3.093507  5.574924
C    1.336080  -4.176476  6.217581
N    1.996774  -5.379514  5.935918
N    0.310047  -4.190201  6.996978
H    -0.876194  -0.027355  5.650236
H    0.357439  0.551025  4.520637
H    0.527308  -1.801096  3.568346
H    -0.627408  -2.349790  4.791606
H    0.987690  -1.548850  6.596275
H    2.104502  -1.044609  5.333467
H    2.441972  -3.334660  4.735402
H    1.636549  -6.125475  6.524571
H    3.011267  -5.322140  5.977865
H    -0.163103  -3.284412  7.021554
N    -1.909233  2.561743  3.666875
C    -0.714989  2.953217  2.937336
H    -2.545720  3.300493  3.952442
H    0.087659  2.218028  3.052087
H    -0.355086  3.910986  3.332925
H    -0.909811  3.075250  1.859779
