35
Energy: -21189.9189092 eV PBE+vdW (tier 2 basis)
C    -0.375364  -1.352245  -0.213296
C    0.063063  -0.755434  1.108977
O    1.250363  -0.674508  1.413537
H    -0.966785  -2.263434  -0.053722
H    0.525073  -1.607122  -0.777783
H    -0.978533  -0.649604  -0.802456
N    -0.897039  -0.291155  1.980562
C    -2.364288  -0.355350  1.955558
C    -2.842885  -1.826747  2.160255
O    -2.655173  -2.311695  3.276246
H    -0.487101  -0.041787  2.875555
H    -2.650354  0.074306  2.925999
C    -3.003090  0.561225  0.898494
C    -4.483879  0.837029  1.170752
C    -5.139824  1.750354  0.119930
N    -5.139380  1.241280  -1.242649
C    -5.952179  0.192691  -1.645661
N    -5.596452  -0.311356  -2.902832
N    -6.930607  -0.353880  -1.007894
H    -2.871558  0.167618  -0.116231
H    -2.441770  1.508504  0.933256
H    -4.590742  1.321745  2.154719
H    -5.045088  -0.106749  1.237145
H    -4.625570  2.722510  0.100326
H    -6.180175  1.962724  0.407751
H    -4.257664  1.312967  -1.738573
H    -5.371529  0.396133  -3.597911
H    -6.308493  -0.953542  -3.240071
H    -7.029887  0.022300  -0.062936
N    -3.407416  -2.596014  1.178533
C    -3.866332  -2.333915  -0.181122
H    -3.649968  -3.508301  1.556936
H    -3.147234  -1.741416  -0.752175
H    -4.847678  -1.840175  -0.218323
H    -3.960666  -3.298760  -0.692198
