35
Energy: -21189.8191768 eV PBE+vdW (tier 2 basis)
C    -0.059482  1.309493  3.775557
C    -1.388984  1.685630  4.391460
O    -1.429747  2.179196  5.517957
H    0.411938  0.584316  4.449371
H    0.572090  2.207500  3.762465
H    -0.113526  0.856014  2.786007
N    -2.580557  1.491109  3.720143
C    -2.971979  0.994768  2.405285
C    -2.512470  -0.464296  2.155161
O    -1.644572  -1.010456  2.829497
H    -3.351162  1.784142  4.313420
H    -4.070031  0.929244  2.475798
C    -2.732097  2.005925  1.245671
C    -1.311104  2.295579  0.751523
C    -0.646206  1.132370  0.015785
N    0.641420  1.527254  -0.534740
C    1.130028  0.912442  -1.673568
N    2.407582  1.351947  -2.042087
N    0.394703  0.089675  -2.343378
H    -3.174710  2.950718  1.593703
H    -3.339780  1.692982  0.383948
H    -0.681713  2.639629  1.585081
H    -1.370737  3.144133  0.053114
H    -1.255943  0.808257  -0.837514
H    -0.535525  0.251115  0.669681
H    1.333589  1.828075  0.143116
H    2.949456  0.674817  -2.565980
H    2.958416  1.827730  -1.334045
H    0.852378  -0.177932  -3.217633
N    -3.144857  -1.154321  1.155816
C    -4.218920  -0.760076  0.262429
H    -2.749079  -2.080702  1.026202
H    -4.773431  -1.656975  -0.038084
H    -3.854146  -0.262456  -0.649622
H    -4.929716  -0.092428  0.765018
