35
Energy: -21190.5268212 eV PBE+vdW (tier 2 basis)
C    1.364048  -3.925938  1.314667
C    0.071727  -3.182632  1.034281
O    -0.423341  -3.124338  -0.091956
H    1.238815  -4.975538  1.020832
H    1.677060  -3.883172  2.364841
H    2.156390  -3.502986  0.684755
N    -0.512840  -2.595578  2.119736
C    -1.682430  -1.752772  2.000561
C    -1.662826  -0.802971  3.212559
O    -0.858259  -0.951743  4.134801
H    -0.025836  -2.511845  3.011108
H    -1.585242  -1.156035  1.077264
C    -2.991897  -2.573607  1.862438
C    -3.326757  -3.525184  3.015609
C    -3.846712  -2.844558  4.283363
N    -4.313024  -3.831253  5.240934
C    -4.740219  -3.441615  6.506261
N    -5.314662  -4.498512  7.221594
N    -4.670404  -2.272686  7.043586
H    -2.879395  -3.152567  0.936089
H    -3.834033  -1.883696  1.687000
H    -2.446208  -4.136866  3.262772
H    -4.096157  -4.227111  2.653590
H    -4.646620  -2.124336  4.014415
H    -3.043569  -2.269683  4.764716
H    -4.850373  -4.595605  4.840130
H    -5.492075  -4.223399  8.183512
H    -4.799979  -5.373554  7.165168
H    -4.349047  -1.571021  6.372990
N    -2.599011  0.181174  3.191348
C    -2.815646  1.087265  4.304758
H    -3.234291  0.220421  2.403200
H    -1.998745  0.940428  5.018131
H    -3.769947  0.878656  4.810965
H    -2.813495  2.130855  3.964981
