35
Energy: -21190.5738882 eV PBE+vdW (tier 2 basis)
C    -0.003686  0.341797  0.125989
C    0.016753  0.088771  1.618478
O    1.067629  -0.159069  2.223490
H    0.427734  -0.526251  -0.387390
H    0.639434  1.203865  -0.091030
H    -1.005671  0.536036  -0.275336
N    -1.185948  0.156317  2.252556
C    -1.331311  0.014413  3.702785
C    -1.383365  -1.492749  4.086600
O    -2.432308  -2.060198  4.390877
H    -2.024948  0.313158  1.705795
H    -0.420928  0.449679  4.143470
C    -2.564270  0.767601  4.191269
C    -2.590150  0.936585  5.712825
C    -3.880830  1.590025  6.227475
N    -4.202244  2.898643  5.649156
C    -3.329236  3.978502  5.726076
N    -2.705777  4.120671  6.967484
N    -3.157527  4.716962  4.681505
H    -3.462655  0.216575  3.867696
H    -2.572844  1.757033  3.709475
H    -1.727384  1.541804  6.032199
H    -2.494624  -0.046333  6.197936
H    -3.833013  1.675312  7.323028
H    -4.740461  0.938412  6.014998
H    -4.583517  2.855563  4.707847
H    -3.263035  3.856669  7.775070
H    -2.227749  5.005042  7.095151
H    -2.616299  5.557836  4.900521
N    -0.165078  -2.091369  4.038488
C    0.010138  -3.516323  4.238575
H    0.591658  -1.540178  3.623721
H    -0.889562  -3.907475  4.725072
H    0.881381  -3.708164  4.878048
H    0.150621  -4.048045  3.284877
