35
Energy: -21190.4820007 eV PBE+vdW (tier 2 basis)
C    0.246281  1.032296  1.620404
C    -0.153180  -0.152160  2.477050
O    0.620077  -0.634216  3.312122
H    -0.110359  0.946695  0.585267
H    1.336543  1.115313  1.628349
H    -0.171312  1.955017  2.049742
N    -1.394935  -0.693068  2.283185
C    -2.542504  -0.005380  1.720694
C    -2.877915  1.276856  2.516702
O    -2.671582  1.355130  3.728099
H    -1.658994  -1.347306  3.039790
H    -2.324290  0.256438  0.674509
C    -3.781898  -0.942249  1.706484
C    -4.542799  -1.181754  3.028810
C    -3.963609  -2.191173  4.026959
N    -2.666170  -1.782700  4.548131
C    -1.908560  -2.677612  5.310504
N    -0.702778  -2.111326  5.715641
N    -2.367819  -3.858183  5.553781
H    -3.454328  -1.902448  1.277933
H    -4.496507  -0.515895  0.986928
H    -5.541026  -1.558813  2.760111
H    -4.719121  -0.220672  3.536766
H    -3.830108  -3.175154  3.555780
H    -4.694560  -2.344675  4.839870
H    -2.604487  -0.808410  4.846549
H    -0.078972  -2.764841  6.176085
H    -0.218622  -1.547601  5.006069
H    -1.655543  -4.436534  6.007227
N    -3.453669  2.304727  1.828498
C    -3.681983  2.412698  0.395735
H    -3.676496  3.105973  2.411011
H    -4.352713  1.626835  0.021094
H    -2.744102  2.380517  -0.178591
H    -4.161654  3.376383  0.195779
