35
Energy: -21190.5252634 eV PBE+vdW (tier 2 basis)
C    0.337469  -3.076921  4.452470
C    -0.251994  -2.008331  3.551959
O    -0.198447  -2.086879  2.323651
H    -0.111593  -4.044820  4.196012
H    0.190565  -2.883117  5.521919
H    1.412413  -3.154663  4.246987
N    -0.884632  -0.983543  4.200398
C    -1.303429  0.232284  3.521688
C    -0.678928  1.404315  4.301116
O    -0.458745  1.318522  5.510214
H    -0.724144  -0.851738  5.198306
H    -0.896569  0.180795  2.499383
C    -2.839673  0.419877  3.465592
C    -3.584022  -0.385343  2.394833
C    -3.575895  -1.913499  2.570368
N    -4.002335  -2.353722  3.885920
C    -5.328256  -2.518400  4.243712
N    -5.473197  -2.989300  5.556295
N    -6.380630  -2.313276  3.527354
H    -3.044992  1.487064  3.290647
H    -3.249429  0.189358  4.460229
H    -3.171017  -0.159232  1.398551
H    -4.626783  -0.033008  2.386079
H    -2.568215  -2.305548  2.391361
H    -4.216513  -2.364159  1.792737
H    -3.322866  -2.857910  4.441219
H    -4.892369  -2.513179  6.241850
H    -6.453098  -2.986206  5.825301
H    -6.139879  -2.103969  2.555673
N    -0.435885  2.522294  3.567290
C    0.069123  3.755191  4.143652
H    -0.614938  2.485366  2.570785
H    1.023472  4.044081  3.683040
H    0.228691  3.578883  5.212235
H    -0.650259  4.576734  4.020172
