35
Energy: -21190.251656 eV PBE+vdW (tier 2 basis)
C    -1.101073  1.514332  -0.572239
C    -0.167878  1.110927  0.556669
O    1.007925  1.460937  0.588744
H    -1.935542  2.131361  -0.210201
H    -1.529505  0.639931  -1.081317
H    -0.519644  2.096744  -1.291322
N    -0.697419  0.341048  1.566855
C    -2.020195  -0.276874  1.630310
C    -2.492371  -0.187336  3.099853
O    -2.432938  -1.153474  3.864870
H    -0.006754  0.030283  2.246988
H    -2.695727  0.332446  1.012925
C    -2.030617  -1.721493  1.124232
C    -3.434370  -2.321998  1.038357
C    -3.439692  -3.840670  0.810750
N    -2.578710  -4.613308  1.718272
C    -2.986493  -5.010781  3.000993
N    -3.612327  -4.013555  3.734302
N    -2.817413  -6.182242  3.518293
H    -1.412767  -2.336452  1.793375
H    -1.542842  -1.738422  0.137179
H    -4.000592  -1.859710  0.212900
H    -3.997356  -2.101657  1.955291
H    -3.067260  -4.049096  -0.202894
H    -4.482564  -4.199741  0.851806
H    -2.096633  -5.370008  1.246312
H    -3.806727  -4.335752  4.677695
H    -3.164033  -3.094973  3.720339
H    -2.494035  -6.853280  2.815397
N    -2.946739  1.021740  3.528849
C    -2.995590  2.276045  2.794421
H    -3.176825  1.037633  4.517722
H    -3.478799  3.026727  3.427879
H    -1.993171  2.640343  2.528276
H    -3.594842  2.185399  1.877519
