35
Energy: -21190.1214476 eV PBE+vdW (tier 2 basis)
C    0.105469  1.436590  -0.373173
C    0.341632  0.872502  1.010450
O    1.442116  0.929207  1.558369
H    -0.234680  2.477573  -0.273714
H    -0.647474  0.899990  -0.960817
H    1.062477  1.443741  -0.902736
N    -0.720561  0.316544  1.688207
C    -2.115712  0.108041  1.287157
C    -2.234239  -0.759151  0.007140
O    -2.818077  -0.360904  -0.998635
H    -0.457336  0.025112  2.624321
H    -2.543140  -0.496331  2.104838
C    -2.968463  1.379505  1.175614
C    -2.962598  2.270393  2.428023
C    -1.848870  3.331462  2.445839
N    -1.923358  4.257318  3.566346
C    -2.841949  5.290189  3.572566
N    -2.844452  5.989065  4.792945
N    -3.596208  5.511044  2.550056
H    -3.993679  1.050982  0.957588
H    -2.665532  1.957172  0.291380
H    -2.897723  1.651761  3.340380
H    -3.917594  2.809861  2.481189
H    -1.920009  3.934598  1.530733
H    -0.853533  2.869247  2.469749
H    -1.694590  3.877649  4.478595
H    -3.389923  6.844051  4.765077
H    -1.921000  6.151095  5.188308
H    -4.126576  6.377856  2.661982
N    -1.662804  -2.000701  0.043714
C    -0.955247  -2.660370  1.128352
H    -1.748673  -2.497572  -0.837308
H    -0.932091  -3.736456  0.922478
H    0.078511  -2.302585  1.239639
H    -1.475335  -2.524644  2.086471
