35
Energy: -21190.3914639 eV PBE+vdW (tier 2 basis)
C    2.725844  0.601357  0.346222
C    2.688746  0.556007  1.862277
O    3.658795  0.849026  2.551551
H    1.821852  0.205249  -0.133464
H    3.596918  0.035569  -0.004596
H    2.867787  1.643271  0.030940
N    1.489641  0.145871  2.407999
C    1.211815  0.232489  3.836063
C    0.945102  -1.135804  4.504809
O    0.440462  -1.201950  5.623265
H    0.696020  0.048273  1.782669
H    2.151295  0.600294  4.282381
C    0.080205  1.220153  4.145372
C    0.439078  2.674265  3.843781
C    -0.727834  3.628663  4.128883
N    -0.424607  5.032670  3.872846
C    -0.812533  5.740603  2.746684
N    -1.098146  4.940429  1.635426
N    -0.943905  7.020354  2.643026
H    -0.174502  1.093705  5.206689
H    -0.822047  0.923371  3.581007
H    0.749609  2.783464  2.791189
H    1.311364  2.977193  4.443430
H    -1.025927  3.530430  5.183836
H    -1.604493  3.341390  3.528818
H    -0.237626  5.611270  4.681262
H    -1.261307  5.526807  0.821795
H    -0.422761  4.204362  1.447421
H    -0.860550  7.480546  3.553765
N    1.338394  -2.220869  3.784670
C    1.271303  -3.571776  4.305367
H    1.791012  -2.044241  2.894971
H    0.748448  -4.237141  3.605250
H    0.717126  -3.536133  5.249412
H    2.274420  -3.978171  4.499987
