35
Energy: -21189.9837988 eV PBE+vdW (tier 2 basis)
C    -0.352184  -0.383195  -0.422188
C    -0.189184  -0.580020  1.070226
O    0.904393  -0.909253  1.534616
H    0.523004  -0.826953  -0.904175
H    -0.367737  0.688367  -0.658975
H    -1.263221  -0.818640  -0.842351
N    -1.230065  -0.346128  1.944741
C    -2.676015  -0.081737  1.884498
C    -3.531905  -1.276110  2.380107
O    -4.356375  -1.082556  3.274594
H    -0.898212  -0.497612  2.895337
H    -2.866112  0.657328  2.678053
C    -3.255431  0.506971  0.592441
C    -2.869793  1.972033  0.353673
C    -3.288811  2.508920  -1.025855
N    -2.402664  2.167489  -2.129264
C    -2.544016  1.044162  -2.912686
N    -1.550094  0.964015  -3.900729
N    -3.474342  0.176911  -2.684370
H    -4.349557  0.452729  0.697088
H    -3.029980  -0.099220  -0.290505
H    -1.785913  2.119712  0.483255
H    -3.349201  2.595334  1.126058
H    -3.345839  3.606763  -0.983268
H    -4.287530  2.138075  -1.292285
H    -1.483000  2.592490  -2.125572
H    -1.697483  0.215440  -4.568757
H    -1.324871  1.842067  -4.361836
H    -3.520779  -0.515952  -3.434474
N    -3.377148  -2.517069  1.832827
C    -2.558727  -2.958364  0.714678
H    -4.002055  -3.197182  2.253789
H    -2.734707  -2.355535  -0.186310
H    -2.840340  -3.989716  0.476937
H    -1.486300  -2.946236  0.950997
