35
Energy: -21190.0599678 eV PBE+vdW (tier 2 basis)
C    -0.200263  0.082240  1.752159
C    -1.462768  -0.669648  2.114883
O    -1.429413  -1.824446  2.532097
H    0.021377  0.850450  2.506549
H    -0.283713  0.559286  0.769524
H    0.620365  -0.640211  1.746229
N    -2.690083  -0.033782  2.026205
C    -3.122011  1.233696  1.452989
C    -3.067289  1.247791  -0.093151
O    -2.159039  0.714433  -0.722429
H    -3.436098  -0.678780  2.269157
H    -4.175785  1.317090  1.753478
C    -2.391715  2.485325  1.994442
C    -2.391490  2.609281  3.520440
C    -3.785838  2.783683  4.120276
N    -3.709615  2.971383  5.555725
C    -4.863473  3.066040  6.327230
N    -4.583481  3.369944  7.662697
N    -6.085850  2.917220  5.948007
H    -2.872768  3.371042  1.549659
H    -1.360098  2.491466  1.621583
H    -1.771172  3.479509  3.790831
H    -1.915640  1.728065  3.974042
H    -4.390357  1.882220  3.933379
H    -4.302609  3.627941  3.618205
H    -2.942310  3.555853  5.875734
H    -5.425228  3.312190  8.228677
H    -3.814151  2.841259  8.065466
H    -6.158175  2.843295  4.930925
N    -4.069751  1.928977  -0.729099
C    -5.260633  2.535969  -0.155240
H    -3.975582  1.925879  -1.740046
H    -5.926544  1.795356  0.313325
H    -5.821441  3.021433  -0.960729
H    -5.018196  3.310281  0.586838
