35
Energy: -21189.9511588 eV PBE+vdW (tier 2 basis)
C    0.032714  0.992983  0.839929
C    0.077400  0.497357  2.270906
O    1.134014  0.506330  2.902129
H    1.041199  1.330183  0.586887
H    -0.667762  1.827333  0.715355
H    -0.261603  0.202466  0.138385
N    -1.061604  0.043398  2.905466
C    -2.459880  -0.244284  2.561972
C    -2.819073  -1.729845  2.813352
O    -3.793729  -1.998776  3.518262
H    -0.827471  -0.211532  3.863237
H    -3.067940  0.261532  3.327462
C    -2.964637  0.234550  1.191356
C    -4.457685  -0.028861  0.948373
C    -5.424643  0.666730  1.929236
N    -5.216834  2.092790  2.117575
C    -5.495645  3.035291  1.139961
N    -5.023471  4.311595  1.477244
N    -6.099244  2.866324  0.013648
H    -2.400748  -0.240820  0.379040
H    -2.777699  1.314630  1.107900
H    -4.671071  -1.107884  0.981664
H    -4.675470  0.298676  -0.078169
H    -5.360363  0.191018  2.916415
H    -6.457513  0.507205  1.584540
H    -4.493788  2.357918  2.777103
H    -5.371294  4.999474  0.814698
H    -5.211017  4.590840  2.437169
H    -6.294211  1.879933  -0.168525
N    -2.072230  -2.720004  2.244622
C    -0.884975  -2.645327  1.405640
H    -2.398114  -3.644003  2.511283
H    -0.703219  -3.641231  0.987396
H    0.009288  -2.335172  1.963197
H    -1.026444  -1.960319  0.560803
