35
Energy: -21190.1223422 eV PBE+vdW (tier 2 basis)
C    0.313332  -0.113423  0.200475
C    0.281711  0.139228  1.698856
O    1.318397  0.240780  2.351517
H    -0.653002  0.026828  -0.300324
H    0.647353  -1.146680  0.035488
H    1.057308  0.550242  -0.253798
N    -0.979234  0.229945  2.232455
C    -1.405046  0.254408  3.638331
C    -1.889751  1.627617  4.169730
O    -2.973912  1.667571  4.757313
H    -1.738974  0.135490  1.569797
H    -2.343892  -0.317519  3.660004
C    -0.450083  -0.435177  4.629924
C    -0.348374  -1.944469  4.395297
C    0.731018  -2.590756  5.273059
N    0.745547  -4.047320  5.252756
C    1.268573  -4.740342  4.175718
N    1.077266  -6.128638  4.303306
N    1.827018  -4.121132  3.192884
H    -0.857610  -0.242599  5.634455
H    0.545260  0.021851  4.583206
H    -0.104703  -2.162344  3.346772
H    -1.324624  -2.412598  4.607475
H    0.605745  -2.280933  6.322327
H    1.719828  -2.250095  4.939300
H    -0.040909  -4.501970  5.705172
H    1.581037  -6.669347  3.608276
H    1.233302  -6.491052  5.241129
H    2.277714  -4.777859  2.551525
N    -1.135948  2.752013  4.024801
C    0.160097  2.957622  3.400978
H    -1.604247  3.567243  4.410257
H    0.707502  3.724654  3.962993
H    0.065794  3.294612  2.356299
H    0.758534  2.040969  3.405561
