35
Energy: -21190.1795041 eV PBE+vdW (tier 2 basis)
C    -1.196600  2.056997  1.212606
C    -0.315125  1.211087  2.107737
O    0.578168  1.686268  2.805580
H    -0.803507  3.076581  1.213811
H    -2.233854  2.072079  1.576344
H    -1.225298  1.673924  0.183531
N    -0.549592  -0.145700  2.112381
C    -1.652098  -0.866361  1.493549
C    -3.057915  -0.528643  2.046631
O    -3.990696  -0.371922  1.259132
H    0.064978  -0.654320  2.742160
H    -1.728514  -0.576540  0.435214
C    -1.367305  -2.378185  1.546000
C    -2.405427  -3.237088  0.823439
C    -2.086178  -4.741328  0.876393
N    -0.849736  -5.155852  0.236470
C    -0.715166  -5.238462  -1.144453
N    0.606371  -5.496618  -1.530918
N    -1.622188  -5.105290  -2.048892
H    -1.285237  -2.702698  2.598109
H    -0.375870  -2.528362  1.089564
H    -2.484697  -2.909324  -0.223618
H    -3.401224  -3.084545  1.265584
H    -2.910790  -5.305866  0.416877
H    -2.038190  -5.073861  1.924895
H    0.007739  -4.942043  0.734177
H    0.652107  -5.677200  -2.530021
H    1.068640  -6.227135  -0.995201
H    -2.512441  -4.789984  -1.658542
N    -3.256108  -0.426811  3.395382
C    -2.326791  -0.558724  4.509291
H    -4.215458  -0.179849  3.618289
H    -2.914566  -0.630667  5.431203
H    -1.645742  0.298765  4.600420
H    -1.728499  -1.476018  4.436993
