35
Energy: -21190.262171 eV PBE+vdW (tier 2 basis)
C    0.212556  0.724485  0.165870
C    0.068641  -0.198995  1.356717
O    1.032680  -0.590423  2.016647
H    -0.582766  0.592294  -0.579685
H    1.186359  0.556581  -0.303659
H    0.173080  1.760724  0.532080
N    -1.218251  -0.546818  1.666047
C    -1.578250  -1.251291  2.885741
C    -1.500357  -2.792729  2.859788
O    -1.214850  -3.377489  3.903200
H    -1.959705  -0.124174  1.119300
H    -0.818293  -0.995936  3.634896
C    -2.962695  -0.804939  3.388905
C    -3.027996  0.665610  3.825825
C    -2.229066  0.996497  5.117194
N    -1.231713  2.061101  4.973964
C    -0.069604  1.837250  4.224137
N    0.730278  0.800922  4.668007
N    0.199004  2.632174  3.238566
H    -3.236089  -1.460624  4.228357
H    -3.713019  -0.991984  2.601267
H    -4.083826  0.936977  3.968133
H    -2.653500  1.311540  3.016700
H    -1.725275  0.092765  5.488533
H    -2.918201  1.299790  5.916594
H    -1.642852  2.936485  4.653182
H    1.198792  0.255993  3.945878
H    0.416448  0.267896  5.470275
H    1.157924  2.470072  2.913849
N    -1.776924  -3.490871  1.718457
C    -2.240477  -3.037606  0.417292
H    -1.672386  -4.491670  1.853135
H    -2.604480  -3.911288  -0.135308
H    -1.445388  -2.563148  -0.174491
H    -3.082403  -2.337184  0.502526
