35
Energy: -21190.2016199 eV PBE+vdW (tier 2 basis)
C    -0.074233  -0.111430  -0.268430
C    -0.049283  -0.332558  1.228348
O    1.016778  -0.542819  1.822088
H    0.691381  -0.758211  -0.710135
H    0.183504  0.931921  -0.487995
H    -1.045673  -0.328926  -0.730097
N    -1.224125  -0.352570  1.927120
C    -2.551998  0.139989  1.612639
C    -2.550341  1.379851  0.697968
O    -1.682938  2.248079  0.752563
H    -1.105530  -0.716087  2.882525
H    -3.157283  -0.654982  1.145665
C    -3.235879  0.535332  2.954091
C    -2.544046  1.718389  3.664296
C    -2.365639  1.570386  5.186024
N    -1.701707  0.344323  5.642308
C    -0.576007  -0.186706  5.017392
N    0.461944  0.679677  4.747142
N    -0.580205  -1.458329  4.751134
H    -3.214994  -0.364824  3.587280
H    -4.296012  0.754858  2.764738
H    -3.096350  2.650519  3.476075
H    -1.558267  1.874259  3.207072
H    -3.338335  1.591373  5.697627
H    -1.820115  2.453088  5.558930
H    -2.336299  -0.421066  5.850794
H    1.002185  0.443572  3.913610
H    0.309306  1.671264  4.889068
H    0.343226  -1.760625  4.426322
N    -3.617855  1.502477  -0.149689
C    -4.725948  0.585558  -0.368050
H    -3.602611  2.367516  -0.680160
H    -5.367554  1.005673  -1.149932
H    -5.344607  0.448491  0.530779
H    -4.385400  -0.401329  -0.712993
