35
Energy: -21190.45257 eV PBE+vdW (tier 2 basis)
C    0.596875  0.706295  -0.391451
C    0.429446  1.084486  1.059603
O    1.329414  1.653288  1.686689
H    1.636945  0.399538  -0.544227
H    0.418656  1.608537  -0.993128
H    -0.078129  -0.084266  -0.734907
N    -0.747795  0.781439  1.705505
C    -2.063021  0.453737  1.136859
C    -2.166118  -1.005091  0.610048
O    -3.061321  -1.338921  -0.161062
H    -0.748263  1.149538  2.653171
H    -2.744251  0.463600  2.004759
C    -2.618633  1.458209  0.116052
C    -2.938042  2.855832  0.665007
C    -1.757821  3.782229  0.985772
N    -0.893945  3.952018  -0.185208
C    0.245368  4.766691  -0.132621
N    1.025567  4.596666  1.003135
N    0.441529  5.584566  -1.112650
H    -3.538609  1.005254  -0.275027
H    -1.937491  1.539152  -0.741217
H    -3.560079  2.770246  1.571208
H    -3.575092  3.364350  -0.077303
H    -1.156696  3.387042  1.813070
H    -2.160519  4.751501  1.336040
H    -1.414784  4.222914  -1.019203
H    1.129336  3.639561  1.350350
H    1.911072  5.088557  0.965171
H    1.363763  6.024840  -1.048647
N    -1.243590  -1.863394  1.121536
C    -1.212295  -3.273150  0.787007
H    -0.533141  -1.470523  1.729303
H    -0.283973  -3.538285  0.261416
H    -2.063801  -3.477768  0.129353
H    -1.298277  -3.894988  1.688573
