35
Energy: -21190.5145452 eV PBE+vdW (tier 2 basis)
C    -2.809607  0.343857  -0.306698
C    -2.113367  -0.169112  0.935825
O    -1.378868  -1.164030  0.909162
H    -3.456537  1.210697  -0.124798
H    -3.406952  -0.467270  -0.740371
H    -2.046582  0.619844  -1.045498
N    -2.337494  0.535289  2.080134
C    -1.696123  0.214201  3.356266
C    -2.483447  -0.901675  4.098969
O    -3.158561  -0.677473  5.102272
H    -3.018455  1.286340  2.069574
H    -0.703814  -0.188471  3.099430
C    -1.544576  1.463418  4.219562
C    -0.594486  2.508322  3.632154
C    -0.463082  3.742517  4.534631
N    0.436982  4.778706  4.032220
C    1.803426  4.565152  3.877402
N    2.384151  3.811685  4.902256
N    2.393519  5.044237  2.835926
H    -1.186927  1.139416  5.207522
H    -2.541979  1.894941  4.406720
H    -0.935626  2.830515  2.635284
H    0.403675  2.066790  3.486681
H    -0.135078  3.431300  5.537623
H    -1.446931  4.213715  4.678498
H    0.090535  5.271380  3.212286
H    2.004923  3.967346  5.832317
H    3.397738  3.821642  4.894149
H    3.410556  4.951798  2.904137
N    -2.337213  -2.122061  3.518710
C    -3.052525  -3.295895  3.978027
H    -1.830201  -2.148458  2.630114
H    -3.503973  -3.061538  4.947873
H    -2.366699  -4.145499  4.094729
H    -3.851405  -3.583624  3.277909
