35
Energy: -21189.9905634 eV PBE+vdW (tier 2 basis)
C    0.228022  -1.065605  -0.078863
C    0.007059  -0.604406  1.347410
O    0.937263  -0.274288  2.082587
H    1.092041  -1.738255  -0.106465
H    0.469897  -0.187023  -0.692310
H    -0.641551  -1.570251  -0.517658
N    -1.295885  -0.571417  1.762500
C    -1.696483  0.058069  3.022920
C    -1.034317  1.465931  3.113738
O    -1.333541  2.267458  2.229003
H    -2.013196  -0.693454  1.058702
H    -2.741787  0.358556  2.862960
C    -1.729548  -0.920375  4.221203
C    -0.621894  -1.970545  4.323911
C    -0.769478  -2.914295  5.526508
N    -1.958373  -3.749906  5.520479
C    -3.136047  -3.442876  6.185956
N    -4.157235  -4.357815  5.890059
N    -3.387518  -2.466015  6.988031
H    -2.691820  -1.451201  4.162242
H    -1.793463  -0.325443  5.144941
H    0.370112  -1.505051  4.373425
H    -0.614007  -2.574795  3.402755
H    -0.765748  -2.346559  6.468838
H    0.112546  -3.571994  5.569045
H    -2.072502  -4.345231  4.706430
H    -4.962134  -4.187778  6.486879
H    -3.869323  -5.332983  5.918681
H    -2.618685  -1.793984  7.025368
N    -0.289057  1.874511  4.186950
C    0.600872  1.103446  5.046703
H    -0.023230  2.846816  4.053863
H    1.230865  1.812809  5.594023
H    1.247873  0.440551  4.457290
H    0.051402  0.513956  5.791677
