35
Energy: -21190.6869718 eV PBE+vdW (tier 2 basis)
C    -1.928386  -2.542118  3.087974
C    -1.073490  -1.520143  2.362547
O    -0.921336  -1.537364  1.141406
H    -1.960399  -2.399951  4.175155
H    -1.539820  -3.544266  2.868815
H    -2.949505  -2.493148  2.689997
N    -0.482589  -0.579993  3.159005
C    0.374767  0.462157  2.623488
C    1.439752  0.757167  3.687552
O    1.115275  0.929311  4.870223
H    -0.613181  -0.581135  4.166002
H    0.823246  0.063452  1.701137
C    -0.428660  1.739643  2.289285
C    0.387643  2.871961  1.637702
C    0.177962  4.238784  2.313241
N    0.585417  4.280109  3.704720
C    1.900979  4.228842  4.127821
N    2.012801  3.841288  5.464910
N    2.960624  4.532209  3.449037
H    -0.878173  2.084011  3.233300
H    -1.255941  1.433884  1.635677
H    0.133230  2.960356  0.571685
H    1.464467  2.649608  1.674411
H    -0.883666  4.522075  2.276953
H    0.716604  5.017773  1.751224
H    -0.108756  4.060425  4.407894
H    1.571984  2.939840  5.660970
H    2.987654  3.846429  5.751520
H    2.719642  4.933004  2.538650
N    2.711843  0.824276  3.233992
C    3.852924  1.202578  4.052068
H    2.859551  0.685387  2.241485
H    4.707625  0.555793  3.819074
H    3.577785  1.065833  5.102592
H    4.121127  2.255923  3.879488
