35
Energy: -21190.5089693 eV PBE+vdW (tier 2 basis)
C    -0.360598  0.579260  0.051379
C    -0.618911  0.093025  1.461557
O    0.206855  -0.591361  2.081034
H    -0.071250  -0.275716  -0.570918
H    0.492412  1.271410  0.076759
H    -1.219708  1.087052  -0.402763
N    -1.790116  0.486342  2.019044
C    -2.191394  0.121858  3.364305
C    -3.695457  0.423203  3.443024
O    -4.225888  1.203658  2.646447
H    -2.479368  1.038192  1.510031
H    -2.009002  -0.956374  3.494336
C    -1.407125  0.864899  4.479894
C    -1.333398  2.392512  4.325020
C    -0.060226  2.888663  3.626018
N    1.142671  2.558523  4.389229
C    2.380838  2.266148  3.806371
N    2.313019  1.531337  2.630981
N    3.533914  2.609947  4.278811
H    -0.389708  0.452161  4.511323
H    -1.866351  0.605651  5.443530
H    -1.381239  2.856724  5.322536
H    -2.208450  2.776773  3.778168
H    -0.138240  3.979727  3.465522
H    0.040941  2.440298  2.633356
H    1.255253  3.112406  5.233067
H    1.650092  0.752332  2.602493
H    3.244639  1.259512  2.332712
H    3.432713  3.268524  5.056667
N    -4.419109  -0.175508  4.427932
C    -3.989012  -1.134151  5.431256
H    -5.388158  0.128218  4.446970
H    -4.819820  -1.812779  5.658253
H    -3.670321  -0.650400  6.367390
H    -3.157566  -1.742118  5.058324
