35
Energy: -21190.2395718 eV PBE+vdW (tier 2 basis)
C    0.036896  0.068588  0.037092
C    -0.000973  -0.446769  1.468189
O    0.855311  -1.215027  1.897590
H    0.880521  -0.412600  -0.464301
H    0.188214  1.157642  0.008999
H    -0.884816  -0.155278  -0.515608
N    -1.032359  -0.025571  2.270096
C    -2.065568  0.948596  1.982652
C    -2.105806  1.956463  3.147648
O    -1.847272  1.597242  4.294175
H    -0.945863  -0.281876  3.253388
H    -1.815323  1.458165  1.043493
C    -3.468713  0.306306  1.852609
C    -3.587075  -0.676942  0.689793
C    -4.960666  -1.343064  0.631054
N    -5.036717  -2.268489  -0.485576
C    -6.245887  -2.862582  -0.841291
N    -6.083919  -3.826690  -1.840686
N    -7.419715  -2.627680  -0.366603
H    -4.219310  1.106260  1.744866
H    -3.692347  -0.200167  2.804626
H    -2.809331  -1.450831  0.792757
H    -3.402600  -0.162148  -0.266654
H    -5.736942  -0.574948  0.488551
H    -5.175371  -1.838705  1.598272
H    -4.233340  -2.884343  -0.581680
H    -6.985206  -4.157154  -2.172968
H    -5.468769  -3.552865  -2.602099
H    -7.382057  -2.019106  0.453821
N    -2.489546  3.232922  2.858946
C    -2.761506  3.811652  1.552823
H    -2.532007  3.838797  3.672445
H    -1.879482  3.791378  0.895502
H    -3.045443  4.859556  1.693450
H    -3.594968  3.310193  1.039942
