35
Energy: -21190.6743914 eV PBE+vdW (tier 2 basis)
C    -0.277955  0.024777  0.078175
C    -0.462025  -0.563717  1.468954
O    0.502280  -0.790203  2.202170
H    0.795314  0.136536  -0.095919
H    -0.757495  1.010020  -0.011554
H    -0.701164  -0.623499  -0.702066
N    -1.739626  -0.828759  1.887039
C    -2.980101  -0.546271  1.188827
C    -3.775106  0.648098  1.782240
O    -4.894232  0.931609  1.354942
H    -1.808593  -1.221282  2.847303
H    -2.734165  -0.207382  0.173315
C    -3.886789  -1.792197  1.029982
C    -3.983264  -2.694468  2.265234
C    -4.578679  -2.027560  3.519253
N    -4.207125  -2.682920  4.768998
C    -2.925250  -2.540637  5.257103
N    -2.667529  -3.353213  6.363298
N    -2.082645  -1.741056  4.684163
H    -3.491803  -2.394343  0.199182
H    -4.877731  -1.429171  0.722421
H    -2.979603  -3.066130  2.516257
H    -4.581880  -3.581613  2.006760
H    -5.675115  -1.996678  3.464380
H    -4.241762  -0.988819  3.609058
H    -4.634803  -3.585523  4.947833
H    -1.789149  -3.158727  6.830656
H    -3.437816  -3.458218  7.017718
H    -1.207064  -1.665330  5.204656
N    -3.130568  1.348773  2.751403
C    -3.728312  2.479105  3.429970
H    -2.241975  0.977507  3.072461
H    -3.076161  3.361456  3.375901
H    -3.925823  2.250890  4.487772
H    -4.678121  2.702986  2.932142
