35
Energy: -21190.4071187 eV PBE+vdW (tier 2 basis)
C    -0.292949  1.840092  0.092374
C    0.015706  0.740216  1.088899
O    1.155884  0.319661  1.273858
H    0.650806  2.136308  -0.373667
H    -0.727727  2.720509  0.588652
H    -0.991733  1.499349  -0.688366
N    -1.043469  0.196195  1.778044
C    -2.430958  0.628334  1.793738
C    -2.745632  1.274628  3.155124
O    -2.603824  0.652337  4.205105
H    -0.769867  -0.464948  2.502359
H    -2.554948  1.365137  0.989768
C    -3.390216  -0.555882  1.556039
C    -3.294864  -1.147257  0.146742
C    -4.067129  -0.331890  -0.897771
N    -3.874865  -0.825841  -2.255462
C    -2.879533  -0.306801  -3.058518
N    -2.914956  -0.828942  -4.359852
N    -2.065491  0.586384  -2.604890
H    -4.420645  -0.221475  1.763542
H    -3.166573  -1.319530  2.314502
H    -3.683574  -2.176230  0.148661
H    -2.239632  -1.211851  -0.156765
H    -3.757552  0.724104  -0.868088
H    -5.143796  -0.368669  -0.676108
H    -4.697125  -1.158846  -2.742651
H    -2.099068  -0.595170  -4.915308
H    -3.131764  -1.821063  -4.414957
H    -1.334635  0.800751  -3.286479
N    -3.190887  2.563579  3.093885
C    -3.524963  3.336848  4.275519
H    -3.240303  3.009280  2.185954
H    -2.854665  4.200078  4.391257
H    -3.405079  2.677323  5.141587
H    -4.563288  3.693764  4.236276
