35
Energy: -21190.0940532 eV PBE+vdW (tier 2 basis)
C    1.154620  0.806839  0.562087
C    0.758996  -0.067826  1.738247
O    1.582485  -0.699119  2.394137
H    1.924225  1.514435  0.892690
H    0.319292  1.366437  0.122779
H    1.604199  0.171374  -0.211552
N    -0.584218  -0.094144  2.023632
C    -1.135961  -1.027059  3.011335
C    -2.592381  -1.370845  2.661574
O    -2.929827  -2.543769  2.517476
H    -1.219424  0.300887  1.340039
H    -0.603030  -1.981566  2.897065
C    -0.894879  -0.553280  4.465451
C    -1.423081  -1.512366  5.543120
C    -2.883716  -1.265587  5.915666
N    -3.332386  -2.219698  6.919074
C    -4.569123  -2.040673  7.513764
N    -4.905161  -3.047281  8.427147
N    -5.259328  -0.976119  7.274434
H    -1.310142  0.453400  4.617591
H    0.194154  -0.458089  4.561052
H    -1.291899  -2.552835  5.199716
H    -0.811188  -1.408038  6.450693
H    -3.536427  -1.305552  5.027771
H    -3.006450  -0.261771  6.344185
H    -3.069018  -3.182790  6.733747
H    -5.899234  -3.214802  8.527624
H    -4.361155  -3.903758  8.396568
H    -6.078475  -0.930707  7.885573
N    -3.495066  -0.352900  2.455389
C    -3.459639  1.021526  2.943426
H    -4.420478  -0.726585  2.256702
H    -3.844211  1.106336  3.971769
H    -4.076235  1.649055  2.288055
H    -2.439754  1.417430  2.922993
