35
Energy: -21190.5250684 eV PBE+vdW (tier 2 basis)
C    1.067361  -1.402592  0.001163
C    0.144813  -0.509403  0.809481
O    -0.378886  0.498190  0.333185
H    1.908365  -0.800093  -0.363816
H    0.523049  -1.769445  -0.877940
H    1.455649  -2.259483  0.564830
N    -0.077059  -0.909484  2.096187
C    -0.832295  -0.101938  3.030952
C    -0.401558  -0.546123  4.443431
O    0.405855  -1.460731  4.618226
H    0.486047  -1.638460  2.531879
H    -0.551038  0.955928  2.887342
C    -2.357652  -0.215086  2.827542
C    -2.917738  -1.629145  3.044640
C    -4.329893  -1.625990  3.630332
N    -4.306387  -1.101531  4.989002
C    -5.482829  -0.843138  5.687380
N    -5.234753  -0.500199  7.023620
N    -6.694857  -0.890527  5.258388
H    -2.581010  0.141894  1.813797
H    -2.858598  0.484537  3.514602
H    -2.262996  -2.207307  3.719004
H    -2.924684  -2.185750  2.098309
H    -4.755374  -2.645879  3.592228
H    -4.985245  -0.980452  3.024658
H    -3.565399  -1.489614  5.568017
H    -4.488412  0.178101  7.153005
H    -6.094050  -0.207832  7.480973
H    -6.749025  -1.292209  4.319784
N    -0.991613  0.131726  5.463675
C    -0.751868  -0.173230  6.861330
H    -1.681129  0.836404  5.230487
H    -1.666199  -0.532658  7.357481
H    -0.381200  0.708793  7.400696
H    0.005607  -0.962274  6.905130
