35
Energy: -21190.4909618 eV PBE+vdW (tier 2 basis)
C    0.940651  -0.027616  1.237491
C    0.707833  1.129221  2.188790
O    1.622046  1.705294  2.769742
H    2.019154  -0.155650  1.116979
H    0.516325  -0.958728  1.639956
H    0.480126  0.144955  0.255240
N    -0.600608  1.532267  2.374920
C    -1.812551  0.909108  1.860336
C    -2.192657  1.339032  0.429312
O    -3.074807  0.729795  -0.184482
H    -0.698556  2.244166  3.094329
H    -1.658002  -0.177275  1.784383
C    -2.998618  1.112524  2.828162
C    -3.414194  2.561396  3.128757
C    -4.301484  3.234067  2.071579
N    -5.578246  2.543240  1.911164
C    -6.296940  2.531562  0.707341
N    -5.511193  2.437489  -0.432660
N    -7.582604  2.587398  0.599635
H    -2.733427  0.606239  3.767410
H    -3.861698  0.576826  2.409596
H    -2.540022  3.211712  3.301768
H    -3.957236  2.563158  4.087198
H    -3.809086  3.258940  1.094738
H    -4.452934  4.290836  2.361241
H    -6.200695  2.652518  2.706699
H    -6.097294  2.306827  -1.251480
H    -4.731284  1.774313  -0.393414
H    -8.022514  2.798019  1.500195
N    -1.522953  2.398303  -0.077627
C    -1.808966  2.946639  -1.392219
H    -0.823193  2.831128  0.516166
H    -2.030756  2.126769  -2.085112
H    -0.935880  3.501003  -1.751754
H    -2.680992  3.617114  -1.370967
