35
Energy: -21190.2596018 eV PBE+vdW (tier 2 basis)
C    0.229374  0.189534  0.787372
C    -0.336938  -0.235413  2.127219
O    0.374886  -0.404251  3.112331
H    1.277440  -0.121174  0.750370
H    0.197751  1.285535  0.712588
H    -0.309538  -0.218024  -0.075611
N    -1.702679  -0.440235  2.220971
C    -2.747234  -0.131051  1.241462
C    -2.709024  -1.066737  0.001494
O    -3.146517  -0.702059  -1.087362
H    -1.996921  -0.603824  3.179709
H    -3.685646  -0.408900  1.749702
C    -2.854408  1.363231  0.846365
C    -4.266004  1.952714  0.964302
C    -5.272428  1.416719  -0.053187
N    -6.578076  2.018035  0.164143
C    -7.688122  1.577891  -0.551860
N    -8.818411  2.369231  -0.311045
N    -7.768782  0.581545  -1.363026
H    -2.483050  1.495044  -0.178983
H    -2.193107  1.930323  1.514415
H    -4.189863  3.046485  0.845885
H    -4.657498  1.781961  1.981133
H    -5.381359  0.327404  0.051908
H    -4.892780  1.586226  -1.077282
H    -6.567381  3.021473  0.327868
H    -9.640425  1.956073  -0.742382
H    -8.974000  2.594233  0.668219
H    -6.848961  0.183078  -1.565401
N    -2.220826  -2.311036  0.245965
C    -2.141221  -3.338988  -0.773253
H    -1.821300  -2.477867  1.163349
H    -2.656046  -4.253081  -0.448459
H    -1.096991  -3.586345  -1.012263
H    -2.629480  -2.954256  -1.674762
