35
Energy: -21190.2587415 eV PBE+vdW (tier 2 basis)
C    -1.192007  0.507549  -0.868306
C    -0.642627  0.300134  0.535201
O    0.513178  -0.059086  0.727044
H    -1.236711  -0.466359  -1.373108
H    -0.489251  1.133749  -1.429966
H    -2.187575  0.968002  -0.898549
N    -1.543238  0.569401  1.544011
C    -1.367387  0.239971  2.966285
C    -2.506970  0.846739  3.803663
O    -2.861635  0.322663  4.853970
H    -2.510092  0.644418  1.244013
H    -1.456310  -0.848245  3.112282
C    -0.005289  0.664167  3.561032
C    0.341134  2.146900  3.421731
C    1.746234  2.504272  3.931253
N    1.967083  2.280919  5.348140
C    2.564840  1.142156  5.875357
N    2.543135  1.149162  7.277345
N    3.095860  0.142139  5.262859
H    0.769352  0.059674  3.076636
H    -0.033638  0.373162  4.620426
H    -0.394613  2.768467  3.960106
H    0.290574  2.449116  2.363420
H    1.944747  3.565256  3.711474
H    2.504462  1.932823  3.377443
H    1.316675  2.743515  5.975416
H    3.085533  0.370153  7.640092
H    2.821710  2.031738  7.699012
H    2.929526  0.171893  4.255052
N    -3.064893  1.995484  3.309281
C    -4.060293  2.746576  4.051900
H    -2.599386  2.439996  2.524927
H    -4.823859  3.145260  3.372573
H    -3.611637  3.580483  4.613354
H    -4.529757  2.064826  4.768575
