35
Energy: -21190.4394145 eV PBE+vdW (tier 2 basis)
C    0.158347  0.072830  0.111753
C    0.164583  -0.064644  1.621614
O    1.201319  -0.116797  2.278213
H    1.189710  0.218067  -0.219122
H    -0.457787  0.918457  -0.223148
H    -0.241442  -0.834691  -0.363115
N    -1.062536  -0.113107  2.247511
C    -2.388026  -0.163133  1.643491
C    -3.057671  1.219239  1.447437
O    -4.140476  1.306183  0.873263
H    -0.993870  -0.280775  3.248832
H    -2.299378  -0.579620  0.629190
C    -3.319051  -1.083714  2.447474
C    -2.903031  -2.554577  2.412611
C    -3.846324  -3.438861  3.238794
N    -3.505296  -4.853923  3.237748
C    -3.827085  -5.647274  2.148541
N    -3.293302  -6.941328  2.263641
N    -4.516064  -5.174131  1.167401
H    -4.328418  -0.963784  2.031157
H    -3.366118  -0.717016  3.488965
H    -1.872542  -2.673213  2.786225
H    -2.912798  -2.916009  1.373672
H    -4.866937  -3.357309  2.842934
H    -3.865892  -3.100570  4.286592
H    -2.632757  -5.098727  3.695122
H    -3.640631  -7.587405  1.563019
H    -3.342208  -7.340086  3.198191
H    -4.776680  -5.910341  0.507595
N    -2.366496  2.279388  1.944189
C    -2.840763  3.644502  1.838739
H    -1.472417  2.082975  2.381442
H    -3.810288  3.619649  1.329413
H    -2.145657  4.263866  1.254691
H    -2.969249  4.097923  2.831358
