35
Energy: -21190.2160523 eV PBE+vdW (tier 2 basis)
C    -1.335236  -0.203186  -1.091377
C    -1.185572  -0.509067  0.388402
O    -0.256473  -1.173618  0.836434
H    -0.494310  0.428322  -1.405520
H    -2.273060  0.304771  -1.349383
H    -1.266392  -1.141275  -1.654773
N    -2.165097  0.001863  1.198664
C    -2.125349  -0.123295  2.648630
C    -2.106707  -1.562480  3.209605
O    -1.433751  -1.791373  4.213833
H    -2.907362  0.554161  0.785383
H    -1.166966  0.281488  3.004009
C    -3.291757  0.691655  3.245467
C    -3.408945  0.670543  4.772754
C    -2.188150  1.254500  5.505934
N    -2.360984  1.377046  6.941771
C    -3.129066  2.378308  7.516932
N    -3.310460  2.188801  8.892600
N    -3.664039  3.405746  6.948702
H    -4.238255  0.326596  2.813741
H    -3.173710  1.733624  2.902294
H    -3.569899  -0.359372  5.124547
H    -4.305889  1.240681  5.055619
H    -1.939575  2.250022  5.103607
H    -1.312767  0.614771  5.335497
H    -2.333471  0.503627  7.458095
H    -3.741639  3.009484  9.308585
H    -2.472184  1.906729  9.394327
H    -3.565350  3.368842  5.931939
N    -2.895054  -2.535647  2.664280
C    -3.736205  -2.528307  1.479521
H    -2.750962  -3.430628  3.122060
H    -4.367429  -1.633349  1.436342
H    -4.404790  -3.395555  1.532407
H    -3.157648  -2.596040  0.545848
