35
Energy: -21190.1376382 eV PBE+vdW (tier 2 basis)
C    -0.051856  1.595048  2.008742
C    -0.334653  0.515499  3.032679
O    0.346522  0.358147  4.043088
H    0.862551  2.114254  2.305803
H    -0.876023  2.320002  1.949383
H    0.079126  1.173371  1.002382
N    -1.402750  -0.317504  2.782000
C    -2.432491  -0.162620  1.766168
C    -3.378928  1.051681  1.943094
O    -3.730396  1.677717  0.943678
H    -1.554944  -0.998700  3.520718
H    -1.952739  0.050813  0.799499
C    -3.254996  -1.456742  1.606196
C    -2.593004  -2.555390  0.764141
C    -1.301004  -3.142749  1.333871
N    -0.839090  -4.236444  0.499813
C    0.399285  -4.834787  0.725159
N    0.591872  -5.960520  -0.084149
N    1.317617  -4.481036  1.554009
H    -4.204413  -1.186592  1.124011
H    -3.519269  -1.846546  2.604220
H    -2.394782  -2.169522  -0.247548
H    -3.327947  -3.369059  0.643646
H    -1.464365  -3.462277  2.383943
H    -0.513246  -2.376863  1.358164
H    -1.562813  -4.888314  0.208114
H    1.543645  -6.304999  0.005267
H    0.322713  -5.832510  -1.056280
H    1.004362  -3.736694  2.180891
N    -3.816418  1.407050  3.186801
C    -3.618606  0.771334  4.482826
H    -4.419936  2.223019  3.157120
H    -3.803752  -0.310216  4.441190
H    -4.350304  1.194223  5.180063
H    -2.614321  0.944817  4.892993
