35
Energy: -21190.4912121 eV PBE+vdW (tier 2 basis)
C    -1.330762  -1.597317  0.358957
C    -0.902815  -1.030578  1.694788
O    0.294391  -0.966171  2.016286
H    -0.524877  -1.455726  -0.367251
H    -2.253601  -1.144248  -0.025289
H    -1.502491  -2.675087  0.496186
N    -1.927804  -0.619124  2.490790
C    -1.963644  -0.267351  3.926295
C    -1.149394  0.961214  4.394403
O    -1.576240  1.608312  5.353112
H    -2.847817  -0.741096  2.084480
H    -2.998165  0.060798  4.086743
C    -1.735077  -1.483353  4.858062
C    -0.273396  -1.858585  5.135045
C    -0.093776  -3.330754  5.535762
N    -0.451839  -4.297025  4.495438
C    0.041877  -4.229649  3.200353
N    1.400827  -3.945724  3.085383
N    -0.750506  -4.503929  2.214386
H    -2.260995  -2.331687  4.394282
H    -2.246186  -1.268391  5.807649
H    0.131116  -1.218688  5.934049
H    0.338281  -1.666876  4.244534
H    -0.709073  -3.576291  6.413366
H    0.947198  -3.500330  5.856852
H    -1.426382  -4.580506  4.475880
H    1.625749  -3.343972  2.299469
H    1.874938  -3.653973  3.933692
H    -0.209389  -4.609820  1.351109
N    0.000358  1.232439  3.736057
C    0.869671  2.319752  4.140865
H    0.331284  0.533401  3.059126
H    1.360515  2.749458  3.259358
H    1.645088  1.985499  4.848365
H    0.267903  3.088791  4.636848
