35
Energy: -21190.2969492 eV PBE+vdW (tier 2 basis)
C    -0.007976  -0.226602  -0.220640
C    0.222642  -0.071368  1.274309
O    1.352701  -0.063262  1.756993
H    0.969058  -0.296644  -0.705420
H    -0.551657  0.633645  -0.637294
H    -0.587541  -1.129782  -0.455272
N    -0.884301  0.068746  2.070034
C    -2.279547  0.114989  1.687246
C    -3.009675  0.936203  2.773596
O    -2.513875  1.119759  3.883173
H    -0.708580  0.278733  3.053347
H    -2.384125  0.643409  0.725637
C    -2.926234  -1.287696  1.538815
C    -2.949867  -2.108082  2.827945
C    -3.488559  -3.517365  2.595365
N    -3.492049  -4.281281  3.831868
C    -4.263070  -5.423345  3.944706
N    -4.134156  -6.067750  5.182186
N    -5.073977  -5.759779  2.998934
H    -2.368240  -1.832699  0.762159
H    -3.950779  -1.170303  1.149396
H    -3.564398  -1.608580  3.591966
H    -1.926852  -2.159961  3.235887
H    -2.901517  -4.025982  1.807165
H    -4.525370  -3.495709  2.234632
H    -2.623935  -4.268746  4.356535
H    -4.302038  -7.066571  5.155477
H    -3.332852  -5.821171  5.754936
H    -5.659108  -6.548298  3.284940
N    -4.239555  1.393442  2.413803
C    -5.111697  2.113380  3.324443
H    -4.565342  1.209651  1.472426
H    -5.348284  3.113697  2.937259
H    -4.581208  2.217251  4.276290
H    -6.048419  1.564861  3.494666
