35
Energy: -21190.1183268 eV PBE+vdW (tier 2 basis)
C    0.126491  0.068965  0.732931
C    -0.266960  0.363730  2.168897
O    0.563990  0.606429  3.039363
H    1.217161  0.102276  0.672867
H    -0.289014  0.810883  0.036085
H    -0.220524  -0.921892  0.409561
N    -1.609056  0.360975  2.468893
C    -2.731663  0.004705  1.607748
C    -3.936887  0.913607  1.953079
O    -4.997218  0.459221  2.376936
H    -1.799890  0.524031  3.454626
H    -2.439729  0.249914  0.574618
C    -3.120070  -1.485073  1.637434
C    -3.294724  -2.119728  3.027539
C    -2.013328  -2.732138  3.596769
N    -2.280753  -3.355781  4.881016
C    -1.257206  -3.940867  5.620809
N    -1.744023  -4.642645  6.731436
N    0.009357  -3.909081  5.394273
H    -2.356690  -2.045920  1.074989
H    -4.056318  -1.580659  1.072174
H    -4.051674  -2.915867  2.945720
H    -3.712187  -1.390462  3.735671
H    -1.244288  -1.960142  3.744208
H    -1.599547  -3.456955  2.866273
H    -3.163241  -3.858230  4.931877
H    -0.975769  -4.939875  7.326514
H    -2.461152  -4.149401  7.257302
H    0.223963  -3.475321  4.493793
N    -3.765662  2.256576  1.765107
C    -2.616387  2.971342  1.233159
H    -4.577242  2.799968  2.041747
H    -1.805736  3.076855  1.967746
H    -2.942798  3.970898  0.925784
H    -2.212291  2.471823  0.342412
