35
Energy: -21190.229663 eV PBE+vdW (tier 2 basis)
C    1.133459  -0.262881  0.396863
C    0.377510  0.822140  1.137771
O    0.843093  1.954232  1.281376
H    0.571247  -1.198225  0.285377
H    2.067082  -0.469249  0.935526
H    1.405317  0.112144  -0.597114
N    -0.852412  0.464533  1.616886
C    -1.622789  1.347011  2.501799
C    -2.681396  0.566427  3.290532
O    -2.774419  0.707338  4.507329
H    -1.081622  -0.522735  1.616104
H    -0.948479  1.740631  3.272225
C    -2.229665  2.558978  1.751325
C    -2.777837  3.658047  2.672316
C    -1.713707  4.529975  3.351450
N    -0.915157  3.821298  4.350143
C    0.455793  4.018101  4.531854
N    1.163467  4.198972  3.349164
N    1.077296  4.018424  5.665240
H    -3.023271  2.217542  1.071356
H    -1.434218  2.977243  1.119014
H    -3.444955  3.225873  3.435814
H    -3.408561  4.328340  2.067826
H    -2.213714  5.403663  3.808891
H    -1.018803  4.926707  2.600839
H    -1.401116  3.617968  5.217879
H    2.158983  4.250496  3.543023
H    0.952517  3.530616  2.603565
H    0.414204  4.030812  6.445927
N    -3.509401  -0.313006  2.628242
C    -3.867611  -0.372316  1.216635
H    -4.169696  -0.740856  3.273512
H    -4.740466  0.258489  0.984284
H    -4.107727  -1.408250  0.944450
H    -3.035257  -0.043256  0.588071
