35
Energy: -21190.3324047 eV PBE+vdW (tier 2 basis)
C    0.095431  -0.692205  2.963051
C    0.687194  0.601818  3.480507
O    1.617264  0.605961  4.286576
H    -0.574727  -1.120852  3.725271
H    -0.459859  -0.589389  2.022220
H    0.918217  -1.401079  2.821668
N    0.168695  1.789641  3.022857
C    -1.035447  2.044623  2.259110
C    -0.978852  3.527095  1.838973
O    -0.340687  4.355827  2.485132
H    0.615355  2.632074  3.387857
H    -1.046491  1.422069  1.349043
C    -2.339155  1.756119  3.056074
C    -2.425515  2.505807  4.386784
C    -3.363621  1.852180  5.429662
N    -3.302755  0.400548  5.545426
C    -2.187318  -0.370760  5.853506
N    -1.132772  0.303215  6.445121
N    -2.096180  -1.652010  5.686014
H    -2.363234  0.673834  3.244959
H    -3.211054  1.978429  2.420424
H    -2.756150  3.543874  4.235058
H    -1.410439  2.591594  4.801367
H    -4.407878  2.086827  5.181644
H    -3.175924  2.310046  6.413627
H    -4.000205  -0.109753  5.020029
H    -0.295200  -0.269092  6.491570
H    -0.939645  1.247542  6.133331
H    -2.975950  -2.048036  5.344456
N    -1.722118  3.836840  0.741743
C    -1.855132  5.190679  0.234465
H    -2.179382  3.082319  0.243948
H    -1.451774  5.274247  -0.783948
H    -1.283260  5.848581  0.896714
H    -2.906034  5.511237  0.229812
