35
Energy: -21190.205773 eV PBE+vdW (tier 2 basis)
C    0.215110  -0.534755  0.993596
C    -0.055338  -0.363186  2.478799
O    0.828051  -0.514294  3.318618
H    1.283726  -0.731362  0.875613
H    -0.047659  0.359340  0.412964
H    -0.349297  -1.378773  0.575823
N    -1.331430  -0.027060  2.867075
C    -2.543209  0.124139  2.063987
C    -3.242898  1.421623  2.534808
O    -4.146164  1.394762  3.367474
H    -1.442373  0.032152  3.877555
H    -2.231242  0.234323  1.016732
C    -3.507117  -1.064289  2.185375
C    -2.916102  -2.392672  1.716529
C    -3.897832  -3.550753  1.886643
N    -3.304633  -4.799331  1.439616
C    -4.066223  -5.962452  1.352575
N    -3.283684  -7.082094  1.050704
N    -5.336043  -6.098662  1.516739
H    -4.410948  -0.826008  1.603023
H    -3.838765  -1.133567  3.231623
H    -1.998835  -2.610886  2.288169
H    -2.623922  -2.334021  0.655630
H    -4.796220  -3.363060  1.278337
H    -4.231644  -3.602900  2.941550
H    -2.353664  -4.956495  1.763523
H    -3.870134  -7.891384  0.868298
H    -2.595055  -6.933839  0.317751
H    -5.765669  -5.243496  1.876044
N    -2.790280  2.599271  2.011091
C    -1.651721  2.817800  1.134818
H    -3.234169  3.413467  2.424749
H    -0.696131  2.562210  1.616377
H    -1.624224  3.878258  0.863546
H    -1.742360  2.246212  0.200434
