35
Energy: -21190.3615943 eV PBE+vdW (tier 2 basis)
C    -0.673652  -1.311729  0.471226
C    -1.055111  -0.925855  1.885024
O    -0.274947  -1.092744  2.817463
H    -0.531564  -2.400586  0.449284
H    0.294096  -0.853825  0.237938
H    -1.398654  -1.041110  -0.299548
N    -2.336765  -0.464286  2.147035
C    -3.353179  0.148055  1.280203
C    -3.894205  -0.791980  0.177556
O    -4.406276  -0.357792  -0.856621
H    -2.420727  -0.228732  3.133673
H    -4.233351  0.238976  1.941044
C    -3.059104  1.597225  0.834689
C    -1.825243  1.924418  -0.013990
C    -1.882955  1.540553  -1.505997
N    -3.101935  1.923095  -2.195074
C    -3.355011  3.239427  -2.508960
N    -4.660163  3.433710  -2.993917
N    -2.460713  4.154535  -2.324318
H    -2.988241  2.181342  1.764841
H    -3.960835  1.965360  0.323777
H    -0.914657  1.494676  0.431577
H    -1.692749  3.014421  0.028843
H    -1.774576  0.457053  -1.646738
H    -1.039657  2.023869  -2.016304
H    -3.901496  1.332765  -1.971055
H    -4.792256  4.328393  -3.453107
H    -5.023442  2.667066  -3.555077
H    -2.771334  5.052544  -2.702019
N    -3.860077  -2.111187  0.494407
C    -4.369361  -3.149862  -0.378299
H    -3.395727  -2.362038  1.361090
H    -5.105443  -3.774923  0.144666
H    -3.558320  -3.793048  -0.749240
H    -4.854241  -2.663605  -1.230996
