35
Energy: -21190.5741762 eV PBE+vdW (tier 2 basis)
C    0.230233  -0.550049  -0.496219
C    -0.344962  -0.075442  0.822326
O    -0.754820  1.078369  1.001786
H    1.088374  -1.220039  -0.354613
H    0.540852  0.323184  -1.077304
H    -0.541884  -1.099795  -1.057991
N    -0.404631  -1.024007  1.797748
C    -0.840460  -0.760707  3.154679
C    -0.430316  -1.989720  3.979298
O    -0.194869  -3.069505  3.430497
H    -0.071464  -1.973222  1.639095
H    -0.306631  0.134583  3.515154
C    -2.353829  -0.455114  3.304010
C    -3.341472  -1.602496  3.053400
C    -3.452994  -2.102426  1.606619
N    -3.698446  -1.014933  0.684574
C    -3.228259  -0.975110  -0.608386
N    -3.220477  0.319686  -1.136323
N    -2.823753  -1.972415  -1.327207
H    -2.555811  0.389425  2.631885
H    -2.520540  -0.073395  4.321568
H    -4.336177  -1.259044  3.382788
H    -3.102291  -2.469020  3.688883
H    -4.250600  -2.866512  1.562711
H    -2.521316  -2.601588  1.303888
H    -4.153201  -0.178741  1.029837
H    -2.867643  0.308863  -2.089292
H    -2.712191  0.990353  -0.558477
H    -3.035306  -2.865733  -0.875246
N    -0.366727  -1.863240  5.333736
C    -0.559442  -0.683435  6.159161
H    -0.149954  -2.738533  5.801224
H    0.078283  -0.760232  7.047727
H    -1.602508  -0.566737  6.491047
H    -0.264340  0.222924  5.618641
