35
Energy: -21190.3759176 eV PBE+vdW (tier 2 basis)
C    -0.145345  0.057774  -0.020989
C    -0.128143  0.118187  1.496660
O    0.900271  0.313404  2.133936
H    0.471339  -0.790248  -0.345040
H    0.320639  0.969385  -0.413505
H    -1.148839  -0.044733  -0.452802
N    -1.353624  -0.049500  2.101803
C    -1.480875  -0.205350  3.556729
C    -2.844623  -0.817020  3.899259
O    -2.960288  -1.755833  4.690062
H    -2.103139  -0.419111  1.527379
H    -0.724336  -0.917396  3.911605
C    -1.272495  1.141882  4.293354
C    -1.526708  1.131175  5.808900
C    -0.522294  0.362401  6.670801
N    -0.597691  -1.069985  6.446065
C    0.275860  -1.927876  7.070543
N    -0.066195  -3.278259  6.881697
N    1.260911  -1.470797  7.770346
H    -1.931559  1.890629  3.823768
H    -0.241191  1.458996  4.087877
H    -2.548117  0.773126  6.025687
H    -1.506508  2.176478  6.150651
H    -0.699367  0.604361  7.734419
H    0.504852  0.691331  6.453981
H    -1.498966  -1.450581  6.162666
H    0.701654  -3.918732  7.050221
H    -0.544456  -3.482135  6.006973
H    1.851193  -2.232766  8.112196
N    -3.916503  -0.232677  3.288556
C    -5.287787  -0.621695  3.568799
H    -3.754046  0.618856  2.761436
H    -5.858763  -0.720349  2.637011
H    -5.789826  0.108414  4.220169
H    -5.262349  -1.587225  4.083543
