35
Energy: -21190.1656848 eV PBE+vdW (tier 2 basis)
C    -2.667928  0.383477  0.433357
C    -1.781910  0.399949  1.668328
O    -0.571355  0.587750  1.603045
H    -2.329615  -0.423755  -0.228231
H    -2.532883  1.327307  -0.109005
H    -3.734901  0.243524  0.647744
N    -2.436346  0.215067  2.857592
C    -1.770062  0.081540  4.154576
C    -0.645110  1.131684  4.365825
O    0.483499  0.798658  4.709008
H    -3.426555  0.004710  2.826164
H    -2.545681  0.305238  4.908125
C    -1.248044  -1.340570  4.408006
C    -1.105554  -1.674704  5.893900
C    -0.487921  -3.055299  6.156468
N    -1.159559  -4.185660  5.523871
C    -2.378766  -4.645125  5.975949
N    -2.902843  -5.658993  5.149961
N    -2.935101  -4.140252  7.025372
H    -0.284354  -1.448406  3.888995
H    -1.962361  -2.036080  3.941049
H    -2.089621  -1.633370  6.384585
H    -0.458384  -0.929652  6.378356
H    -0.479986  -3.245181  7.237375
H    0.554873  -3.069198  5.806891
H    -0.992097  -4.309534  4.531936
H    -3.708747  -6.124766  5.553937
H    -2.213535  -6.333450  4.824885
H    -3.763468  -4.676235  7.294541
N    -0.986990  2.453791  4.266953
C    -2.234967  3.059521  3.845230
H    -0.181940  3.063524  4.369936
H    -2.269738  4.087717  4.225374
H    -3.095769  2.526573  4.267490
H    -2.349691  3.090057  2.749989
