35
Energy: -21190.2167117 eV PBE+vdW (tier 2 basis)
C    0.484783  -0.854057  0.111600
C    0.358595  -0.175403  1.463186
O    1.231552  0.559371  1.915695
H    0.683334  -0.089832  -0.649302
H    -0.401728  -1.429888  -0.182068
H    1.353003  -1.524706  0.136733
N    -0.806051  -0.432577  2.144179
C    -1.007007  0.029049  3.519789
C    -2.052296  -0.858057  4.216937
O    -1.784918  -1.514558  5.217085
H    -1.424034  -1.152560  1.788398
H    -0.070590  -0.125705  4.073481
C    -1.365262  1.527358  3.578598
C    -1.528397  2.040541  5.009184
C    -1.851909  3.530858  5.057581
N    -1.988174  3.974315  6.444406
C    -2.471099  5.231595  6.797006
N    -2.240806  6.220424  5.842203
N    -3.092079  5.542486  7.884303
H    -2.284128  1.713476  2.997057
H    -0.557317  2.071453  3.069802
H    -0.604981  1.849024  5.577846
H    -2.329496  1.480400  5.521306
H    -2.769792  3.738351  4.476919
H    -1.035333  4.085673  4.567800
H    -2.294452  3.247584  7.083434
H    -2.441559  7.140541  6.222066
H    -1.345837  6.177886  5.364179
H    -3.311103  4.711639  8.440539
N    -3.289394  -0.861249  3.626240
C    -4.413125  -1.595710  4.180733
H    -3.472808  -0.182391  2.895491
H    -4.973282  -2.100595  3.383718
H    -5.097906  -0.937661  4.736252
H    -4.013435  -2.342716  4.874101
