35
Energy: -21190.5169483 eV PBE+vdW (tier 2 basis)
C    -0.478590  -0.457364  1.044278
C    -0.370939  -0.357031  2.551018
O    0.700306  -0.093819  3.111770
H    0.229324  -1.215373  0.687203
H    -0.176725  0.502750  0.607256
H    -1.485026  -0.709307  0.688378
N    -1.521548  -0.570932  3.246877
C    -1.622283  -0.445220  4.701862
C    -1.153154  -1.738875  5.432722
O    -1.910099  -2.426130  6.118651
H    -2.347272  -0.867457  2.740678
H    -0.906290  0.343899  4.979633
C    -3.026067  -0.004950  5.126817
C    -4.185116  -0.881785  4.634139
C    -5.533694  -0.484696  5.234821
N    -5.923541  0.859619  4.837398
C    -7.029504  1.484606  5.406698
N    -7.324302  2.702773  4.781424
N    -7.763246  1.076355  6.382498
H    -3.175335  1.034717  4.802169
H    -3.042171  0.002689  6.225869
H    -3.987449  -1.927561  4.902857
H    -4.275522  -0.843812  3.532405
H    -5.455318  -0.506393  6.332627
H    -6.296651  -1.234490  4.952050
H    -5.810734  1.058902  3.846599
H    -8.054282  3.194951  5.288960
H    -6.515034  3.294690  4.611876
H    -7.534832  0.117275  6.652824
N    0.166545  -1.997304  5.247953
C    0.822219  -3.165631  5.800228
H    0.683894  -1.356399  4.639059
H    1.690894  -2.875620  6.407074
H    1.161568  -3.847410  5.006649
H    0.101974  -3.691669  6.435679
