35
Energy: -21190.0488358 eV PBE+vdW (tier 2 basis)
C    -0.943515  -0.999612  -0.474084
C    -1.025283  -0.957533  1.041774
O    -0.120194  -1.406452  1.746030
H    -1.170717  -2.024161  -0.802284
H    0.082722  -0.771019  -0.780005
H    -1.636358  -0.314037  -0.978120
N    -2.188370  -0.421952  1.528352
C    -2.718846  -0.361843  2.898552
C    -2.682876  1.055510  3.530473
O    -3.732709  1.514135  3.985249
H    -2.831109  -0.074959  0.826116
H    -3.802731  -0.512118  2.789975
C    -2.226224  -1.429005  3.899474
C    -2.840054  -2.826917  3.729978
C    -2.425194  -3.584704  2.470405
N    -2.937895  -4.954152  2.511413
C    -2.833171  -5.822056  1.427829
N    -1.772592  -5.539937  0.567772
N    -3.606538  -6.819591  1.159183
H    -2.523275  -1.058150  4.891196
H    -1.132488  -1.492294  3.892000
H    -3.940548  -2.743903  3.763040
H    -2.548872  -3.430798  4.604020
H    -1.327281  -3.599754  2.417845
H    -2.781586  -3.060241  1.566995
H    -3.818351  -5.057933  3.006381
H    -1.612485  -6.312157  -0.071719
H    -0.920087  -5.199941  1.002433
H    -4.408907  -6.851441  1.793789
N    -1.519829  1.758920  3.607775
C    -0.178404  1.432152  3.155013
H    -1.661168  2.672939  4.028833
H    -0.026963  0.350294  3.092573
H    0.548723  1.836182  3.870400
H    0.036670  1.859700  2.162830
