35
Energy: -21190.5980088 eV PBE+vdW (tier 2 basis)
C    1.406781  -1.971932  0.572914
C    -0.061247  -2.206599  0.879852
O    -0.810018  -2.791137  0.095455
H    1.483648  -1.407126  -0.364413
H    1.893350  -2.941809  0.410429
H    1.940868  -1.431663  1.363941
N    -0.485243  -1.738959  2.089346
C    -1.876011  -1.771623  2.494308
C    -2.029321  -0.674827  3.566788
O    -1.046055  -0.088767  4.032612
H    0.095402  -1.124289  2.659557
H    -2.499574  -1.499340  1.626119
C    -2.321657  -3.187244  2.936638
C    -1.572789  -3.769321  4.146837
C    -2.284895  -3.618864  5.498879
N    -3.568095  -4.313287  5.544424
C    -4.790564  -3.672163  5.409805
N    -5.815556  -4.526813  4.998249
N    -5.062128  -2.422622  5.597375
H    -2.166746  -3.823935  2.056313
H    -3.407686  -3.189523  3.116511
H    -0.570416  -3.320010  4.223158
H    -1.395078  -4.843397  3.977417
H    -2.454972  -2.560504  5.735802
H    -1.637780  -4.007966  6.299714
H    -3.540453  -5.241992  5.133179
H    -5.766943  -5.475013  5.359251
H    -6.726839  -4.105618  5.152146
H    -4.223013  -1.909400  5.870985
N    -3.295539  -0.380362  3.942916
C    -3.571379  0.614079  4.967688
H    -4.058177  -0.987701  3.659316
H    -4.642357  0.594680  5.190278
H    -3.288536  1.617186  4.622745
H    -3.004980  0.407859  5.887466
