35
Energy: -21190.3921345 eV PBE+vdW (tier 2 basis)
C    -0.121435  -0.346041  0.939754
C    -1.158951  -1.401309  1.256317
O    -0.843080  -2.518559  1.662925
H    0.856337  -0.835431  0.941000
H    -0.120378  0.433324  1.714698
H    -0.310237  0.121833  -0.033474
N    -2.502045  -1.099205  1.127448
C    -3.235371  0.031073  0.553486
C    -3.153153  0.060010  -0.993770
O    -2.081206  0.144141  -1.595243
H    -3.068769  -1.920438  1.319360
H    -4.275313  -0.182322  0.822701
C    -2.856646  1.405582  1.145505
C    -3.865097  2.520822  0.825142
C    -5.057104  2.659137  1.798107
N    -5.786557  1.444970  2.151834
C    -6.476181  0.686209  1.229495
N    -6.813041  -0.584777  1.694229
N    -6.773211  1.000365  0.008027
H    -1.875087  1.698086  0.753579
H    -2.739665  1.289335  2.235040
H    -4.222060  2.405375  -0.208811
H    -3.346947  3.491219  0.843349
H    -5.771292  3.395477  1.397571
H    -4.697845  3.075232  2.749344
H    -5.407301  0.928122  2.937558
H    -7.490153  -1.035915  1.086415
H    -7.072586  -0.644455  2.674274
H    -6.412367  1.925039  -0.234333
N    -4.353197  -0.014183  -1.625004
C    -4.446527  0.058796  -3.072514
H    -5.218853  0.057928  -1.082029
H    -5.503334  0.018654  -3.355754
H    -3.915749  -0.781269  -3.539730
H    -4.001763  0.987848  -3.458079
