35
Energy: -21190.2217461 eV PBE+vdW (tier 2 basis)
C    -0.038396  1.455318  -0.703840
C    0.086793  1.061685  0.756627
O    0.724939  0.078274  1.121394
H    0.967186  1.547422  -1.131436
H    -0.583220  2.393738  -0.866408
H    -0.550227  0.647549  -1.242267
N    -0.552253  1.891881  1.645575
C    -0.671662  1.536146  3.061380
C    -1.877082  2.219981  3.717363
O    -2.634662  1.559788  4.436430
H    -1.206714  2.566972  1.268706
H    -0.895766  0.461405  3.114919
C    0.650746  1.753103  3.846475
C    0.696759  1.033941  5.210248
C    0.547596  1.931632  6.447129
N    -0.690725  2.689859  6.465219
C    -0.864672  4.051632  6.521250
N    0.297876  4.823229  6.550135
N    -2.007373  4.665146  6.577535
H    0.846454  2.828955  3.968996
H    1.442805  1.356186  3.200509
H    1.652844  0.499642  5.309483
H    -0.079815  0.253991  5.241086
H    1.390201  2.631186  6.514678
H    0.615518  1.300089  7.350221
H    -1.542493  2.163310  6.290757
H    1.049491  4.552618  5.924123
H    0.068834  5.810829  6.497139
H    -2.768116  3.994695  6.722151
N    -2.107614  3.548579  3.498785
C    -1.197420  4.589449  3.037342
H    -2.875224  3.888144  4.076317
H    -0.918576  5.241955  3.876610
H    -1.679529  5.205616  2.264789
H    -0.288926  4.157143  2.611138
