35
Energy: -21190.4156611 eV PBE+vdW (tier 2 basis)
C    -1.036931  0.009601  -0.343373
C    -0.861600  -0.106502  1.158221
O    0.199281  0.182917  1.714573
H    -0.807549  1.038873  -0.645138
H    -2.043594  -0.250085  -0.692902
H    -0.307212  -0.646285  -0.834481
N    -1.963172  -0.533957  1.845890
C    -1.946520  -0.770224  3.283592
C    -1.742527  -2.280295  3.530643
O    -2.635260  -3.082971  3.252266
H    -2.761866  -0.885407  1.328536
H    -1.099368  -0.187265  3.660724
C    -3.258057  -0.294076  3.924285
C    -3.340815  -0.488571  5.441944
C    -2.291858  0.303995  6.234621
N    -2.455669  0.224845  7.680499
C    -3.400878  1.014102  8.315425
N    -3.536385  0.683309  9.674234
N    -4.060517  1.910446  7.665090
H    -4.087574  -0.842601  3.453342
H    -3.384339  0.770579  3.675282
H    -3.260501  -1.560816  5.684542
H    -4.333698  -0.160555  5.778811
H    -2.351700  1.367191  5.967453
H    -1.273420  -0.040852  6.002179
H    -2.344417  -0.700551  8.083261
H    -4.096063  1.347103  10.198777
H    -2.661222  0.474964  10.149205
H    -4.623523  2.485701  8.295490
N    -0.549589  -2.685936  4.047495
C    0.635499  -1.892023  4.349473
H    -0.495746  -3.691975  4.178630
H    0.780735  -1.103325  3.600731
H    1.511030  -2.550451  4.316024
H    0.590825  -1.440206  5.353167
