35
Energy: -21190.5560334 eV PBE+vdW (tier 2 basis)
C    -0.563155  -0.364554  -0.115015
C    -0.202400  -0.114420  1.334424
O    0.963833  0.107921  1.685789
H    0.015720  -1.220895  -0.482293
H    -0.263481  0.509990  -0.706062
H    -1.630761  -0.555639  -0.278240
N    -1.233924  -0.146312  2.220368
C    -1.088794  0.136861  3.650579
C    -0.624088  -1.130175  4.424106
O    -1.344691  -1.720077  5.226334
H    -2.157544  -0.406161  1.891976
H    -0.279957  0.881534  3.728730
C    -2.386317  0.709166  4.211155
C    -2.668644  2.136647  3.736613
C    -4.020699  2.679473  4.215178
N    -4.157966  2.688964  5.666509
C    -5.004173  1.803335  6.310019
N    -5.066738  2.046911  7.692712
N    -5.652246  0.906739  5.649955
H    -2.324890  0.681019  5.306389
H    -3.227510  0.042825  3.961991
H    -2.657018  2.188327  2.635196
H    -1.859562  2.802033  4.082428
H    -4.838278  2.060532  3.820393
H    -4.163600  3.702814  3.837450
H    -4.022295  3.576001  6.135313
H    -5.539310  1.311772  8.208083
H    -4.172367  2.278346  8.119377
H    -6.152058  0.272748  6.276155
N    0.651591  -1.490855  4.119221
C    1.274853  -2.684126  4.654326
H    1.118263  -0.955546  3.381811
H    2.250989  -2.448197  5.099637
H    1.420930  -3.448076  3.875879
H    0.616595  -3.092479  5.428617
