35
Energy: -21190.3161861 eV PBE+vdW (tier 2 basis)
C    -0.237919  0.538638  0.095177
C    0.013766  0.216561  1.559843
O    1.152091  0.095779  2.006602
H    0.715146  0.839533  -0.347949
H    -0.982213  1.330029  -0.063696
H    -0.589149  -0.364263  -0.427370
N    -1.082117  0.050805  2.368326
C    -2.496004  0.071682  2.001615
C    -3.235820  0.687562  3.210437
O    -3.513589  0.003084  4.194733
H    -0.857763  -0.243720  3.316737
H    -2.606935  0.724213  1.129438
C    -3.068362  -1.318461  1.682546
C    -4.489052  -1.267328  1.094758
C    -4.561140  -1.257921  -0.440932
N    -3.792722  -0.224920  -1.126294
C    -4.199150  1.088494  -1.166577
N    -3.261133  1.923114  -1.803233
N    -5.305838  1.457647  -0.612091
H    -3.065004  -1.894216  2.617800
H    -2.376000  -1.828933  0.993573
H    -5.030895  -0.392157  1.481240
H    -5.057925  -2.145431  1.433620
H    -5.608367  -1.142356  -0.749564
H    -4.203865  -2.221775  -0.833496
H    -2.801305  -0.390854  -1.247361
H    -3.622050  2.849470  -2.006539
H    -2.811225  1.516503  -2.620573
H    -5.528903  2.428915  -0.841774
N    -3.511452  2.018909  3.156474
C    -3.190005  2.954836  2.089594
H    -3.950520  2.377858  3.998296
H    -3.494274  3.956386  2.411661
H    -3.732648  2.716283  1.164082
H    -2.110233  2.985107  1.883523
