35
Energy: -21190.7794678 eV PBE+vdW (tier 2 basis)
C    -1.279640  -1.103676  0.726387
C    -0.750617  -0.416153  1.965129
O    0.441807  -0.112104  2.103110
H    -2.199345  -1.668521  0.925917
H    -0.508141  -1.773206  0.332827
H    -1.491757  -0.346194  -0.041196
N    -1.695952  -0.132787  2.911972
C    -1.327901  0.472495  4.188860
C    -0.883570  -0.630267  5.182326
O    -1.582616  -1.040758  6.118918
H    -2.567109  -0.662544  2.852303
H    -0.418819  1.049055  3.964921
C    -2.367575  1.471234  4.744386
C    -3.875775  1.250491  4.531502
C    -4.582289  0.188042  5.388526
N    -4.242511  -1.201466  5.080648
C    -4.449433  -1.749575  3.830585
N    -5.562724  -1.272341  3.142898
N    -3.692373  -2.624376  3.237007
H    -2.130218  2.438902  4.279547
H    -2.162737  1.588532  5.819352
H    -4.089361  1.057815  3.468956
H    -4.364911  2.212734  4.752773
H    -5.670459  0.333818  5.307607
H    -4.334667  0.334842  6.449039
H    -3.343367  -1.458727  5.498283
H    -6.369654  -1.040633  3.712719
H    -5.789019  -1.864600  2.350331
H    -2.871157  -2.834006  3.812101
N    0.352789  -1.108087  4.903018
C    0.945167  -2.228189  5.608042
H    0.791230  -0.759999  4.045913
H    0.351906  -2.419997  6.507883
H    1.977758  -1.995235  5.898198
H    0.951039  -3.136518  4.987212
