35
Energy: -21190.3658227 eV PBE+vdW (tier 2 basis)
C    1.537460  -0.468614  1.346602
C    0.847472  0.883259  1.427674
O    1.450610  1.930427  1.210990
H    2.606043  -0.291580  1.200182
H    1.158602  -1.053726  0.495589
H    1.393257  -1.065707  2.258039
N    -0.483140  0.900217  1.782342
C    -1.383448  -0.231487  1.752335
C    -1.878144  -0.524438  0.310871
O    -1.972245  0.344811  -0.557327
H    -0.913811  1.819285  1.625296
H    -0.819357  -1.118902  2.075816
C    -2.547177  -0.068040  2.775091
C    -3.235643  1.301911  2.840864
C    -4.103867  1.677044  1.618300
N    -4.236127  3.107144  1.376402
C    -3.138266  3.921166  1.119728
N    -2.054513  3.266701  0.528768
N    -3.193730  5.159862  1.476317
H    -2.121330  -0.279929  3.766511
H    -3.290507  -0.859078  2.583582
H    -2.475949  2.082112  2.988638
H    -3.855133  1.328662  3.749777
H    -5.119069  1.273574  1.736431
H    -3.708497  1.208247  0.709318
H    -4.904693  3.604057  1.957566
H    -1.334221  3.883702  0.170370
H    -2.233289  2.468835  -0.083424
H    -2.376396  5.679431  1.147468
N    -2.200343  -1.828253  0.086649
C    -2.736364  -2.309563  -1.174067
H    -2.066078  -2.491253  0.841078
H    -2.090267  -3.084869  -1.607462
H    -3.748202  -2.718604  -1.046360
H    -2.779138  -1.457757  -1.860386
