35
Energy: -21190.1677267 eV PBE+vdW (tier 2 basis)
C    -0.726237  -0.101655  0.426845
C    -0.525273  -0.297772  1.921776
O    0.329038  -1.071358  2.353647
H    -1.098638  -1.041937  -0.000144
H    0.247239  0.103368  -0.033662
H    -1.424976  0.703040  0.166150
N    -1.364099  0.445319  2.708053
C    -1.549341  0.449452  4.166727
C    -0.983647  1.702213  4.881913
O    -1.728596  2.333421  5.634915
H    -2.008184  1.047367  2.209286
H    -2.630301  0.584172  4.315700
C    -1.169941  -0.839983  4.911870
C    -1.993906  -2.055267  4.486932
C    -1.755096  -3.277702  5.379776
N    -2.110213  -3.047560  6.778185
C    -3.416084  -3.203931  7.205284
N    -3.536473  -3.073470  8.600350
N    -4.355949  -3.472558  6.365024
H    -1.364647  -0.633728  5.975202
H    -0.099222  -1.055409  4.807822
H    -1.745165  -2.342171  3.455291
H    -3.067353  -1.814385  4.509152
H    -0.690635  -3.551902  5.356641
H    -2.334952  -4.127404  4.989434
H    -1.406593  -3.287904  7.465266
H    -4.498339  -3.006808  8.916094
H    -2.964311  -2.335446  9.004335
H    -5.270931  -3.471817  6.821093
N    0.314475  2.080020  4.709100
C    1.369735  1.506856  3.891348
H    0.530910  2.927467  5.226116
H    2.329280  1.631888  4.408620
H    1.441355  1.995930  2.906544
H    1.212550  0.436738  3.723195
