35
Energy: -21189.972644 eV PBE+vdW (tier 2 basis)
C    -0.967184  -0.799674  0.050487
C    -0.247854  -0.566305  1.358061
O    0.728090  -1.234675  1.692225
H    -0.478246  -1.636072  -0.455247
H    -0.923669  0.084290  -0.598109
H    -2.021049  -1.046227  0.223744
N    -0.660502  0.460686  2.191762
C    -1.845080  1.308510  2.220332
C    -3.124640  0.517823  2.591175
O    -3.254514  -0.677639  2.353354
H    -0.127854  0.437455  3.056355
H    -1.646203  1.994417  3.055350
C    -2.043640  2.207485  0.957590
C    -3.217347  1.882673  0.027629
C    -3.113812  2.628433  -1.311071
N    -1.984418  2.195211  -2.120541
C    -2.068191  1.082889  -2.957864
N    -0.902263  0.904249  -3.707721
N    -3.050665  0.265012  -3.101436
H    -1.107277  2.162287  0.385830
H    -2.140456  3.252160  1.291179
H    -4.174559  2.156823  0.497354
H    -3.273088  0.803568  -0.166458
H    -2.988359  3.705672  -1.128164
H    -4.059386  2.519079  -1.871071
H    -1.376510  2.929202  -2.465786
H    -0.930820  0.022996  -4.212578
H    -0.037770  1.016329  -3.184419
H    -3.884871  0.573485  -2.597493
N    -4.119785  1.226544  3.213385
C    -4.174208  2.643572  3.525415
H    -4.954032  0.671577  3.379209
H    -4.371387  3.271815  2.641715
H    -3.243033  2.989109  3.993630
H    -4.981750  2.812538  4.245974
