35
Energy: -21190.3942545 eV PBE+vdW (tier 2 basis)
C    0.136366  0.446883  -0.659199
C    0.071258  0.412828  0.856262
O    0.894101  0.995133  1.564241
H    1.106675  0.047536  -0.979289
H    0.088176  1.491503  -0.991141
H    -0.665139  -0.120938  -1.147170
N    -0.970856  -0.295006  1.380214
C    -1.119742  -0.498367  2.807478
C    -1.929429  -1.789957  2.981899
O    -2.617100  -2.234674  2.057004
H    -1.573388  -0.875430  0.800368
H    -0.108435  -0.608724  3.230078
C    -1.788528  0.701604  3.532379
C    -3.305038  0.856984  3.371853
C    -3.791939  1.179412  1.950371
N    -5.219244  1.496089  1.871256
C    -5.790527  2.604439  2.494047
N    -4.956716  3.721044  2.553475
N    -6.977670  2.683806  2.992954
H    -1.268194  1.604060  3.180294
H    -1.557339  0.627197  4.604939
H    -3.629643  1.675994  4.030760
H    -3.823305  -0.049059  3.727059
H    -3.625248  0.329449  1.277759
H    -3.205742  2.013235  1.536926
H    -5.821876  0.680653  1.917459
H    -5.477942  4.540633  2.849776
H    -4.392209  3.892596  1.726667
H    -7.433980  1.767573  3.012558
N    -1.894429  -2.409574  4.192128
C    -1.149165  -2.045877  5.385305
H    -2.511353  -3.214864  4.244300
H    -0.199972  -1.567065  5.119849
H    -0.914204  -2.955303  5.950547
H    -1.712226  -1.364964  6.041559
