35
Energy: -21190.5518868 eV PBE+vdW (tier 2 basis)
C    -0.310901  -0.109626  -0.673614
C    -0.146658  0.160319  0.806259
O    0.963838  0.347275  1.317518
H    0.119445  0.730595  -1.232544
H    -1.353438  -0.248260  -0.984394
H    0.264561  -1.005821  -0.936473
N    -1.294926  0.190201  1.540818
C    -1.308828  0.486447  2.972372
C    -0.982496  -0.783011  3.803413
O    -1.833163  -1.404442  4.450088
H    -2.175576  -0.042694  1.095531
H    -0.480712  1.193565  3.130695
C    -2.639833  1.150533  3.347328
C    -2.872364  1.390531  4.848700
C    -1.662008  1.947342  5.619829
N    -1.838932  1.985465  7.059481
C    -1.660531  0.910129  7.922740
N    -1.134096  -0.241088  7.341146
N    -1.863691  0.930958  9.199645
H    -3.467892  0.528145  2.972414
H    -2.683871  2.102453  2.795539
H    -3.178457  0.445314  5.312644
H    -3.719506  2.083795  4.965014
H    -1.424366  2.966447  5.275862
H    -0.762905  1.345555  5.425458
H    -2.404552  2.735081  7.436661
H    -1.095682  -0.984092  8.032474
H    -1.533791  -0.560898  6.458523
H    -2.109936  1.871430  9.521064
N    0.324933  -1.122411  3.766066
C    0.839714  -2.280084  4.475362
H    0.923062  -0.600594  3.121153
H    1.870634  -2.459928  4.154858
H    0.232527  -3.170268  4.264012
H    0.829198  -2.110386  5.561576
