35
Energy: -21190.3814692 eV PBE+vdW (tier 2 basis)
C    -0.688108  -1.189618  1.396480
C    -0.754545  -0.058389  2.402849
O    -0.051501  -0.026884  3.410466
H    -0.635848  -0.826682  0.361692
H    -1.576709  -1.834011  1.473818
H    0.193813  -1.794005  1.623142
N    -1.643795  0.963035  2.138142
C    -2.754673  0.937094  1.191431
C    -2.450034  1.560650  -0.188121
O    -3.267726  1.463408  -1.100213
H    -1.693005  1.640514  2.896159
H    -3.005344  -0.110048  0.970714
C    -4.001390  1.619151  1.791817
C    -4.412636  1.102617  3.176373
C    -4.653901  -0.413264  3.261029
N    -4.964656  -0.902940  4.596488
C    -4.071127  -0.804832  5.663792
N    -2.745954  -1.089844  5.361124
N    -4.553405  -0.556656  6.835284
H    -4.813350  1.486813  1.064314
H    -3.818612  2.704593  1.849461
H    -5.331137  1.624539  3.484153
H    -3.657882  1.374541  3.931391
H    -3.783018  -0.967786  2.876332
H    -5.486074  -0.702046  2.602240
H    -5.896073  -0.669054  4.931111
H    -2.054502  -0.720945  6.001360
H    -2.438979  -1.060757  4.396797
H    -3.837298  -0.651247  7.560174
N    -1.255904  2.200874  -0.287695
C    -0.811917  2.852192  -1.504207
H    -0.659458  2.191559  0.533116
H    -1.593913  2.713621  -2.258609
H    0.123844  2.409619  -1.872598
H    -0.656006  3.928053  -1.344513
