35
Energy: -21190.7361716 eV PBE+vdW (tier 2 basis)
C    -2.284861  -0.800603  4.127344
C    -1.281068  0.194683  3.587848
O    -1.630542  1.315164  3.184703
H    -2.774711  -0.366132  5.008112
H    -1.840296  -1.763408  4.404945
H    -3.060892  -0.964929  3.369879
N    0.010794  -0.211529  3.576430
C    1.096871  0.617256  3.090617
C    2.253396  -0.336985  2.759843
O    2.346019  -1.437411  3.306299
H    0.289985  -1.143169  3.879994
H    0.752013  1.119253  2.173540
C    1.518260  1.681783  4.140796
C    2.220702  2.930355  3.597947
C    1.414386  3.700204  2.523051
N    0.000082  3.865680  2.795071
C    -0.448477  4.622340  3.875501
N    -1.746804  4.300761  4.244033
N    0.170373  5.581176  4.483941
H    2.144909  1.194969  4.902241
H    0.599287  1.997658  4.652109
H    3.215628  2.688296  3.189517
H    2.401613  3.596316  4.453395
H    1.484504  3.194038  1.547488
H    1.878843  4.685867  2.365993
H    -0.567059  3.034886  2.619183
H    -2.032486  3.331530  4.126148
H    -2.029373  4.737822  5.113019
H    1.070783  5.781795  4.043557
N    3.157819  0.139221  1.865021
C    4.362689  -0.582294  1.495872
H    2.982243  1.043005  1.442692
H    4.378157  -0.800142  0.419478
H    4.366448  -1.526228  2.049882
H    5.262767  -0.009228  1.757510
