35
Energy: -21189.8853831 eV PBE+vdW (tier 2 basis)
C    0.915078  0.201584  0.925265
C    0.526340  -0.009827  2.372307
O    1.344247  0.136854  3.288090
H    0.367506  1.043789  0.480751
H    1.983462  0.429242  0.895091
H    0.711934  -0.691307  0.320759
N    -0.759258  -0.381543  2.660052
C    -1.974622  -0.302419  1.841146
C    -1.853024  -1.261761  0.618662
O    -1.663723  -2.452061  0.854993
H    -0.893664  -0.572448  3.648660
H    -2.731777  -0.842354  2.430715
C    -2.485481  1.143763  1.673443
C    -3.187363  1.745167  2.910129
C    -2.455778  1.732075  4.254534
N    -1.138880  2.341475  4.192408
C    -0.484579  2.658456  5.380890
N    0.904546  2.656176  5.233999
N    -1.169078  2.978069  6.426632
H    -3.222345  1.170441  0.859519
H    -1.660532  1.800415  1.359198
H    -4.144129  1.218738  3.057835
H    -3.442064  2.786622  2.662270
H    -2.407618  0.697915  4.656848
H    -3.036854  2.299864  4.990795
H    -0.517970  1.935828  3.501607
H    1.408898  2.777766  6.104902
H    1.281460  1.890707  4.671279
H    -0.554335  3.178605  7.218415
N    -2.005871  -0.845994  -0.677721
C    -2.060139  0.463741  -1.310224
H    -1.969671  -1.644655  -1.305058
H    -3.073361  0.891935  -1.317421
H    -1.735992  0.349147  -2.350877
H    -1.382029  1.179670  -0.835069
