35
Energy: -21190.3445034 eV PBE+vdW (tier 2 basis)
C    0.279485  0.503028  1.751462
C    0.242707  -0.704504  0.840593
O    1.247900  -1.350343  0.559970
H    1.283759  0.575084  2.176312
H    -0.459207  0.434509  2.562619
H    0.063705  1.424561  1.193957
N    -0.980299  -1.072788  0.300657
C    -2.308269  -0.623568  0.738410
C    -3.385367  -1.585266  0.223356
O    -4.390220  -1.850869  0.890533
H    -0.923871  -2.010120  -0.091058
H    -2.373395  -0.670253  1.833706
C    -2.666361  0.825973  0.256221
C    -3.089280  1.818623  1.345420
C    -4.438756  1.553763  2.036934
N    -4.518199  0.334007  2.826876
C    -3.794892  0.208982  3.991621
N    -3.761572  -1.111334  4.465651
N    -3.184302  1.223108  4.515263
H    -1.782470  1.215950  -0.266983
H    -3.457187  0.765298  -0.509250
H    -3.151784  2.816179  0.881794
H    -2.320062  1.890351  2.126107
H    -5.245439  1.503085  1.289975
H    -4.653965  2.400336  2.702180
H    -4.643138  -0.526844  2.286702
H    -3.510391  -1.193831  5.444484
H    -4.568449  -1.681903  4.226488
H    -2.763360  0.973158  5.413110
N    -3.184960  -2.079776  -1.028519
C    -4.157422  -2.918799  -1.706490
H    -2.402245  -1.715343  -1.561835
H    -3.650730  -3.735985  -2.234046
H    -4.756582  -2.343543  -2.427731
H    -4.830636  -3.335436  -0.950987
