35
Energy: -21190.3800207 eV PBE+vdW (tier 2 basis)
C    0.294317  -0.612109  2.627553
C    -0.653443  0.566303  2.563344
O    -0.300669  1.658795  2.100803
H    0.398732  -0.978851  3.656360
H    1.269606  -0.277945  2.264597
H    -0.049888  -1.442080  1.995662
N    -1.918701  0.412457  3.057883
C    -2.661309  -0.814889  3.341420
C    -1.959871  -1.637058  4.456837
O    -1.656435  -1.108521  5.521535
H    -2.455843  1.272105  3.010763
H    -3.582756  -0.474521  3.839504
C    -3.074163  -1.578259  2.064993
C    -3.911651  -0.738759  1.073346
C    -3.265685  -0.603331  -0.311986
N    -1.987541  0.076328  -0.277918
C    -0.809034  -0.510562  -0.683969
N    0.257054  0.392697  -0.706401
N    -0.781405  -1.763247  -1.014152
H    -3.658896  -2.460075  2.366262
H    -2.179547  -1.948937  1.540907
H    -4.093303  0.267988  1.482874
H    -4.906744  -1.189373  0.944298
H    -3.956888  -0.076309  -0.990474
H    -3.073177  -1.593692  -0.745203
H    -1.976957  1.080630  -0.152470
H    1.161302  -0.056142  -0.801199
H    0.255216  1.078011  0.053679
H    0.167547  -2.052020  -1.258740
N    -1.747936  -2.955485  4.186370
C    -1.096890  -3.845177  5.129175
H    -1.949436  -3.296701  3.254657
H    -1.658008  -4.783455  5.226613
H    -1.064466  -3.337844  6.098844
H    -0.066743  -4.077593  4.820201
