35
Energy: -21190.3694918 eV PBE+vdW (tier 2 basis)
C    -0.483261  1.596571  -0.511166
C    -0.066973  0.492237  0.440820
O    1.098797  0.128597  0.564599
H    -1.091608  1.196325  -1.335130
H    0.422838  2.042093  -0.929141
H    -1.077389  2.372741  -0.009872
N    -1.065224  -0.091797  1.192990
C    -2.504721  0.116205  1.104223
C    -3.065792  1.193314  2.064579
O    -4.254095  1.503880  2.013717
H    -0.735992  -0.868621  1.762689
H    -2.747346  0.486820  0.096961
C    -3.252414  -1.207944  1.321674
C    -3.037995  -2.225291  0.201581
C    -3.638425  -3.603453  0.514105
N    -3.063347  -4.246086  1.696172
C    -2.100795  -5.249823  1.657480
N    -1.318445  -5.253554  0.503189
N    -1.891732  -6.148006  2.559627
H    -4.319959  -0.969127  1.424444
H    -2.928206  -1.640470  2.283445
H    -1.960706  -2.335522  -0.004992
H    -3.489854  -1.852155  -0.731877
H    -3.514852  -4.266853  -0.353794
H    -4.720608  -3.497466  0.682855
H    -3.669587  -4.309865  2.503918
H    -0.998043  -4.346722  0.176032
H    -0.561323  -5.924991  0.589923
H    -2.622033  -6.137806  3.276969
N    -2.165253  1.736582  2.923647
C    -2.516252  2.760177  3.887943
H    -1.208416  1.405393  2.858599
H    -2.317498  2.422116  4.914269
H    -3.586971  2.964456  3.780055
H    -1.954726  3.687016  3.705868
