35
Energy: -21190.3850615 eV PBE+vdW (tier 2 basis)
C    0.460091  -0.276892  0.101564
C    0.140315  -0.052495  1.563929
O    0.815587  0.706075  2.271927
H    0.429824  0.690319  -0.415530
H    -0.225921  -0.970589  -0.399523
H    1.484398  -0.660461  0.016771
N    -0.932756  -0.734809  2.049220
C    -1.437480  -0.587517  3.415145
C    -0.643925  -1.469835  4.425909
O    -1.171497  -2.384601  5.058097
H    -1.399592  -1.396349  1.439974
H    -1.242488  0.460000  3.693681
C    -2.944160  -0.850193  3.495906
C    -3.439500  -2.192486  2.916623
C    -4.048879  -2.065509  1.519814
N    -4.472569  -3.373569  1.032242
C    -4.921874  -3.570163  -0.268676
N    -5.690877  -2.516975  -0.771256
N    -4.580703  -4.648541  -0.887555
H    -3.464560  -0.016064  2.999798
H    -3.210377  -0.798341  4.558361
H    -4.199116  -2.621847  3.583705
H    -2.619373  -2.927421  2.909608
H    -3.342158  -1.581381  0.814463
H    -4.915847  -1.387805  1.577139
H    -3.848961  -4.135840  1.288703
H    -6.185869  -2.740412  -1.627262
H    -6.281519  -2.037784  -0.097162
H    -5.075182  -4.743957  -1.778490
N    0.657524  -1.101921  4.539187
C    1.599232  -1.802677  5.388943
H    0.975905  -0.333635  3.940720
H    2.080296  -1.110042  6.093178
H    2.381847  -2.298524  4.796182
H    1.048278  -2.561770  5.954195
