35
Energy: -21190.2942382 eV PBE+vdW (tier 2 basis)
C    -3.369000  1.725115  0.375622
C    -1.951063  1.191409  0.328147
O    -1.037211  1.800171  -0.220047
H    -4.130835  0.961982  0.169190
H    -3.454244  2.538023  -0.350300
H    -3.570877  2.130539  1.378389
N    -1.713097  -0.025714  0.935165
C    -2.638162  -0.773210  1.769456
C    -2.891169  -0.066822  3.122213
O    -1.976412  0.467869  3.743837
H    -0.720416  -0.189411  1.086604
H    -3.582969  -0.871684  1.222903
C    -2.068311  -2.172665  2.080714
C    -1.661313  -3.047480  0.886421
C    -2.798822  -3.656377  0.056058
N    -3.525490  -2.697244  -0.773733
C    -4.796700  -2.213995  -0.531213
N    -5.606597  -3.034245  0.262024
N    -5.283112  -1.088892  -0.945421
H    -2.805836  -2.710525  2.696681
H    -1.188085  -2.023807  2.726222
H    -1.062855  -3.886186  1.275360
H    -0.986622  -2.489590  0.217457
H    -3.518535  -4.143511  0.726106
H    -2.380494  -4.444417  -0.590843
H    -2.938160  -2.041940  -1.280081
H    -5.557517  -4.026188  0.045456
H    -6.563414  -2.692100  0.234789
H    -4.573134  -0.535216  -1.432934
N    -4.171449  -0.093943  3.595062
C    -5.353821  -0.665792  2.962644
H    -4.277704  0.350869  4.501350
H    -6.211763  -0.483615  3.618434
H    -5.268040  -1.751426  2.813823
H    -5.570933  -0.204785  1.988452
