35
Energy: -21190.2712828 eV PBE+vdW (tier 2 basis)
C    0.278558  -0.455421  1.366677
C    -0.016197  -0.850395  2.803238
O    0.865687  -1.207471  3.579008
H    -0.006928  0.586483  1.163462
H    -0.256366  -1.091631  0.647805
H    1.354044  -0.563965  1.205867
N    -1.326257  -0.777942  3.219397
C    -2.512299  -0.512772  2.409149
C    -3.483853  0.303124  3.290970
O    -4.394050  -0.237796  3.916577
H    -1.476109  -1.124198  4.164646
H    -2.197600  0.105590  1.557224
C    -3.173122  -1.786027  1.870863
C    -4.264418  -1.503030  0.837920
C    -4.844394  -2.777158  0.198636
N    -3.893097  -3.611042  -0.519335
C    -3.347232  -3.233950  -1.738993
N    -2.286545  -4.062451  -2.127707
N    -3.689742  -2.252999  -2.502023
H    -3.587098  -2.353038  2.718212
H    -2.375439  -2.395463  1.419314
H    -3.858981  -0.852051  0.046388
H    -5.092716  -0.954305  1.310642
H    -5.656496  -2.509084  -0.493615
H    -5.302034  -3.404995  0.976974
H    -3.283141  -4.178835  0.059151
H    -2.014696  -3.861269  -3.086078
H    -2.450384  -5.055879  -1.984474
H    -4.392466  -1.656320  -2.061143
N    -3.258094  1.646748  3.368224
C    -2.157475  2.401765  2.789958
H    -3.873446  2.122155  4.020912
H    -2.142788  2.326690  1.693253
H    -1.181410  2.079084  3.180734
H    -2.294504  3.458139  3.042637
