35
Energy: -21190.3433941 eV PBE+vdW (tier 2 basis)
C    0.114711  -3.297411  -0.730233
C    -0.243055  -3.291092  0.745963
O    -0.387262  -4.325710  1.387751
H    0.445695  -2.324464  -1.114395
H    -0.768142  -3.616223  -1.300643
H    0.900364  -4.041794  -0.900268
N    -0.370467  -2.038720  1.305333
C    -0.901031  -1.751254  2.644873
C    -0.209467  -2.562991  3.770237
O    -0.823022  -2.907166  4.781023
H    -0.310399  -1.249198  0.672742
H    -0.597834  -0.709586  2.844295
C    -2.430967  -1.791746  2.758424
C    -3.104734  -3.168475  2.603849
C    -4.317875  -3.319330  3.524681
N    -3.889619  -3.280291  4.922985
C    -4.550453  -2.577645  5.914645
N    -5.924199  -2.420445  5.695453
N    -4.025325  -2.066098  6.979200
H    -2.843235  -1.081822  2.025109
H    -2.671995  -1.380121  3.748922
H    -2.390018  -3.970313  2.829709
H    -3.418532  -3.333275  1.563336
H    -4.826424  -4.271556  3.291960
H    -5.045988  -2.512156  3.344434
H    -2.876679  -3.302987  5.048610
H    -6.369015  -2.042364  6.526922
H    -6.401374  -3.246845  5.345131
H    -3.003843  -2.131451  6.943231
N    1.126559  -2.743701  3.616477
C    1.901558  -3.552449  4.539546
H    1.510567  -2.560273  2.696674
H    2.936503  -3.192125  4.569251
H    1.896241  -4.614915  4.251792
H    1.458706  -3.462819  5.536504
