35
Energy: -21190.290378 eV PBE+vdW (tier 2 basis)
C    -0.245302  -1.624206  -0.383600
C    0.110283  -0.880155  0.889120
O    1.268151  -0.541475  1.125116
H    -1.286319  -1.515945  -0.705703
H    -0.060422  -2.695621  -0.219736
H    0.427257  -1.286328  -1.177958
N    -0.883811  -0.665226  1.829157
C    -2.307209  -0.435636  1.546598
C    -3.071183  -1.726731  1.155983
O    -4.094438  -1.693162  0.475712
H    -0.541976  -0.105357  2.611791
H    -2.740844  -0.161382  2.523282
C    -2.582978  0.721650  0.572737
C    -2.416698  2.137979  1.141623
C    -1.060683  2.513068  1.757823
N    -0.962978  2.061180  3.150135
C    0.248835  2.162680  3.860525
N    0.049470  2.498183  5.204947
N    1.429001  1.889524  3.441763
H    -3.612957  0.599156  0.211542
H    -1.936430  0.608714  -0.310671
H    -3.208063  2.331439  1.887239
H    -2.614711  2.845021  0.322500
H    -0.921185  3.607467  1.695419
H    -0.239424  2.063202  1.183548
H    -1.772093  2.328006  3.706765
H    0.938648  2.568114  5.692494
H    -0.545804  3.304997  5.374482
H    1.440432  1.461248  2.510778
N    -2.549706  -2.861473  1.692424
C    -3.133814  -4.170779  1.487694
H    -1.673809  -2.765079  2.196464
H    -4.072191  -4.035131  0.939349
H    -3.346225  -4.661961  2.447044
H    -2.469623  -4.819731  0.898242
