35
Energy: -21190.5922743 eV PBE+vdW (tier 2 basis)
C    0.568776  -1.050856  0.412519
C    -0.113811  -0.653978  1.703367
O    -0.375656  -1.481481  2.585121
H    1.542644  -1.494910  0.654066
H    0.720867  -0.215800  -0.281875
H    -0.029813  -1.825752  -0.081738
N    -0.416832  0.667608  1.840120
C    -1.015376  1.226172  3.053124
C    -2.557524  1.019109  3.043448
O    -3.349255  1.945874  2.839042
H    -0.250984  1.296024  1.061973
H    -0.603028  0.645818  3.893113
C    -0.653452  2.700643  3.202300
C    -1.147963  3.303342  4.531347
C    -1.865570  4.652658  4.329608
N    -2.616410  5.133738  5.468200
C    -3.796680  4.563519  5.926570
N    -4.537454  3.871279  4.974320
N    -4.142393  4.802318  7.150879
H    -1.107405  3.251930  2.362526
H    0.436519  2.802239  3.104976
H    -0.313270  3.425703  5.236576
H    -1.853932  2.614986  5.017862
H    -2.542988  4.566803  3.466727
H    -1.135421  5.429804  4.057786
H    -2.095192  5.544435  6.235584
H    -5.288972  3.318073  5.366616
H    -4.061512  3.391953  4.209922
H    -5.059195  4.400583  7.360179
N    -2.921826  -0.263256  3.273050
C    -4.298916  -0.714284  3.219902
H    -2.161380  -0.949447  3.310204
H    -4.560378  -1.266053  4.132483
H    -4.471367  -1.368071  2.352759
H    -4.945075  0.165078  3.132224
