35
Energy: -21190.4881607 eV PBE+vdW (tier 2 basis)
C    0.327182  0.321672  -0.061653
C    0.150793  -0.138128  1.373773
O    1.072899  -0.649544  2.011882
H    1.142490  1.054701  -0.100351
H    -0.576242  0.767668  -0.494840
H    0.632005  -0.538442  -0.670861
N    -1.089557  0.076267  1.903775
C    -1.484787  -0.455445  3.194379
C    -2.902991  -1.021897  3.033722
O    -3.626588  -0.660925  2.101208
H    -1.874410  0.310202  1.297427
H    -0.765506  -1.251465  3.444023
C    -1.471067  0.597154  4.321200
C    -0.084081  1.190962  4.600605
C    0.062637  1.715097  6.034704
N    0.166941  0.655759  7.032213
C    -0.896047  0.218498  7.790700
N    -0.546179  -0.868826  8.612348
N    -2.067776  0.752874  7.686333
H    -1.859125  0.141554  5.241165
H    -2.182779  1.397405  4.066538
H    0.130600  2.007749  3.895144
H    0.693660  0.433439  4.413240
H    -0.797403  2.333021  6.322772
H    0.964969  2.341306  6.108074
H    0.907853  -0.021261  6.885738
H    -1.252891  -1.091664  9.305252
H    0.377458  -0.803759  9.034447
H    -2.700492  0.395712  8.405395
N    -3.341801  -1.907575  3.970488
C    -2.647155  -2.408866  5.145729
H    -4.316449  -2.165557  3.848677
H    -3.055728  -3.392632  5.404845
H    -2.750631  -1.742345  6.016261
H    -1.578688  -2.540486  4.939240
