35
Energy: -21190.5006073 eV PBE+vdW (tier 2 basis)
C    -2.317315  0.986203  -0.957666
C    -1.448330  0.813307  0.273054
O    -0.396282  1.424235  0.431518
H    -1.890942  1.791511  -1.560848
H    -3.357036  1.231735  -0.701532
H    -2.333988  0.066121  -1.559478
N    -1.898977  -0.063671  1.240132
C    -3.062345  -0.939827  1.192430
C    -4.350563  -0.318536  1.790597
O    -5.407663  -0.955436  1.804876
H    -1.234224  -0.196290  1.998614
H    -3.307123  -1.141647  0.139718
C    -2.785618  -2.291314  1.870053
C    -2.540004  -2.212829  3.388103
C    -3.143927  -3.406389  4.149353
N    -4.587537  -3.474511  4.013862
C    -5.221508  -4.343391  3.122704
N    -6.400464  -3.808177  2.614518
N    -4.857680  -5.540231  2.802784
H    -1.936954  -2.771170  1.363083
H    -3.661934  -2.920265  1.673632
H    -2.989989  -1.293629  3.801239
H    -1.464519  -2.151360  3.617843
H    -2.865381  -3.342589  5.212883
H    -2.723354  -4.348782  3.771472
H    -5.071263  -2.588674  4.131987
H    -6.840908  -4.445225  1.958284
H    -6.316531  -2.854510  2.259121
H    -4.073122  -5.857491  3.378057
N    -4.221976  0.937832  2.278971
C    -5.322080  1.679598  2.863764
H    -3.298741  1.356236  2.221288
H    -5.498193  2.616695  2.318693
H    -5.123592  1.916347  3.918116
H    -6.218987  1.054497  2.800513
