35
Energy: -21190.3343452 eV PBE+vdW (tier 2 basis)
C    -0.431874  0.173213  -0.837353
C    0.066789  0.038731  0.593457
O    1.264775  0.010151  0.859866
H    0.441405  0.204692  -1.493793
H    -1.011249  1.097871  -0.975058
H    -1.072114  -0.668269  -1.135438
N    -0.878944  -0.036705  1.584369
C    -2.320606  0.012975  1.462028
C    -2.858346  0.624230  2.768649
O    -2.225160  0.542855  3.820872
H    -0.526434  -0.035895  2.541709
H    -2.595352  0.677812  0.627651
C    -2.959459  -1.378696  1.184022
C    -2.762925  -2.434953  2.281686
C    -3.868662  -2.443211  3.353420
N    -3.692412  -3.436776  4.394513
C    -2.849722  -3.214556  5.486531
N    -2.696025  -4.376311  6.258592
N    -2.243646  -2.138224  5.836305
H    -2.517528  -1.740616  0.245335
H    -4.034713  -1.242413  0.976286
H    -1.782082  -2.305043  2.761932
H    -2.738358  -3.430530  1.812777
H    -4.841867  -2.625864  2.869680
H    -3.948623  -1.465784  3.846967
H    -3.705296  -4.402278  4.077763
H    -2.188064  -4.162948  7.112608
H    -3.563994  -4.871010  6.449873
H    -2.298794  -1.387921  5.142633
N    -4.086129  1.201049  2.675783
C    -4.798563  1.725394  3.828075
H    -4.530940  1.241409  1.766493
H    -5.031218  2.790416  3.696537
H    -4.147711  1.607883  4.700461
H    -5.732612  1.173089  4.002103
