35
Energy: -21190.2809805 eV PBE+vdW (tier 2 basis)
C    -1.181143  0.073052  -0.014880
C    -1.367967  -0.447350  1.397005
O    -1.046937  -1.592901  1.696759
H    -1.266449  1.156246  -0.134293
H    -1.938703  -0.400911  -0.654239
H    -0.200114  -0.258396  -0.371213
N    -1.994750  0.352604  2.341613
C    -2.200318  1.804347  2.388936
C    -3.037847  2.343479  1.205082
O    -2.899908  3.488763  0.773598
H    -2.020131  -0.121361  3.241847
H    -2.891466  1.948349  3.237618
C    -0.952960  2.640755  2.756007
C    0.336153  2.451941  1.946608
C    0.459929  3.315942  0.686269
N    0.568486  4.732147  1.028103
C    0.099176  5.773089  0.220063
N    -1.042630  5.471229  -0.502174
N    0.630310  6.947828  0.123234
H    -0.737833  2.403751  3.808340
H    -1.243488  3.701198  2.732336
H    0.486884  1.394535  1.683457
H    1.184496  2.695903  2.605992
H    -0.410334  3.194859  0.033702
H    1.336436  2.978136  0.102338
H    1.444203  4.978042  1.479821
H    -1.426937  6.301896  -0.939242
H    -1.736795  4.886362  -0.035974
H    1.534454  6.986041  0.602259
N    -3.998743  1.492505  0.765826
C    -4.915825  1.819205  -0.308504
H    -3.999836  0.557501  1.159903
H    -5.952088  1.618635  -0.007382
H    -4.691976  1.241465  -1.217210
H    -4.806708  2.884961  -0.533246
