35
Energy: -21190.5423294 eV PBE+vdW (tier 2 basis)
C    1.133665  0.545987  3.679429
C    -0.053038  -0.217334  4.226310
O    0.041798  -0.951256  5.218041
H    1.532443  1.190116  4.472913
H    0.896156  1.163124  2.804576
H    1.921879  -0.168522  3.411738
N    -1.233380  -0.042974  3.567939
C    -2.474482  -0.683727  4.001743
C    -2.557173  -2.122111  3.420111
O    -3.242642  -2.400083  2.437893
H    -1.253148  0.508287  2.717198
H    -2.386063  -0.770767  5.095168
C    -3.678905  0.172680  3.617183
C    -5.016419  -0.298213  4.202123
C    -5.064851  -0.397819  5.736469
N    -4.636021  0.796202  6.470747
C    -5.228402  2.048453  6.322669
N    -6.596132  2.007989  6.059215
N    -4.639905  3.193816  6.409268
H    -3.768362  0.181017  2.520539
H    -3.478127  1.206726  3.937022
H    -5.278176  -1.281363  3.784060
H    -5.795991  0.402096  3.871310
H    -4.430033  -1.220949  6.094638
H    -6.086308  -0.670015  6.041189
H    -3.634207  0.864002  6.613916
H    -7.121080  1.299316  6.562832
H    -7.006356  2.933461  6.137529
H    -3.623538  3.085100  6.468859
N    -1.789778  -3.011368  4.106505
C    -1.609044  -4.381385  3.666396
H    -1.145774  -2.614405  4.794488
H    -0.655673  -4.517497  3.133004
H    -2.426924  -4.632504  2.983013
H    -1.631010  -5.063077  4.525967
