35
Energy: -21190.9684293 eV PBE+vdW (tier 2 basis)
C    -1.476987  0.619107  -0.137191
C    -1.331487  0.820660  1.357109
O    -0.737154  1.805467  1.817483
H    -0.475994  0.560806  -0.582823
H    -1.975120  1.497221  -0.566304
H    -2.041772  -0.281662  -0.405702
N    -1.893901  -0.137831  2.138824
C    -1.780774  -0.129849  3.588591
C    -1.446396  -1.557251  4.045825
O    -2.112122  -2.520498  3.646879
H    -2.316064  -0.963999  1.724155
H    -0.942441  0.530225  3.814116
C    -3.079864  0.392088  4.237821
C    -3.102033  0.514737  5.769441
C    -2.361668  1.713227  6.395691
N    -0.906152  1.607312  6.497177
C    -0.030784  1.782892  5.440851
N    -0.251968  2.864719  4.613007
N    0.948111  0.931874  5.313387
H    -3.888188  -0.289444  3.932389
H    -3.303064  1.370517  3.783692
H    -2.738502  -0.416624  6.232974
H    -4.156281  0.604571  6.075508
H    -2.738156  1.863388  7.417866
H    -2.618634  2.632373  5.848704
H    -0.584021  0.846730  7.090533
H    -0.178455  2.664090  3.611243
H    -1.055040  3.443212  4.833762
H    1.622128  1.260759  4.617391
N    -0.408069  -1.640629  4.904110
C    0.035064  -2.916213  5.434633
H    0.156668  -0.788609  5.096015
H    0.794537  -2.730457  6.201608
H    0.468671  -3.555008  4.650650
H    -0.805460  -3.464362  5.880601
