35
Energy: -21190.4228486 eV PBE+vdW (tier 2 basis)
C    -0.807309  0.892372  -0.146592
C    -0.765157  1.206731  1.336781
O    0.209541  1.722277  1.873026
H    -1.557951  1.513926  -0.655275
H    -1.055028  -0.160975  -0.339393
H    0.177361  1.111818  -0.566740
N    -1.872839  0.861232  2.082111
C    -3.162019  0.435349  1.589053
C    -3.954438  1.590853  0.916845
O    -3.688232  2.777992  1.116562
H    -1.828945  1.223390  3.030131
H    -2.994304  -0.322097  0.806289
C    -3.975303  -0.272131  2.702065
C    -4.144959  0.448149  4.050585
C    -4.807655  1.829983  4.029105
N    -6.074938  1.800690  3.303050
C    -6.761266  2.961679  2.941355
N    -5.950615  4.032688  2.595212
N    -8.054122  2.925298  2.970533
H    -3.483919  -1.236675  2.896142
H    -4.970396  -0.503903  2.296934
H    -3.174613  0.545263  4.562959
H    -4.732421  -0.225954  4.695291
H    -4.144084  2.554221  3.544216
H    -4.937671  2.174327  5.072212
H    -6.753041  1.135538  3.670562
H    -6.451279  4.810620  2.182126
H    -5.083331  3.804825  2.100704
H    -8.456404  3.779460  2.575702
N    -4.937499  1.177204  0.077245
C    -5.919882  2.081377  -0.497231
H    -5.134150  0.183691  0.034710
H    -6.816427  2.158008  0.136206
H    -6.208813  1.731600  -1.495315
H    -5.463808  3.072633  -0.583941
