35
Energy: -21190.2696374 eV PBE+vdW (tier 2 basis)
C    -0.242580  0.777413  0.115499
C    -0.664620  -0.619885  0.521766
O    -0.011435  -1.622709  0.241790
H    0.015778  1.386815  0.993494
H    -1.041296  1.309300  -0.419504
H    0.635736  0.693203  -0.529090
N    -1.837834  -0.732441  1.233307
C    -2.653901  0.344267  1.767007
C    -2.025644  1.143131  2.927656
O    -2.209195  2.366185  2.989917
H    -2.069642  -1.690683  1.480475
H    -2.810473  1.094802  0.982259
C    -4.044874  -0.196893  2.162235
C    -5.071350  0.883408  2.531696
C    -5.801766  1.520721  1.338249
N    -4.950033  2.013571  0.244069
C    -4.548586  3.356374  0.146442
N    -4.203705  3.929958  1.358274
N    -4.482773  4.043164  -0.946023
H    -3.931376  -0.900928  3.002292
H    -4.413528  -0.787334  1.307589
H    -4.597756  1.663284  3.143363
H    -5.846276  0.433552  3.170870
H    -6.445529  2.331880  1.713243
H    -6.463550  0.762718  0.893537
H    -5.217283  1.649688  -0.663320
H    -3.864525  4.877179  1.219309
H    -3.582106  3.378220  1.959316
H    -4.919187  3.543179  -1.726250
N    -1.288912  0.517344  3.885381
C    -0.980392  -0.893614  4.081132
H    -0.931392  1.170402  4.576191
H    -0.580704  -1.011008  5.094377
H    -0.232285  -1.266277  3.368932
H    -1.878019  -1.521210  4.012094
