35
Energy: -21190.3861957 eV PBE+vdW (tier 2 basis)
C    -0.704265  0.169791  -0.173677
C    -0.506904  0.131683  1.329708
O    0.610310  0.066741  1.843352
H    -1.749393  0.305163  -0.476908
H    -0.326068  -0.767813  -0.600819
H    -0.099811  0.984572  -0.590144
N    -1.656171  0.192149  2.069102
C    -1.663219  -0.006952  3.504802
C    -2.820840  -0.962397  3.826333
O    -3.814787  -1.017576  3.099660
H    -2.564183  0.076019  1.623507
H    -0.688992  -0.444862  3.768558
C    -1.857874  1.316193  4.282009
C    -0.692441  2.290410  4.123876
C    -0.947754  3.650133  4.790279
N    -2.069247  4.393765  4.223092
C    -1.962844  5.404215  3.278476
N    -0.759053  5.412055  2.573753
N    -2.841945  6.315171  3.024200
H    -2.007997  1.089697  5.350721
H    -2.789210  1.782558  3.925225
H    -0.485496  2.437284  3.053123
H    0.226094  1.854321  4.546670
H    -0.040597  4.268341  4.726710
H    -1.152328  3.501588  5.861991
H    -2.917029  4.434247  4.772622
H    -0.409244  4.507291  2.272123
H    -0.796553  6.088824  1.817614
H    -3.609612  6.294661  3.701124
N    -2.720930  -1.705831  4.963303
C    -1.581990  -1.814816  5.861980
H    -3.535463  -2.283533  5.144914
H    -1.396228  -0.884373  6.418652
H    -0.663008  -2.090827  5.326728
H    -1.793561  -2.603660  6.591062
