35
Energy: -21190.3361839 eV PBE+vdW (tier 2 basis)
C    -0.712614  1.053808  -0.331306
C    -0.467302  0.663491  1.114453
O    0.280822  -0.251331  1.436106
H    -1.341717  0.284325  -0.798811
H    0.245128  1.060771  -0.863245
H    -1.203244  2.027827  -0.451554
N    -1.132062  1.426297  2.053035
C    -1.197671  1.047252  3.467641
C    0.208432  1.003100  4.122619
O    0.469897  0.225133  5.040840
H    -1.837223  2.072155  1.716837
H    -1.725427  1.879586  3.962936
C    -1.978525  -0.252655  3.732992
C    -2.595524  -0.317706  5.144697
C    -2.569600  -1.722571  5.747740
N    -1.191547  -2.120467  6.015004
C    -0.738237  -3.425308  5.973122
N    -1.732573  -4.388684  6.186255
N    0.472596  -3.817458  5.752104
H    -1.303168  -1.102001  3.569895
H    -2.773487  -0.330822  2.978030
H    -3.634934  0.041737  5.120679
H    -2.052518  0.353006  5.827932
H    -3.046387  -2.442326  5.060917
H    -3.170890  -1.720361  6.675405
H    -0.491358  -1.416755  5.776282
H    -2.388887  -4.175607  6.932788
H    -1.309458  -5.305683  6.297307
H    1.062540  -3.029524  5.469853
N    1.080372  1.943261  3.679358
C    2.460921  1.981552  4.125811
H    0.829426  2.429187  2.825775
H    2.503536  1.614908  5.156383
H    2.833471  3.012072  4.091567
H    3.107327  1.342324  3.505425
