35
Energy: -21190.5457755 eV PBE+vdW (tier 2 basis)
C    -0.750739  -1.943534  0.935903
C    -0.680203  -1.130492  2.210741
O    0.254028  -0.353235  2.439773
H    -0.761926  -1.254400  0.082114
H    -1.629092  -2.597644  0.876436
H    0.157843  -2.552302  0.852030
N    -1.710270  -1.301593  3.086714
C    -1.824045  -0.560920  4.343638
C    -0.997159  -1.244909  5.468638
O    -1.526810  -1.822482  6.416377
H    -2.398104  -2.023438  2.901824
H    -1.373653  0.425822  4.151467
C    -3.288948  -0.398415  4.742117
C    -4.070694  0.527744  3.805385
C    -5.574261  0.571831  4.078479
N    -5.873451  1.127881  5.386804
C    -7.181143  1.451460  5.742226
N    -7.281073  1.835625  7.082877
N    -8.238270  1.427607  5.006720
H    -3.297935  -0.022781  5.774931
H    -3.763276  -1.392840  4.793839
H    -3.932875  0.202061  2.762748
H    -3.663744  1.549173  3.869405
H    -6.003219  -0.443370  3.954113
H    -6.053383  1.213839  3.324811
H    -5.330635  0.740665  6.153572
H    -8.210867  2.189224  7.288680
H    -6.549572  2.465675  7.400926
H    -8.058591  0.992018  4.099689
N    0.343233  -1.125841  5.281883
C    1.314220  -1.754485  6.155415
H    0.649192  -0.686684  4.409852
H    1.823862  -2.592131  5.656284
H    0.783840  -2.138289  7.033228
H    2.070723  -1.027840  6.480363
