35
Energy: -21190.1533064 eV PBE+vdW (tier 2 basis)
C    -0.494286  -2.335710  1.094766
C    -0.408174  -1.052890  1.897018
O    0.575125  -0.314597  1.869652
H    0.488575  -2.530504  0.658461
H    -1.233475  -2.242810  0.286041
H    -0.806431  -3.189621  1.711604
N    -1.494362  -0.736290  2.678786
C    -2.783879  -1.409683  2.708403
C    -3.689404  -1.183907  1.474610
O    -4.317541  -2.133589  1.010581
H    -1.389477  0.152676  3.159769
H    -2.611418  -2.494329  2.684595
C    -3.556077  -1.091829  4.002551
C    -2.773494  -1.347010  5.299431
C    -2.230448  -2.772257  5.490691
N    -3.254198  -3.811862  5.570613
C    -3.736512  -4.537351  4.483370
N    -2.772766  -4.805830  3.503185
N    -4.937959  -4.971087  4.317658
H    -4.471809  -1.699361  3.980993
H    -3.888017  -0.040858  3.995802
H    -3.428320  -1.096073  6.150029
H    -1.917318  -0.657597  5.372490
H    -1.631544  -2.798382  6.413952
H    -1.546744  -3.027819  4.672645
H    -3.971701  -3.642113  6.268883
H    -1.899779  -5.185857  3.861871
H    -3.175765  -5.391855  2.776632
H    -5.577998  -4.577370  5.013886
N    -3.789223  0.061345  0.915117
C    -3.187993  1.328226  1.303453
H    -4.398576  0.063989  0.103120
H    -3.708797  2.129294  0.766921
H    -2.118998  1.387156  1.053855
H    -3.311628  1.529344  2.376351
