35
Energy: -21190.5478898 eV PBE+vdW (tier 2 basis)
C    -3.751431  0.799996  -0.016842
C    -2.602408  -0.155912  0.208643
O    -2.285944  -1.026879  -0.597687
H    -4.101830  0.668897  -1.044089
H    -3.459428  1.847903  0.137442
H    -4.573574  0.561890  0.678892
N    -1.890584  -0.014662  1.385782
C    -2.183041  0.846294  2.522073
C    -1.250745  2.075761  2.646423
O    -1.355511  2.845538  3.600040
H    -1.212515  -0.760829  1.527251
H    -3.183192  1.274832  2.367503
C    -2.193499  0.047954  3.837262
C    -3.402989  -0.883284  3.971316
C    -4.691394  -0.128596  4.332523
N    -5.893343  -0.948652  4.305893
C    -6.544430  -1.194761  3.111701
N    -7.566038  -2.145237  3.249024
N    -6.184528  -0.602978  2.021680
H    -2.162572  0.771348  4.664402
H    -1.257525  -0.531338  3.899116
H    -3.197897  -1.635186  4.749483
H    -3.564096  -1.435792  3.033370
H    -4.866244  0.694893  3.629089
H    -4.599689  0.313383  5.335968
H    -5.919108  -1.717349  4.968148
H    -8.164544  -2.224757  2.434141
H    -8.106268  -2.072971  4.107589
H    -6.836121  -0.809226  1.261279
N    -0.361046  2.231503  1.631605
C    0.558003  3.348424  1.555934
H    -0.387215  1.536923  0.891931
H    0.413774  3.957889  2.454838
H    0.361293  3.968118  0.669574
H    1.600344  3.002455  1.520471
