35
Energy: -21190.6670669 eV PBE+vdW (tier 2 basis)
C    -0.794111  1.048796  -0.470096
C    -0.472783  0.890043  1.000023
O    0.692725  0.758977  1.399906
H    -1.869144  1.093322  -0.680653
H    -0.350682  0.210743  -1.021249
H    -0.319690  1.968334  -0.836049
N    -1.533071  0.906868  1.845770
C    -1.386092  0.758347  3.279435
C    -2.738802  0.265923  3.810047
O    -3.785073  0.492368  3.200475
H    -2.493364  0.977653  1.514976
H    -0.612018  -0.004565  3.454656
C    -0.961132  2.090342  3.959251
C    -0.172795  1.953732  5.266016
C    1.144770  1.157897  5.137661
N    1.996697  1.533633  4.013048
C    2.530620  2.812634  3.878708
N    2.866593  3.434354  5.087685
N    2.729971  3.444311  2.772451
H    -1.856999  2.707506  4.120642
H    -0.341279  2.633213  3.233551
H    -0.787717  1.498372  6.060977
H    0.068583  2.967151  5.617529
H    0.943655  0.081707  5.020611
H    1.700377  1.246129  6.082665
H    1.667607  1.165324  3.115921
H    3.403945  4.277564  4.906136
H    3.325332  2.829502  5.763953
H    2.328139  2.925880  1.985467
N    -2.687174  -0.391007  4.999246
C    -3.871324  -0.852120  5.701188
H    -1.777646  -0.561389  5.411116
H    -4.741979  -0.573944  5.098890
H    -3.954157  -0.380983  6.690280
H    -3.858105  -1.943487  5.825348
