35
Energy: -21190.1821641 eV PBE+vdW (tier 2 basis)
C    -0.959668  0.490387  -0.435126
C    -0.132973  0.299163  0.812164
O    1.022832  0.739729  0.902788
H    -1.128613  -0.476162  -0.927317
H    -0.414586  1.162410  -1.100969
H    -1.938174  0.935061  -0.216535
N    -0.655879  -0.390102  1.873874
C    -2.011651  -0.826053  2.203638
C    -2.748928  -1.422037  0.977874
O    -2.245580  -2.343727  0.342486
H    0.028622  -0.498206  2.617984
H    -1.872200  -1.729580  2.820512
C    -2.776398  0.170760  3.105001
C    -3.059601  1.614570  2.628407
C    -2.035581  2.693816  3.051247
N    -0.906846  2.886381  2.171018
C    -0.955266  3.782357  1.123143
N    0.109390  3.665348  0.234739
N    -1.954944  4.598448  1.015957
H    -2.214964  0.232112  4.052079
H    -3.722590  -0.322297  3.381217
H    -4.027222  1.915967  3.058404
H    -3.185267  1.685340  1.537498
H    -1.660217  2.467806  4.061798
H    -2.552558  3.660476  3.095984
H    -0.110005  2.265357  2.226110
H    0.395127  4.514452  -0.234137
H    0.858797  3.013315  0.455048
H    -1.863783  5.169996  0.174006
N    -3.982752  -0.914061  0.708182
C    -4.794723  -1.394989  -0.394002
H    -4.298741  -0.103244  1.225231
H    -5.829550  -1.557930  -0.067215
H    -4.366893  -2.342650  -0.736380
H    -4.793946  -0.685812  -1.235015
