35
Energy: -21190.4158868 eV PBE+vdW (tier 2 basis)
C    1.619664  0.569477  0.720351
C    1.004463  0.112510  2.027849
O    1.695193  -0.412697  2.910786
H    0.911892  1.057528  0.039589
H    2.052443  -0.303472  0.215396
H    2.442410  1.260453  0.940478
N    -0.335939  0.320903  2.151727
C    -1.201789  -0.092746  3.268145
C    -0.990535  0.719107  4.574746
O    -1.940226  1.317025  5.082008
H    -0.793805  0.812237  1.394473
H    -2.217302  0.189632  2.963572
C    -1.170057  -1.615953  3.498574
C    -2.145301  -2.072488  4.584524
C    -2.133138  -3.588759  4.759478
N    -3.058233  -3.983656  5.819131
C    -3.293491  -5.313287  6.146346
N    -2.165373  -6.134539  6.061042
N    -4.490305  -5.672171  6.466506
H    -0.147785  -1.926610  3.754456
H    -1.416581  -2.101048  2.540650
H    -3.166547  -1.739422  4.333932
H    -1.896838  -1.599355  5.546165
H    -1.112619  -3.905814  5.024697
H    -2.375411  -4.083089  3.798752
H    -3.945560  -3.485423  5.803408
H    -2.282268  -7.038416  6.504841
H    -1.279649  -5.698324  6.301851
H    -4.513495  -6.634847  6.813000
N    0.258253  0.660902  5.099213
C    0.622609  1.359131  6.315974
H    0.975049  0.182381  4.541946
H    1.101983  0.673209  7.027590
H    -0.290719  1.763421  6.764998
H    1.314219  2.189815  6.111425
