35
Energy: -21190.4017422 eV PBE+vdW (tier 2 basis)
C    0.295853  -0.827796  0.858050
C    -0.073184  0.184903  1.925757
O    0.775375  0.769771  2.596480
H    1.368841  -1.019693  0.939831
H    0.080039  -0.440641  -0.147203
H    -0.257632  -1.770574  0.953137
N    -1.409849  0.446227  2.113231
C    -2.558301  -0.202593  1.483992
C    -3.596954  0.888863  1.157538
O    -4.636501  1.021005  1.807767
H    -1.594247  1.080781  2.887195
H    -2.208036  -0.646287  0.540618
C    -3.131420  -1.310428  2.381321
C    -4.344668  -2.093291  1.859375
C    -4.220905  -2.714317  0.462000
N    -4.467236  -1.777174  -0.626707
C    -3.550066  -1.469306  -1.598181
N    -4.076403  -0.629943  -2.591459
N    -2.324314  -1.882039  -1.516994
H    -3.399378  -0.865079  3.350646
H    -2.302732  -2.009656  2.575195
H    -5.236384  -1.449956  1.894272
H    -4.536820  -2.913280  2.568332
H    -4.941240  -3.544906  0.378987
H    -3.220768  -3.132916  0.291265
H    -5.274472  -1.170010  -0.545588
H    -3.464891  -0.509827  -3.391308
H    -5.031573  -0.836069  -2.872700
H    -1.806546  -1.673034  -2.372912
N    -3.305242  1.723223  0.118598
C    -2.104414  1.765053  -0.698151
H    -3.989334  2.463542  -0.001752
H    -2.323912  2.333330  -1.608833
H    -1.806261  0.754958  -1.003227
H    -1.259029  2.240686  -0.178357
