35
Energy: -21190.1362819 eV PBE+vdW (tier 2 basis)
C    -0.650376  -1.903885  1.070023
C    -0.715603  -0.882562  2.192193
O    0.140029  -0.810650  3.066364
H    0.339744  -1.849812  0.602700
H    -1.419103  -1.769348  0.298733
H    -0.753700  -2.906816  1.504069
N    -1.800030  -0.035284  2.146950
C    -2.122353  0.862680  3.266034
C    -3.594178  1.287615  3.174493
O    -4.370350  1.041474  4.102522
H    -2.558899  -0.294373  1.526327
H    -2.061326  0.281430  4.196010
C    -1.115310  2.032976  3.390255
C    -1.538147  3.225894  4.262527
C    -2.068327  2.905453  5.673396
N    -1.323330  1.849324  6.343743
C    -1.892097  0.918498  7.217018
N    -3.237073  0.657040  7.008459
N    -1.267948  0.303475  8.167247
H    -0.863958  2.403499  2.386592
H    -0.196792  1.587275  3.790353
H    -2.309371  3.828207  3.753890
H    -0.659342  3.884880  4.343826
H    -3.113217  2.588941  5.616093
H    -2.070679  3.838961  6.266306
H    -0.369913  2.082461  6.600187
H    -3.541458  -0.139286  7.557546
H    -3.596753  0.664499  6.053051
H    -0.320483  0.671264  8.288485
N    -4.049262  1.914580  2.047815
C    -3.295213  2.531973  0.965321
H    -5.031284  2.167314  2.126359
H    -2.392001  1.955415  0.743900
H    -2.998443  3.565586  1.202454
H    -3.916938  2.548013  0.062265
