35
Energy: -21190.1089245 eV PBE+vdW (tier 2 basis)
C    -0.436072  0.040018  -0.656932
C    0.121710  -0.178094  0.739030
O    1.317197  -0.378742  0.935374
H    0.404825  0.009967  -1.354401
H    -0.943234  1.008989  -0.755916
H    -1.156252  -0.740870  -0.933888
N    -0.757282  -0.141964  1.797432
C    -2.209069  0.017575  1.802403
C    -2.556401  1.055499  2.897114
O    -2.917585  0.704929  4.018443
H    -0.314181  -0.331703  2.694309
H    -2.500547  0.411059  0.819094
C    -2.963879  -1.293379  2.068606
C    -2.731621  -2.368157  1.005991
C    -3.370549  -3.718802  1.339684
N    -4.821746  -3.635237  1.398249
C    -5.692510  -4.712628  1.284918
N    -5.096663  -5.915120  0.902914
N    -6.975473  -4.668303  1.419806
H    -4.032405  -1.037006  2.143818
H    -2.674116  -1.663324  3.063594
H    -1.650436  -2.537572  0.888999
H    -3.116461  -2.030955  0.029959
H    -2.933543  -4.097377  2.286721
H    -3.109295  -4.434422  0.548761
H    -5.200842  -2.869036  1.941854
H    -5.783643  -6.663352  0.913886
H    -4.239459  -6.167346  1.385697
H    -7.302984  -3.708174  1.557718
N    -2.413279  2.374568  2.574174
C    -1.882204  2.952730  1.351282
H    -2.578247  2.995376  3.360581
H    -0.815088  2.726600  1.208744
H    -1.996992  4.040243  1.406001
H    -2.438130  2.611831  0.466726
