35
Energy: -21190.1839431 eV PBE+vdW (tier 2 basis)
C    -0.880530  -1.032233  1.817618
C    -1.142913  0.045961  2.848263
O    -0.333718  0.308686  3.735665
H    -1.210101  -0.768643  0.806447
H    -1.411909  -1.952621  2.099418
H    0.192857  -1.239784  1.818869
N    -2.345968  0.717496  2.807790
C    -3.440506  0.663279  1.836494
C    -3.933881  -0.778327  1.560574
O    -3.969903  -1.244111  0.424073
H    -2.413682  1.414531  3.543353
H    -4.280226  1.178628  2.333865
C    -3.161678  1.409741  0.525240
C    -2.799381  2.878869  0.737426
C    -2.567467  3.639683  -0.579958
N    -3.719967  3.744433  -1.458959
C    -4.772928  4.612589  -1.199201
N    -5.857766  4.403870  -2.059214
N    -4.851948  5.532121  -0.299188
H    -4.063773  1.319670  -0.096628
H    -2.362848  0.894733  -0.028848
H    -1.880618  2.957793  1.339199
H    -3.596126  3.381182  1.310357
H    -1.764031  3.150566  -1.151127
H    -2.211285  4.657908  -0.364807
H    -3.982778  2.893961  -1.945986
H    -6.545955  5.143045  -1.947326
H    -5.605785  4.265865  -3.034602
H    -4.056077  5.507917  0.341358
N    -4.346808  -1.508522  2.639057
C    -4.427593  -1.121121  4.038421
H    -4.646233  -2.445326  2.387615
H    -3.453636  -1.162708  4.546319
H    -5.117005  -1.804464  4.546775
H    -4.832099  -0.106345  4.149936
