35
Energy: -21190.3641676 eV PBE+vdW (tier 2 basis)
C    -0.888230  -1.875068  0.614373
C    -0.714675  -1.509734  2.078418
O    0.223132  -1.915334  2.753168
H    -0.026816  -1.492542  0.052467
H    -1.809437  -1.485745  0.162619
H    -0.878565  -2.967769  0.521519
N    -1.696043  -0.698882  2.603711
C    -1.609712  -0.146783  3.951251
C    -1.955248  -1.160218  5.065843
O    -1.489600  -1.026647  6.197189
H    -2.368811  -0.286192  1.966782
H    -0.571091  0.154109  4.150404
C    -2.564069  1.062623  4.033405
C    -2.597806  1.763407  5.393341
C    -3.895322  2.557301  5.659933
N    -5.148922  1.896488  5.323973
C    -5.601387  0.719296  5.899427
N    -6.784532  0.262854  5.292058
N    -5.084438  0.028109  6.854359
H    -3.576667  0.694936  3.795947
H    -2.287017  1.775732  3.239204
H    -1.751475  2.460413  5.485786
H    -2.445326  1.017327  6.182271
H    -3.889966  3.494799  5.086065
H    -3.918838  2.846099  6.722208
H    -5.510521  2.078132  4.395174
H    -7.490058  0.984317  5.160713
H    -7.157685  -0.523690  5.817183
H    -4.157892  0.361084  7.125370
N    -2.851902  -2.118341  4.732778
C    -3.408593  -3.029174  5.717859
H    -3.162625  -2.164045  3.770136
H    -2.613801  -3.362052  6.395776
H    -3.832665  -3.899501  5.205037
H    -4.189400  -2.533307  6.314251
