35
Energy: -21190.341936 eV PBE+vdW (tier 2 basis)
C    -0.045456  -1.088473  -0.477490
C    -0.014660  -0.375580  0.858673
O    1.024201  -0.293895  1.506083
H    0.762625  -0.688861  -1.100417
H    -0.990683  -1.025338  -1.021440
H    0.179233  -2.147974  -0.295450
N    -1.194246  0.111792  1.402571
C    -2.476638  0.475765  0.785717
C    -3.223516  -0.709987  0.130561
O    -4.032842  -0.545009  -0.784307
H    -0.997959  0.577961  2.285970
H    -3.126813  0.696236  1.650548
C    -2.470412  1.787185  -0.029202
C    -1.568266  1.938351  -1.260093
C    -2.030297  1.220862  -2.547250
N    -3.417222  1.426145  -2.909135
C    -3.885789  2.620309  -3.427934
N    -5.284520  2.677191  -3.460868
N    -3.211897  3.635787  -3.855676
H    -2.192447  2.576591  0.685138
H    -3.511568  1.998320  -0.313043
H    -0.534378  1.635742  -1.032640
H    -1.515130  3.016712  -1.470498
H    -1.889676  0.135935  -2.461612
H    -1.389695  1.542050  -3.382907
H    -4.064135  0.888026  -2.334472
H    -5.597103  3.464669  -4.021262
H    -5.739667  1.809072  -3.729658
H    -2.210909  3.523705  -3.682587
N    -2.994915  -1.912016  0.717268
C    -3.639229  -3.138199  0.290061
H    -2.287845  -1.940815  1.444528
H    -4.135671  -3.633247  1.135102
H    -2.915186  -3.836432  -0.154157
H    -4.389324  -2.878423  -0.463854
