35
Energy: -21190.4756155 eV PBE+vdW (tier 2 basis)
C    1.689873  -4.143792  1.602783
C    1.088869  -3.577896  2.874584
O    1.313078  -4.061590  3.984457
H    1.398859  -5.197692  1.513788
H    2.783425  -4.112724  1.685908
H    1.386071  -3.607648  0.695533
N    0.291212  -2.481142  2.708075
C    -0.420894  -1.886345  3.821572
C    -1.666633  -1.208345  3.245427
O    -1.705864  -0.860873  2.056331
H    0.008761  -2.162336  1.784784
H    -0.694148  -2.707421  4.502075
C    0.435600  -0.879541  4.643130
C    0.604738  0.523659  4.048560
C    1.430436  0.600559  2.749463
N    1.522386  1.926462  2.173295
C    0.494723  2.571628  1.499355
N    -0.436139  1.741715  0.880956
N    0.545832  3.862517  1.422006
H    1.411206  -1.361784  4.800645
H    -0.014349  -0.787265  5.642584
H    -0.381099  0.983430  3.871640
H    1.093824  1.160808  4.802083
H    1.030666  -0.081018  1.988477
H    2.453465  0.244866  2.945008
H    2.107900  2.601040  2.655443
H    -1.262527  2.228866  0.557150
H    -0.662621  0.837792  1.293361
H    -0.209146  4.227681  0.836868
N    -2.708144  -0.960898  4.078036
C    -2.841504  -1.273191  5.491493
H    -3.457911  -0.437117  3.635212
H    -3.900624  -1.434319  5.722926
H    -2.463191  -0.464591  6.134630
H    -2.303421  -2.195149  5.737216
