35
Energy: -21190.324088 eV PBE+vdW (tier 2 basis)
C    -0.453575  -0.252646  0.242617
C    -0.688392  -0.178310  1.737278
O    0.220551  -0.344323  2.544577
H    -0.210979  0.752417  -0.131060
H    -1.310531  -0.630842  -0.326428
H    0.417658  -0.891405  0.070221
N    -1.970044  0.077945  2.192789
C    -3.191594  0.421426  1.460309
C    -3.818441  -0.766030  0.680212
O    -4.654496  -0.571623  -0.198889
H    -1.986114  0.205936  3.200402
H    -3.930179  0.637661  2.250235
C    -3.111823  1.675847  0.574022
C    -2.610825  2.915636  1.311260
C    -2.653844  4.165371  0.417107
N    -2.072119  5.360823  0.998872
C    -0.696428  5.564288  1.038602
N    -0.352488  6.692123  1.792748
N    0.235512  4.865269  0.488196
H    -4.121152  1.839146  0.171920
H    -2.477400  1.478323  -0.302261
H    -1.581702  2.763641  1.669948
H    -3.225743  3.096722  2.209470
H    -3.695372  4.394067  0.145415
H    -2.133429  3.966992  -0.532758
H    -2.576379  5.754425  1.787486
H    0.639642  6.891646  1.700902
H    -0.923539  7.513437  1.610203
H    -0.124830  3.997993  0.084537
N    -3.412521  -1.998376  1.086028
C    -3.921191  -3.224108  0.503703
H    -2.700606  -2.036753  1.807490
H    -4.407896  -3.851469  1.263200
H    -3.116128  -3.803146  0.029992
H    -4.658856  -2.949241  -0.257772
