35
Energy: -21190.5311982 eV PBE+vdW (tier 2 basis)
C    -0.449555  2.073379  0.716629
C    -0.980378  0.906453  1.529000
O    -0.498508  0.596919  2.619018
H    0.613880  1.901602  0.508663
H    -0.520870  2.985987  1.321341
H    -0.981237  2.229288  -0.229905
N    -2.040142  0.246097  0.972452
C    -2.564489  -0.987473  1.526174
C    -2.771772  -1.956608  0.350614
O    -2.937667  -1.546347  -0.798973
H    -2.286883  0.402577  -0.003029
H    -1.802299  -1.373879  2.222113
C    -3.894304  -0.793612  2.288892
C    -3.781090  0.164705  3.474252
C    -5.080441  0.274555  4.277495
N    -5.444532  -0.963753  4.964097
C    -6.540385  -1.709657  4.572735
N    -6.839456  -2.734523  5.488266
N    -7.189273  -1.424614  3.496035
H    -4.242023  -1.775895  2.643867
H    -4.662652  -0.436126  1.586166
H    -3.512685  1.169866  3.115053
H    -2.958881  -0.150401  4.135496
H    -5.919354  0.538861  3.618939
H    -4.980328  1.071690  5.028860
H    -5.234344  -1.000852  5.954088
H    -7.498461  -3.417146  5.129738
H    -6.028736  -3.185416  5.905838
H    -7.923501  -2.111262  3.312338
N    -2.791766  -3.274676  0.687408
C    -3.077228  -4.330668  -0.265308
H    -2.631714  -3.519969  1.657033
H    -4.014832  -4.849637  -0.019783
H    -2.260521  -5.064512  -0.297559
H    -3.177655  -3.865858  -1.251495
