35
Energy: -21190.5639161 eV PBE+vdW (tier 2 basis)
C    0.065901  -0.459176  0.364030
C    -0.034525  0.102971  1.768175
O    0.929631  0.631168  2.328907
H    -0.871919  -0.892177  -0.003885
H    0.848509  -1.227843  0.348611
H    0.381854  0.341758  -0.315874
N    -1.263360  -0.000150  2.352512
C    -1.494918  0.340972  3.742062
C    -2.314637  -0.802421  4.359081
O    -3.052110  -1.495669  3.653851
H    -1.978797  -0.599314  1.944560
H    -0.505970  0.419992  4.214751
C    -2.277382  1.665056  3.916131
C    -1.621798  2.910624  3.315879
C    -0.231707  3.290380  3.881451
N    -0.026322  3.066674  5.303339
C    -0.701219  3.721380  6.310208
N    -0.388343  3.217397  7.587598
N    -1.565334  4.673429  6.210496
H    -2.457591  1.831004  4.988288
H    -3.268237  1.528930  3.456892
H    -2.329420  3.741525  3.453216
H    -1.508331  2.789801  2.227872
H    -0.029139  4.348004  3.648795
H    0.534504  2.696328  3.369554
H    0.441143  2.205680  5.558296
H    -0.803273  3.815634  8.297837
H    0.609492  3.099445  7.750937
H    -1.792227  4.873595  5.234523
N    -2.227372  -0.984099  5.704032
C    -1.350155  -0.307874  6.649808
H    -2.832139  -1.721028  6.052537
H    -1.444953  -0.806255  7.619984
H    -1.604419  0.751344  6.793297
H    -0.295974  -0.378704  6.344768
