35
Energy: -21190.4452098 eV PBE+vdW (tier 2 basis)
C    0.098992  0.390700  -0.038994
C    -0.902950  1.065889  0.875911
O    -1.219541  2.243325  0.738585
H    0.772873  1.159850  -0.427732
H    -0.434655  -0.053455  -0.890677
H    0.680335  -0.405266  0.439990
N    -1.457943  0.317984  1.900727
C    -1.373554  -1.127453  2.131300
C    0.023329  -1.567670  2.644666
O    0.422661  -2.728969  2.528881
H    -2.202825  0.820618  2.375187
H    -2.028677  -1.300494  3.001358
C    -1.899902  -2.010344  0.970113
C    -3.000593  -3.004274  1.364312
C    -2.580414  -4.114796  2.343039
N    -1.448096  -4.913083  1.909528
C    -1.590529  -5.853146  0.914195
N    -0.357012  -6.376622  0.489766
N    -2.755195  -6.155583  0.440692
H    -1.061699  -2.550878  0.510089
H    -2.306722  -1.340739  0.201322
H    -3.378228  -3.488194  0.452970
H    -3.851735  -2.457595  1.805719
H    -3.433444  -4.788923  2.492870
H    -2.316077  -3.694059  3.325626
H    -0.554099  -4.426964  1.972813
H    0.344113  -6.460276  1.221856
H    -0.443352  -7.233636  -0.045739
H    -2.692043  -6.936112  -0.216812
N    0.728649  -0.598958  3.278410
C    2.035862  -0.822735  3.863234
H    0.331647  0.335017  3.266478
H    2.043255  -0.539368  4.924257
H    2.811197  -0.247244  3.337910
H    2.265259  -1.889678  3.775523
