35
Energy: -21190.0256138 eV PBE+vdW (tier 2 basis)
C    -2.202587  1.866469  1.158552
C    -0.902433  1.202027  1.570460
O    0.175144  1.757665  1.352973
H    -1.936465  2.832218  0.720468
H    -2.868968  2.030524  2.013870
H    -2.756449  1.278211  0.415906
N    -0.894001  -0.018911  2.213830
C    -1.866269  -1.062166  2.567348
C    -1.565608  -2.393881  1.830578
O    -1.335493  -3.404787  2.498590
H    0.067624  -0.282824  2.419518
H    -1.659991  -1.333839  3.613956
C    -3.344025  -0.670972  2.475133
C    -4.297361  -1.800018  2.877858
C    -5.762630  -1.461176  2.566535
N    -6.025737  -1.265446  1.136512
C    -5.831466  -0.055845  0.484520
N    -6.301284  1.055215  1.182810
N    -5.230312  -0.050199  -0.661899
H    -3.586125  -0.358653  1.454538
H    -3.519492  0.200484  3.122699
H    -4.200178  -2.030006  3.950621
H    -4.033552  -2.730095  2.349829
H    -6.064379  -0.550890  3.101167
H    -6.412808  -2.271148  2.927222
H    -5.675525  -2.019308  0.548558
H    -6.294231  1.918541  0.652260
H    -7.161088  0.920195  1.706981
H    -5.306061  0.862096  -1.119955
N    -1.568128  -2.443203  0.467723
C    -1.808571  -1.403725  -0.527589
H    -1.336735  -3.370704  0.125788
H    -1.077086  -0.588802  -0.452453
H    -2.827804  -0.993429  -0.476659
H    -1.697378  -1.860850  -1.516542
