35
Energy: -21190.8372764 eV PBE+vdW (tier 2 basis)
C    1.139891  -4.634791  2.076235
C    0.851943  -3.335639  2.799955
O    1.770222  -2.563860  3.125787
H    1.833613  -4.427826  1.252963
H    0.237102  -5.116231  1.685583
H    1.646405  -5.323210  2.766166
N    -0.454553  -3.086789  3.067023
C    -0.873945  -1.854163  3.732912
C    -0.779908  -1.974127  5.281983
O    -1.760047  -1.903972  6.025927
H    -1.131802  -3.861211  2.946305
H    -0.116263  -1.105715  3.454243
C    -2.249674  -1.348377  3.256092
C    -3.283869  -2.410458  2.863560
C    -3.698395  -3.375574  3.986434
N    -4.331455  -4.596645  3.499887
C    -3.580667  -5.587913  2.920346
N    -4.350927  -6.656163  2.450561
N    -2.290485  -5.479224  2.819194
H    -2.086957  -0.704972  2.379822
H    -2.652024  -0.710293  4.055340
H    -2.894815  -3.003117  2.023041
H    -4.179305  -1.896343  2.480457
H    -4.389292  -2.888390  4.686185
H    -2.834383  -3.679900  4.586166
H    -5.289462  -4.524975  3.175589
H    -3.811692  -7.455215  2.136681
H    -5.126991  -6.927206  3.048212
H    -1.873236  -6.357725  2.505659
N    0.498052  -2.138970  5.710157
C    0.842486  -2.324286  7.104022
H    1.222857  -2.187608  4.986232
H    1.233140  -3.335744  7.291937
H    -0.064450  -2.179751  7.700957
H    1.600057  -1.593875  7.420322
