35
Energy: -21190.2688682 eV PBE+vdW (tier 2 basis)
C    0.009202  -1.529014  -0.594756
C    0.634480  -0.808116  0.588657
O    1.795677  -0.407253  0.561325
H    0.759392  -1.572624  -1.388353
H    -0.874835  -0.995978  -0.973136
H    -0.297856  -2.552343  -0.341276
N    -0.144473  -0.613049  1.701749
C    -1.526722  -0.982772  1.939400
C    -2.241869  0.237635  2.548132
O    -1.684652  0.938244  3.389860
H    0.279462  -0.038640  2.429323
H    -1.989209  -1.252391  0.979214
C    -1.658598  -2.171297  2.923055
C    -1.036329  -3.465230  2.404350
C    -0.957492  -4.563403  3.475655
N    -0.346840  -5.809964  3.028919
C    0.950645  -5.865852  2.520557
N    1.899113  -5.146396  3.240125
N    1.178109  -6.631734  1.507748
H    -2.725812  -2.323467  3.153026
H    -1.178090  -1.869331  3.867704
H    -0.018069  -3.261723  2.040443
H    -1.606908  -3.847444  1.542331
H    -1.963049  -4.813552  3.844282
H    -0.418412  -4.181306  4.358978
H    -0.946134  -6.385358  2.442328
H    2.719084  -4.859758  2.720694
H    1.576286  -4.452728  3.904554
H    2.180714  -6.713540  1.319029
N    -3.519799  0.436723  2.120669
C    -4.367386  1.496253  2.638295
H    -3.885499  -0.174001  1.400340
H    -4.662199  2.192994  1.841875
H    -3.788064  2.041747  3.390349
H    -5.271929  1.087264  3.108962
