35
Energy: -21190.2626039 eV PBE+vdW (tier 2 basis)
C    -2.138447  0.681423  -1.049560
C    -1.233051  0.800626  0.166996
O    -0.461138  1.745563  0.308339
H    -1.975810  -0.254228  -1.601719
H    -1.925891  1.526343  -1.709465
H    -3.199506  0.715956  -0.761539
N    -1.318730  -0.187865  1.112925
C    -2.191374  -1.344304  1.128416
C    -2.402569  -1.715456  2.609129
O    -1.597635  -1.349836  3.467652
H    -0.791183  -0.036167  1.972860
H    -3.160464  -1.068580  0.684741
C    -1.638585  -2.563839  0.329801
C    -0.604276  -3.448604  1.036726
C    0.737219  -2.775473  1.380270
N    1.703048  -3.681018  1.977918
C    1.609131  -4.067400  3.315097
N    2.478554  -5.130403  3.609800
N    0.859888  -3.591058  4.244171
H    -1.213770  -2.167520  -0.604783
H    -2.487690  -3.195723  0.029216
H    -0.395997  -4.308296  0.379332
H    -1.033915  -3.874994  1.956544
H    0.592218  -1.940262  2.076300
H    1.186253  -2.343906  0.473173
H    2.040989  -4.416288  1.363380
H    2.507310  -5.284348  4.614213
H    3.413888  -5.020199  3.224810
H    0.191998  -2.891469  3.910117
N    -3.475249  -2.486676  2.933379
C    -4.492025  -3.053949  2.065621
H    -3.482387  -2.758307  3.912739
H    -5.409528  -3.206569  2.645300
H    -4.189006  -4.021457  1.636307
H    -4.732544  -2.368368  1.244643
