35
Energy: -21190.2777098 eV PBE+vdW (tier 2 basis)
C    2.777659  0.720333  0.086590
C    1.896380  -0.099870  1.006802
O    2.217115  -1.235770  1.361858
H    3.773597  0.809785  0.537089
H    2.387381  1.723380  -0.126857
H    2.895486  0.176470  -0.859059
N    0.736497  0.508520  1.402651
C    -0.250513  -0.135045  2.263122
C    -1.662291  -0.229077  1.647718
O    -2.263544  -1.298134  1.678545
H    0.600570  1.470109  1.118055
H    0.065527  -1.180733  2.338336
C    -0.300981  0.460151  3.688901
C    1.008835  0.355311  4.486918
C    1.294814  -1.002592  5.135663
N    1.523035  -2.046161  4.161672
C    1.648679  -3.374192  4.530040
N    2.036939  -4.189796  3.467693
N    1.465479  -3.898680  5.696768
H    -1.108704  -0.055848  4.230086
H    -0.597480  1.519671  3.631693
H    0.974597  1.095804  5.299464
H    1.860736  0.653504  3.853768
H    0.431227  -1.286696  5.761062
H    2.155011  -0.886816  5.825303
H    1.982177  -1.777179  3.289650
H    1.899519  -5.172071  3.680757
H    1.687569  -3.919358  2.553019
H    1.300455  -3.183194  6.407220
N    -2.262735  0.885942  1.117200
C    -1.771368  2.242170  0.961504
H    -3.180047  0.676333  0.734922
H    -1.212698  2.574905  1.845933
H    -2.628469  2.917855  0.860881
H    -1.140520  2.372061  0.065380
