35
Energy: -21190.2265508 eV PBE+vdW (tier 2 basis)
C    0.092367  0.334086  -0.098719
C    0.633813  0.371888  1.322669
O    1.761270  0.787821  1.573069
H    -0.785842  0.986723  -0.210577
H    -0.203507  -0.678573  -0.405177
H    0.881350  0.690702  -0.765720
N    -0.195651  -0.067509  2.322801
C    -1.552463  -0.561786  2.212237
C    -2.268822  -0.192897  3.520853
O    -1.639632  -0.058631  4.571330
H    0.152142  0.041378  3.275320
H    -2.054528  -0.055210  1.375068
C    -1.621377  -2.093519  1.937184
C    -0.987237  -2.995414  3.006264
C    -1.952267  -3.422757  4.127236
N    -1.356663  -4.271228  5.141689
C    -0.586197  -3.738819  6.179093
N    0.053568  -4.750441  6.912463
N    -0.412202  -2.511063  6.510551
H    -1.112103  -2.254412  0.976799
H    -2.671631  -2.385282  1.770205
H    -0.105829  -2.504122  3.443175
H    -0.610648  -3.906731  2.516804
H    -2.803827  -3.966506  3.687405
H    -2.375142  -2.548293  4.638661
H    -1.021863  -5.170770  4.807495
H    0.496726  -4.354974  7.737237
H    -0.545110  -5.538131  7.148988
H    -0.807499  -1.842535  5.844038
N    -3.624939  -0.068480  3.484638
C    -4.502599  -0.089326  2.325005
H    -4.031434  0.147404  4.389690
H    -5.516278  0.155539  2.658037
H    -4.538802  -1.077574  1.845011
H    -4.209981  0.657081  1.572571
