35
Energy: -21190.6902495 eV PBE+vdW (tier 2 basis)
C    -0.304610  -0.684299  -0.005614
C    -0.080001  -0.040060  1.344752
O    0.994212  0.497276  1.642329
H    0.458657  -1.456353  -0.162024
H    -0.163837  0.076532  -0.783592
H    -1.298808  -1.132204  -0.121514
N    -1.131650  -0.079690  2.210486
C    -1.100547  0.555847  3.528513
C    -0.397482  -0.378908  4.554820
O    -1.019032  -1.010992  5.416500
H    -1.965678  -0.595894  1.953434
H    -0.483361  1.460869  3.416471
C    -2.511034  0.922856  3.976650
C    -2.540522  1.792306  5.250748
C    -3.687478  1.426979  6.192856
N    -3.473447  0.102748  6.740298
C    -4.484579  -0.611653  7.347740
N    -4.137511  -1.943597  7.596571
N    -5.666808  -0.201132  7.671904
H    -3.070416  -0.008800  4.153783
H    -3.012691  1.449264  3.152169
H    -2.622875  2.853369  4.978670
H    -1.595329  1.690017  5.806021
H    -4.647362  1.473928  5.641428
H    -3.752192  2.174803  7.001798
H    -2.702635  -0.428005  6.327388
H    -3.164631  -2.099572  7.843467
H    -4.784177  -2.373932  8.250005
H    -5.826506  0.758655  7.359286
N    0.944313  -0.430031  4.395886
C    1.792375  -1.314683  5.172222
H    1.317610  0.029549  3.559202
H    1.280182  -1.557905  6.108713
H    2.743863  -0.817438  5.395492
H    2.001477  -2.253651  4.637235
