35
Energy: -21190.1877015 eV PBE+vdW (tier 2 basis)
C    0.075778  -0.024779  -0.217113
C    0.218916  -0.037877  1.294941
O    1.311832  -0.162410  1.841406
H    1.081069  -0.077855  -0.642671
H    -0.417651  0.885241  -0.583635
H    -0.506913  -0.884517  -0.573024
N    -0.922329  0.099541  2.050569
C    -2.318936  0.180696  1.627441
C    -2.984315  1.317722  2.440764
O    -3.669481  1.078963  3.433870
H    -0.749936  0.036025  3.051999
H    -2.325636  0.444304  0.560963
C    -3.096758  -1.123667  1.833050
C    -2.579180  -2.318934  1.037947
C    -3.403731  -3.588805  1.292310
N    -4.792736  -3.473319  0.852686
C    -5.893666  -3.651854  1.678969
N    -5.706900  -3.219734  2.995494
N    -6.950173  -4.204612  1.184148
H    -4.146053  -0.932179  1.560201
H    -3.090767  -1.351965  2.910505
H    -1.530656  -2.530814  1.300265
H    -2.599508  -2.093961  -0.041563
H    -3.395774  -3.830077  2.364519
H    -2.929635  -4.439311  0.777450
H    -4.996483  -3.849913  -0.067802
H    -6.554798  -3.231431  3.550684
H    -5.182359  -2.356957  3.115638
H    -7.739733  -4.147399  1.832120
N    -2.751875  2.597780  2.027613
C    -1.889111  3.056518  0.951973
H    -3.153508  3.295257  2.646511
H    -2.165478  2.604003  -0.010729
H    -0.827024  2.849576  1.149191
H    -2.013628  4.139375  0.848445
