35
Energy: -21190.4733703 eV PBE+vdW (tier 2 basis)
C    -0.584281  1.577043  -0.044700
C    -0.421436  1.198315  1.415164
O    0.565350  1.551670  2.071773
H    -0.863237  2.639368  -0.096468
H    -1.350259  0.992312  -0.567702
H    0.379001  1.459078  -0.552393
N    -1.453038  0.486004  1.939696
C    -1.625149  0.141246  3.338209
C    -3.055192  -0.437277  3.439616
O    -3.842666  -0.376959  2.494093
H    -2.295337  0.313110  1.388165
H    -0.916142  -0.661477  3.608633
C    -1.376792  1.320029  4.315832
C    -2.052977  2.634890  3.921904
C    -1.306097  3.859129  4.491590
N    -1.541766  5.106570  3.796913
C    -1.051597  5.408173  2.533778
N    0.104881  4.731081  2.156268
N    -1.643264  6.348488  1.869734
H    -0.290679  1.473929  4.347545
H    -1.680679  1.008258  5.326943
H    -3.109710  2.652530  4.228342
H    -2.058981  2.727064  2.827040
H    -0.223734  3.655808  4.482222
H    -1.564821  4.011064  5.549808
H    -2.428251  5.573118  3.957740
H    0.364114  4.871141  1.187814
H    0.262167  3.770672  2.456578
H    -1.161149  6.539150  0.988336
N    -3.361311  -1.010135  4.631769
C    -4.662360  -1.584064  4.923815
H    -2.650377  -1.026232  5.353321
H    -4.572916  -2.645634  5.191178
H    -5.274980  -1.494222  4.021339
H    -5.157656  -1.049306  5.746050
