35
Energy: -21189.9800838 eV PBE+vdW (tier 2 basis)
C    0.571008  0.399316  1.616061
C    -0.333303  -0.695799  2.125233
O    0.122743  -1.630811  2.792659
H    1.295164  0.634981  2.404463
H    0.057972  1.298617  1.270315
H    1.122266  -0.001793  0.755364
N    -1.680064  -0.695609  1.840404
C    -2.609422  0.329757  1.371793
C    -2.457898  0.637361  -0.133336
O    -1.371010  0.646033  -0.701231
H    -2.116799  -1.522000  2.237879
H    -3.596421  -0.131439  1.520770
C    -2.621078  1.638605  2.203731
C    -2.769903  1.384118  3.716809
C    -1.445697  1.475173  4.486302
N    -1.536482  0.861359  5.804584
C    -0.440646  0.287425  6.461944
N    0.510290  -0.286121  5.632805
N    -0.268713  0.257032  7.742362
H    -3.453121  2.254202  1.833188
H    -1.712910  2.222744  1.997125
H    -3.195731  0.384641  3.892622
H    -3.487882  2.100541  4.143854
H    -1.125240  2.533667  4.545374
H    -0.653477  0.958011  3.941076
H    -2.146595  1.347481  6.454609
H    0.200383  -0.805547  4.810709
H    1.204803  -0.788981  6.175359
H    -0.961791  0.836849  8.223926
N    -3.611001  0.946519  -0.804399
C    -4.986273  0.869389  -0.337968
H    -3.452358  1.156596  -1.784941
H    -5.643239  1.197865  -1.150052
H    -5.173658  1.529725  0.520785
H    -5.281492  -0.155570  -0.065869
