35
Energy: -21190.2274396 eV PBE+vdW (tier 2 basis)
C    -0.591773  1.487539  0.347177
C    -0.333771  0.309745  1.266995
O    0.786506  -0.204304  1.359794
H    -1.093399  1.154227  -0.573640
H    0.375507  1.915072  0.069877
H    -1.222348  2.258734  0.807335
N    -1.384606  -0.171501  1.999036
C    -2.797887  0.070396  1.743584
C    -3.523917  1.028336  2.713789
O    -4.361566  1.806446  2.253970
H    -1.134100  -0.972426  2.595216
H    -2.885907  0.598689  0.786366
C    -3.568214  -1.263616  1.603120
C    -3.078266  -2.081788  0.391826
C    -2.943805  -3.602071  0.614350
N    -2.199305  -4.014537  1.815022
C    -1.039122  -3.343328  2.224714
N    -0.096744  -3.139296  1.254230
N    -0.801452  -2.931969  3.436788
H    -4.638279  -1.033082  1.516298
H    -3.446555  -1.838221  2.533612
H    -2.097264  -1.695628  0.080472
H    -3.749418  -1.923706  -0.465317
H    -2.488378  -4.051968  -0.283180
H    -3.935545  -4.066357  0.703715
H    -2.804173  -4.196906  2.608199
H    0.538594  -2.352302  1.399126
H    -0.320534  -3.364718  0.295432
H    -1.596196  -3.145494  4.046106
N    -3.262308  0.987994  4.051664
C    -2.331707  0.163700  4.809611
H    -3.791423  1.687337  4.563670
H    -2.614300  0.216525  5.867036
H    -1.289586  0.497285  4.709741
H    -2.381178  -0.889881  4.510926
