35
Energy: -21190.6572911 eV PBE+vdW (tier 2 basis)
C    1.413209  -3.120557  0.730630
C    0.745996  -1.841931  1.195111
O    1.032662  -0.738086  0.719937
H    2.487839  -3.053615  0.945788
H    1.305844  -3.200524  -0.357962
H    0.998590  -4.017414  1.205358
N    -0.195894  -1.984697  2.167747
C    -0.873139  -0.803649  2.669788
C    0.093969  0.101200  3.467443
O    0.822548  -0.328096  4.373076
H    -0.358179  -2.907772  2.579160
H    -1.187579  -0.242405  1.779988
C    -2.159941  -1.125847  3.461475
C    -2.089356  -1.573348  4.931835
C    -1.476976  -2.943857  5.240663
N    -0.021886  -2.943043  5.165681
C    0.655662  -3.865160  4.409272
N    2.040406  -3.722933  4.474267
N    0.023589  -4.777587  3.729162
H    -2.713555  -1.876161  2.874327
H    -2.771843  -0.211160  3.431073
H    -3.127303  -1.596460  5.298166
H    -1.583382  -0.802690  5.535370
H    -1.854838  -3.715226  4.554443
H    -1.788673  -3.241020  6.256082
H    0.404508  -2.010212  5.172908
H    2.534808  -4.028494  3.643861
H    2.377648  -2.830923  4.826133
H    0.681010  -5.444469  3.318658
N    0.070109  1.426213  3.174107
C    -0.502859  2.065532  1.995473
H    0.732902  1.963041  3.725592
H    -0.133591  1.594973  1.073518
H    -0.199505  3.117782  1.998328
H    -1.601525  2.039384  2.009159
