35
Energy: -21190.2468602 eV PBE+vdW (tier 2 basis)
C    -0.648446  -1.072295  0.710018
C    -0.148598  -0.415951  1.980940
O    0.937281  -0.690140  2.487995
H    0.044436  -1.875376  0.447162
H    -0.692735  -0.351162  -0.118471
H    -1.660297  -1.482689  0.829985
N    -0.971502  0.519522  2.564321
C    -2.207056  1.079849  2.038781
C    -2.063470  1.898440  0.734577
O    -2.893305  1.745732  -0.164318
H    -0.580436  0.929468  3.408364
H    -2.872908  0.258179  1.739472
C    -2.903824  1.894178  3.149350
C    -4.200839  2.600050  2.744236
C    -5.323360  1.641348  2.318350
N    -6.589775  2.302062  2.042398
C    -7.391983  2.752532  3.072991
N    -8.498425  3.481998  2.605215
N    -7.083325  2.516365  4.303686
H    -2.196417  2.645717  3.535948
H    -3.104156  1.202301  3.982962
H    -4.005554  3.315454  1.929797
H    -4.559619  3.178324  3.606426
H    -5.506714  0.912906  3.120282
H    -5.038926  1.094409  1.409702
H    -6.626198  2.850538  1.189830
H    -9.187064  3.676928  3.324092
H    -8.932186  3.103522  1.766404
H    -7.835047  2.804649  4.933884
N    -1.038710  2.789188  0.593067
C    0.037458  3.154691  1.504587
H    -1.053933  3.244063  -0.314555
H    0.509370  4.065556  1.119758
H    0.807488  2.375393  1.587016
H    -0.338820  3.385805  2.509074
