35
Energy: -21190.0212233 eV PBE+vdW (tier 2 basis)
C    0.728295  -0.916544  -0.074124
C    0.414278  -1.029307  1.409153
O    1.175230  -1.608288  2.182515
H    0.775654  -1.928013  -0.497072
H    1.723188  -0.469314  -0.187723
H    0.002210  -0.327263  -0.647708
N    -0.762341  -0.436126  1.786984
C    -1.432528  -0.419729  3.093677
C    -1.399469  0.967112  3.788321
O    -2.468679  1.502659  4.087928
H    -1.280805  0.026119  1.049253
H    -2.503906  -0.525965  2.869924
C    -1.063414  -1.575508  4.041547
C    -2.061406  -1.694568  5.199232
C    -1.665105  -2.743046  6.240386
N    -1.621031  -4.083712  5.676365
C    -1.648207  -5.262521  6.410521
N    -1.943323  -5.106919  7.765324
N    -1.508744  -6.455816  5.937285
H    -0.044160  -1.461327  4.430598
H    -1.056366  -2.495612  3.438756
H    -3.063267  -1.933845  4.810314
H    -2.151203  -0.727659  5.716247
H    -2.416640  -2.740074  7.041288
H    -0.695656  -2.449478  6.694727
H    -1.140301  -4.175372  4.789303
H    -1.864967  -5.998742  8.245018
H    -1.458297  -4.358314  8.250571
H    -1.437591  -6.444869  4.916062
N    -0.210583  1.560925  4.091069
C    1.152280  1.178317  3.760468
H    -0.346123  2.473043  4.518738
H    1.245490  0.096657  3.623014
H    1.817118  1.475817  4.580978
H    1.502358  1.665267  2.836218
