35
Energy: -21190.8587725 eV PBE+vdW (tier 2 basis)
C    -1.067158  2.557410  1.308233
C    -1.177556  1.288042  2.133709
O    -0.383433  1.031884  3.042026
H    -1.067462  3.421421  1.983934
H    -1.872453  2.675127  0.573034
H    -0.102477  2.551999  0.784988
N    -2.220766  0.472286  1.808128
C    -2.368331  -0.867387  2.344244
C    -2.840931  -1.773477  1.194764
O    -3.378779  -1.303843  0.184823
H    -2.742666  0.620574  0.944358
H    -1.377505  -1.207194  2.677399
C    -3.357566  -0.935569  3.531373
C    -2.764197  -0.431262  4.849439
C    -1.663707  -1.336768  5.414199
N    -2.138917  -2.644718  5.855267
C    -1.867026  -3.832547  5.237220
N    -2.064903  -4.958241  6.039974
N    -1.414139  -3.883878  4.018454
H    -3.693084  -1.975378  3.658988
H    -4.248194  -0.348167  3.264347
H    -3.568868  -0.334212  5.596831
H    -2.334840  0.571583  4.715213
H    -1.184046  -0.838785  6.270199
H    -0.878424  -1.510672  4.669472
H    -2.606441  -2.683706  6.751335
H    -2.369024  -5.789281  5.546459
H    -2.539412  -4.829938  6.927579
H    -1.120553  -4.838226  3.797912
N    -2.624611  -3.086888  1.424039
C    -3.060490  -4.121881  0.511176
H    -2.172311  -3.347520  2.317690
H    -3.806156  -4.781500  0.980271
H    -2.212316  -4.736668  0.177117
H    -3.514376  -3.641361  -0.362346
