35
Energy: -21190.0527427 eV PBE+vdW (tier 2 basis)
C    0.332134  0.243793  0.293952
C    -0.103489  0.787485  1.644192
O    0.436335  1.756135  2.167158
H    1.344492  -0.168544  0.394383
H    0.387385  1.074635  -0.419020
H    -0.327297  -0.534861  -0.109712
N    -1.154795  0.127367  2.227400
C    -1.641362  0.390327  3.582384
C    -1.728696  1.906368  3.915569
O    -1.211886  2.363889  4.929366
H    -1.512225  -0.698466  1.762473
H    -2.679265  0.011633  3.602962
C    -0.820496  -0.348298  4.649334
C    -1.559801  -0.516866  5.980952
C    -0.666119  -1.015594  7.114829
N    0.367388  -0.030154  7.420139
C    1.223005  -0.152773  8.501628
N    1.553110  -1.477231  8.822820
N    1.611005  0.908894  9.123396
H    0.116911  0.201800  4.801903
H    -0.558065  -1.339913  4.247875
H    -2.393394  -1.227658  5.861880
H    -2.002666  0.443750  6.282319
H    -0.195897  -1.966904  6.811641
H    -1.288286  -1.240251  8.000652
H    0.086757  0.940255  7.291385
H    2.341067  -1.553256  9.456404
H    1.636503  -2.112868  8.033834
H    2.333369  0.692427  9.815229
N    -2.509390  2.690537  3.110936
C    -3.146817  2.372362  1.847793
H    -2.462640  3.669541  3.376287
H    -3.946013  3.101317  1.667438
H    -3.611224  1.379187  1.878811
H    -2.449382  2.402910  0.995687
