35
Energy: -21190.2518406 eV PBE+vdW (tier 2 basis)
C    0.588235  -0.854595  0.265377
C    0.115551  -1.078499  1.686876
O    0.649698  -1.908138  2.424950
H    1.606531  -0.444632  0.295520
H    -0.049397  -0.174723  -0.313472
H    0.639133  -1.823121  -0.245494
N    -0.930191  -0.292259  2.088306
C    -1.445883  -0.320025  3.450920
C    -2.954915  -0.610691  3.575657
O    -3.342613  -1.415122  4.418037
H    -1.233155  0.434113  1.452031
H    -0.982018  -1.204342  3.902766
C    -1.055942  0.929461  4.273335
C    0.455888  1.125828  4.433870
C    1.141712  0.056203  5.303460
N    2.568215  0.255325  5.490750
C    3.523216  0.076539  4.494322
N    3.286476  -0.961107  3.609750
N    4.579259  0.825249  4.538382
H    -1.531298  0.829929  5.261791
H    -1.494728  1.829344  3.812974
H    0.943348  1.156798  3.446720
H    0.634998  2.112873  4.887331
H    0.972113  -0.946729  4.887980
H    0.676799  0.042311  6.301227
H    2.828442  1.057265  6.058260
H    3.865948  -0.965698  2.781583
H    2.351990  -1.335862  3.459457
H    5.271578  0.526762  3.846622
N    -3.857397  0.062887  2.793269
C    -3.652971  1.077224  1.775810
H    -4.812276  -0.231641  2.974032
H    -4.586892  1.635493  1.645260
H    -3.379561  0.653381  0.795208
H    -2.891270  1.808257  2.078548
