35
Energy: -21190.1079483 eV PBE+vdW (tier 2 basis)
C    -0.451228  -0.217528  0.120611
C    -0.501523  -0.618924  1.581436
O    0.322275  -1.395475  2.072178
H    0.457912  0.379291  -0.037581
H    -1.317265  0.368237  -0.211638
H    -0.365633  -1.121027  -0.493746
N    -1.473556  -0.013343  2.323300
C    -1.758895  -0.352412  3.723849
C    -3.089613  0.258025  4.198134
O    -3.776925  -0.375842  4.993740
H    -2.217117  0.441631  1.806725
H    -1.951949  -1.434666  3.778097
C    -0.622086  -0.091880  4.745422
C    -0.087161  1.336539  4.902830
C    1.028265  1.724562  3.922098
N    2.271753  1.026437  4.244786
C    3.266744  0.772106  3.300284
N    2.797714  0.269553  2.088373
N    4.491207  1.022157  3.627581
H    0.211042  -0.763751  4.503172
H    -1.032958  -0.440383  5.703619
H    0.316258  1.438804  5.922652
H    -0.896602  2.078283  4.846354
H    1.173974  2.821489  3.951511
H    0.754077  1.477321  2.890913
H    2.722937  1.377261  5.087405
H    3.541156  -0.039857  1.472244
H    2.036250  -0.413685  2.150606
H    5.143153  0.646876  2.932787
N    -3.545778  1.461953  3.704979
C    -2.847813  2.598384  3.113745
H    -4.457518  1.672844  4.105403
H    -2.767256  3.429460  3.830288
H    -3.388749  2.961054  2.227603
H    -1.835463  2.323213  2.810737
