35
Energy: -21190.2450773 eV PBE+vdW (tier 2 basis)
C    -0.653921  1.517108  -0.956504
C    -0.494757  0.433907  0.084956
O    0.476042  -0.317724  0.136114
H    -0.803906  2.507638  -0.505942
H    -1.526208  1.305720  -1.593779
H    0.248021  1.531236  -1.573483
N    -1.538657  0.266093  0.979854
C    -2.617925  1.210700  1.253391
C    -2.178396  2.556610  1.881954
O    -2.707226  3.595215  1.488915
H    -1.328777  -0.427772  1.693645
H    -3.059151  1.522294  0.296701
C    -3.733608  0.563922  2.104898
C    -4.817126  -0.215241  1.342914
C    -4.405871  -1.540050  0.673648
N    -3.583700  -1.435091  -0.518598
C    -4.097976  -0.995422  -1.730233
N    -3.084722  -0.681876  -2.648619
N    -5.328387  -0.839911  -2.080916
H    -4.235376  1.376006  2.649735
H    -3.275634  -0.078538  2.877459
H    -5.269139  0.447261  0.588792
H    -5.618603  -0.447920  2.062082
H    -5.313695  -2.104181  0.412281
H    -3.859898  -2.169870  1.393300
H    -2.629484  -1.134726  -0.334280
H    -3.479198  -0.536744  -3.574050
H    -2.312624  -1.344238  -2.666916
H    -5.969973  -0.987864  -1.299260
N    -1.228150  2.580077  2.863710
C    -0.538763  1.493315  3.544902
H    -1.029515  3.525331  3.176598
H    0.255787  1.042888  2.933137
H    -1.233549  0.706015  3.866933
H    -0.078543  1.900643  4.451841
