35
Energy: -21190.1791456 eV PBE+vdW (tier 2 basis)
C    0.110804  -0.493900  0.260282
C    -0.568488  0.226212  1.410144
O    -0.861070  1.418224  1.361656
H    0.185688  -1.580098  0.397503
H    1.122549  -0.084701  0.137632
H    -0.440495  -0.283357  -0.663272
N    -0.797046  -0.535316  2.525749
C    -1.520578  -0.021801  3.680205
C    -0.745514  0.786908  4.745482
O    -1.411667  1.320497  5.631448
H    -0.578606  -1.522494  2.485462
H    -2.238287  0.711874  3.285076
C    -2.315148  -1.143245  4.393360
C    -1.543193  -2.015907  5.394552
C    -0.402466  -2.860574  4.805087
N    0.319839  -3.673471  5.765146
C    1.336948  -3.141990  6.555504
N    1.838888  -4.082509  7.459936
N    1.828994  -1.952054  6.534750
H    -2.786028  -1.764784  3.614534
H    -3.130634  -0.654758  4.939768
H    -2.263210  -2.696933  5.875244
H    -1.145965  -1.382203  6.200721
H    0.347621  -2.218981  4.318774
H    -0.797404  -3.532363  4.024197
H    -0.210681  -4.420239  6.203662
H    2.011644  -5.004395  7.068030
H    2.647852  -3.713713  7.951260
H    1.267303  -1.309488  5.971444
N    0.622677  0.849337  4.785451
C    1.648532  0.588382  3.779155
H    0.915414  1.427276  5.569491
H    2.613550  0.855750  4.222556
H    1.503803  1.190056  2.871580
H    1.701892  -0.471789  3.505545
