35
Energy: -21190.4194391 eV PBE+vdW (tier 2 basis)
C    -0.042383  -0.110475  0.790393
C    -0.601974  0.232884  2.157846
O    0.103369  0.734744  3.033621
H    1.018315  -0.350654  0.914043
H    -0.107749  0.768588  0.134021
H    -0.556757  -0.944259  0.299032
N    -1.921734  -0.057762  2.418492
C    -3.029251  -0.305786  1.492182
C    -3.106649  -1.762560  0.970014
O    -3.801231  -2.053531  -0.002121
H    -2.207683  0.229926  3.357482
H    -3.928756  -0.202671  2.120053
C    -3.175654  0.681745  0.314287
C    -3.006636  2.176464  0.614755
C    -3.983359  2.824979  1.614893
N    -3.566061  2.737537  3.015935
C    -4.002438  1.804921  3.937637
N    -5.287626  1.306568  3.718102
N    -3.324071  1.341306  4.939581
H    -4.167762  0.498935  -0.120007
H    -2.466421  0.409732  -0.479982
H    -3.117480  2.706037  -0.344208
H    -1.978637  2.393746  0.948703
H    -4.978778  2.374022  1.516122
H    -4.094556  3.890252  1.361165
H    -2.602772  3.017395  3.177035
H    -5.597031  0.765610  4.520444
H    -5.979028  1.988796  3.421161
H    -2.363818  1.700136  4.943868
N    -2.396782  -2.666208  1.696480
C    -2.401210  -4.085187  1.407191
H    -1.858695  -2.304350  2.477071
H    -2.820495  -4.661535  2.244036
H    -1.385982  -4.451605  1.200123
H    -3.025364  -4.241322  0.520554
