35
Energy: -21190.1814563 eV PBE+vdW (tier 2 basis)
C    -0.455853  -1.748465  0.629982
C    -0.625357  -0.735723  1.750586
O    -0.100349  0.376497  1.711006
H    0.616207  -1.927967  0.481869
H    -0.845395  -1.317118  -0.300910
H    -0.961261  -2.702218  0.823984
N    -1.434942  -1.150322  2.770299
C    -1.559266  -0.448574  4.048179
C    -1.491392  1.099399  3.967984
O    -0.711637  1.735798  4.670724
H    -1.657465  -2.153459  2.822812
H    -2.586680  -0.651644  4.397244
C    -0.549795  -0.995592  5.078591
C    -1.083846  -1.237676  6.493998
C    -2.376385  -2.091291  6.615947
N    -2.665480  -3.050681  5.541068
C    -1.750317  -3.918782  4.980124
N    -0.868916  -4.490973  5.883495
N    -1.768295  -4.089886  3.692649
H    0.284187  -0.284099  5.136022
H    -0.145521  -1.933593  4.679701
H    -1.273449  -0.275948  6.994298
H    -0.280272  -1.724493  7.063763
H    -3.257161  -1.437228  6.648335
H    -2.372160  -2.610588  7.587417
H    -3.290751  -2.707179  4.820463
H    -0.280948  -5.231107  5.521315
H    -1.214129  -4.659187  6.822687
H    -1.167137  -4.864832  3.403170
N    -2.457858  1.737336  3.237016
C    -3.353139  1.179268  2.240193
H    -2.299981  2.740011  3.203008
H    -4.185483  1.876973  2.087335
H    -3.775657  0.228077  2.583725
H    -2.856012  1.005136  1.273032
