35
Energy: -21190.1823049 eV PBE+vdW (tier 2 basis)
C    -0.848380  -0.954051  -0.691723
C    -0.631415  0.255336  0.193691
O    0.085177  1.193562  -0.150838
H    -0.224668  -1.790701  -0.345969
H    -0.534590  -0.683906  -1.703536
H    -1.884682  -1.309381  -0.702924
N    -1.227597  0.280013  1.435692
C    -2.168463  -0.645627  2.073217
C    -1.663314  -2.109612  2.036341
O    -2.299417  -3.008230  1.489317
H    -1.030908  1.145095  1.930619
H    -2.170507  -0.351660  3.136535
C    -3.610812  -0.520239  1.563019
C    -4.648681  -1.091211  2.531090
C    -6.076373  -0.922169  1.997520
N    -7.116695  -1.417091  2.888015
C    -7.517836  -0.668801  3.980098
N    -8.421694  -1.369412  4.797132
N    -7.053912  0.518479  4.178540
H    -3.694641  -1.018483  0.586220
H    -3.805962  0.550625  1.401243
H    -4.581347  -0.574640  3.500875
H    -4.447343  -2.159090  2.702535
H    -6.184021  -1.444854  1.034970
H    -6.285263  0.142080  1.826477
H    -7.133045  -2.421665  3.032035
H    -8.855735  -0.791110  5.508613
H    -9.111806  -1.919237  4.290746
H    -7.542689  0.980923  4.948441
N    -0.471714  -2.364380  2.654661
C    0.418810  -1.445788  3.345185
H    -0.183379  -3.334137  2.571765
H    1.018312  -0.837073  2.653270
H    -0.140066  -0.768493  4.004569
H    1.096969  -2.030290  3.976922
