35
Energy: -21190.3716926 eV PBE+vdW (tier 2 basis)
C    -0.968105  0.197362  -0.893020
C    -0.408223  -0.313667  0.422180
O    0.643687  -0.962146  0.471441
H    -1.853325  -0.378453  -1.199157
H    -0.196443  0.070123  -1.656864
H    -1.256942  1.255070  -0.835947
N    -1.097821  -0.028195  1.561567
C    -2.505105  0.302453  1.712110
C    -2.626977  1.511853  2.658081
O    -1.921651  1.612841  3.657136
H    -0.641076  -0.339242  2.416911
H    -2.906557  0.557220  0.721123
C    -3.303185  -0.879009  2.313717
C    -3.609788  -2.070891  1.399338
C    -2.433049  -2.905472  0.838643
N    -1.315394  -3.151381  1.726884
C    -1.417110  -3.908329  2.863681
N    -0.218012  -3.965218  3.592766
N    -2.549795  -4.435282  3.201947
H    -4.264630  -0.483833  2.677914
H    -2.766917  -1.223574  3.210865
H    -4.212705  -1.737054  0.537552
H    -4.242096  -2.752178  1.983154
H    -2.008701  -2.430987  -0.055061
H    -2.850348  -3.871007  0.512576
H    -0.456243  -2.640387  1.546174
H    -0.199604  -4.704586  4.286322
H    0.633823  -3.949542  3.037260
H    -2.450965  -5.006669  4.043579
N    -3.595461  2.412057  2.318610
C    -3.925183  3.559713  3.143689
H    -4.129433  2.248123  1.473892
H    -3.232948  3.561247  3.992248
H    -4.954906  3.498099  3.523116
H    -3.806083  4.497501  2.584162
