35
Energy: -21190.1096244 eV PBE+vdW (tier 2 basis)
C    -0.416483  0.959087  -0.670004
C    -0.790594  1.115376  0.794620
O    -1.205907  2.171837  1.257519
H    -0.160789  -0.067573  -0.961019
H    0.440550  1.610642  -0.883353
H    -1.253589  1.309235  -1.285458
N    -0.644065  -0.014943  1.557203
C    -0.854392  -0.063432  3.003722
C    -2.154002  0.662713  3.453587
O    -2.136900  1.513900  4.334637
H    -0.256724  -0.840017  1.116014
H    -1.008247  -1.131744  3.235172
C    0.353895  0.457545  3.801932
C    0.429186  -0.096911  5.230503
C    0.972322  -1.534749  5.286558
N    0.857782  -2.193549  6.575695
C    -0.332211  -2.776221  6.996887
N    -0.254511  -3.239830  8.314281
N    -1.430776  -2.927481  6.338645
H    0.294094  1.552326  3.823289
H    1.266942  0.188388  3.246686
H    -0.562134  -0.047344  5.702116
H    1.081054  0.550673  5.836058
H    2.035072  -1.540893  4.998430
H    0.462258  -2.176986  4.551127
H    1.415652  -1.792776  7.323792
H    -1.089372  -3.764091  8.559606
H    0.597551  -3.747658  8.537071
H    -1.419922  -2.406372  5.459399
N    -3.331989  0.237424  2.904357
C    -3.569201  -0.741961  1.861931
H    -4.124862  0.782815  3.227007
H    -4.606834  -1.087760  1.938387
H    -2.924982  -1.621358  1.988640
H    -3.410800  -0.338287  0.849475
