35
Energy: -21190.5724096 eV PBE+vdW (tier 2 basis)
C    0.439770  -0.794668  0.915211
C    0.007837  -0.786704  2.365960
O    0.827501  -0.789090  3.291909
H    -0.396097  -0.793862  0.205194
H    1.063062  -1.679327  0.735779
H    1.064607  0.088149  0.730946
N    -1.337009  -0.766643  2.589543
C    -1.911330  -0.728122  3.935017
C    -1.983138  -2.168391  4.517661
O    -3.029541  -2.814551  4.546411
H    -1.970667  -0.862582  1.803908
H    -1.206713  -0.142735  4.545301
C    -3.279970  -0.053969  3.915665
C    -3.804940  0.268545  5.316352
C    -5.177074  0.936288  5.273759
N    -5.647953  1.233257  6.615057
C    -6.905006  1.788180  6.826390
N    -7.112924  2.132353  8.167577
N    -7.833525  2.007794  5.960951
H    -3.994231  -0.719365  3.405485
H    -3.199121  0.871969  3.324865
H    -3.089431  0.934301  5.829609
H    -3.874487  -0.654277  5.909224
H    -5.898681  0.254017  4.797485
H    -5.131142  1.847425  4.643786
H    -4.933645  1.565394  7.257131
H    -8.078089  2.412762  8.317040
H    -6.815550  1.424118  8.833840
H    -7.505399  1.842410  5.006874
N    -0.781432  -2.617689  4.964705
C    -0.584726  -3.976542  5.431476
H    0.030693  -2.039780  4.735418
H    -0.107872  -4.606477  4.664967
H    -1.564908  -4.402289  5.670040
H    0.043133  -3.982898  6.331465
