35
Energy: -21190.4903476 eV PBE+vdW (tier 2 basis)
C    -3.828474  1.232081  0.250940
C    -2.617498  0.942538  1.115788
O    -1.466866  1.092854  0.700717
H    -3.791740  2.281478  -0.066999
H    -4.784372  1.044214  0.754404
H    -3.769467  0.614758  -0.653924
N    -2.894246  0.524679  2.386846
C    -1.865759  0.071082  3.301719
C    -2.391428  -1.203713  3.981031
O    -3.597814  -1.383687  4.151496
H    -3.840422  0.255519  2.648525
H    -0.974221  -0.151151  2.696102
C    -1.521278  1.124918  4.384807
C    -1.001388  2.458255  3.839645
C    0.375340  2.362302  3.165841
N    0.871354  3.645012  2.681648
C    1.832877  4.406050  3.316131
N    1.895256  4.214170  4.705405
N    2.594835  5.173400  2.610339
H    -0.776356  0.686936  5.069883
H    -2.428775  1.297956  4.982709
H    -0.956666  3.176074  4.674936
H    -1.719351  2.881497  3.122064
H    0.297712  1.693990  2.298197
H    1.106182  1.922902  3.864486
H    0.915678  3.760984  1.675399
H    2.481393  4.894881  5.175679
H    0.999638  4.100382  5.173182
H    3.169316  5.776584  3.203869
N    -1.431160  -2.068810  4.403253
C    -1.728128  -3.287646  5.133465
H    -0.466465  -1.856002  4.178365
H    -1.390348  -4.173849  4.579054
H    -2.814362  -3.340469  5.259291
H    -1.251997  -3.283167  6.123706
