35
Energy: -21190.0124322 eV PBE+vdW (tier 2 basis)
C    -0.560387  -1.289489  -0.269782
C    -0.996947  -1.138990  1.179116
O    -0.957721  -2.089298  1.958745
H    -1.188782  -2.053394  -0.744351
H    0.471551  -1.661237  -0.286387
H    -0.617555  -0.366745  -0.860328
N    -1.408188  0.120865  1.519743
C    -1.984683  0.645131  2.767413
C    -1.049919  1.565976  3.590869
O    -1.550105  2.558292  4.122851
H    -1.368057  0.804988  0.773437
H    -2.729588  1.375869  2.423521
C    -2.799387  -0.348719  3.636428
C    -2.103346  -1.242036  4.672614
C    -1.713301  -0.539602  5.972284
N    -1.088148  -1.493023  6.877621
C    -0.499018  -1.065781  8.060780
N    0.212423  -2.088987  8.702352
N    -0.533562  0.110106  8.585673
H    -3.362422  -0.983606  2.939366
H    -3.545564  0.270321  4.157299
H    -1.230446  -1.728081  4.217287
H    -2.799593  -2.057538  4.923189
H    -2.611473  -0.121928  6.455690
H    -1.039333  0.310755  5.774018
H    -0.595367  -2.253360  6.417016
H    0.505082  -1.788996  9.628118
H    -0.273281  -2.981943  8.730702
H    -0.973833  0.788803  7.960081
N    0.283230  1.305847  3.707378
C    1.065715  0.139831  3.327874
H    0.755305  2.022749  4.251510
H    1.835102  -0.030123  4.090894
H    1.565395  0.275407  2.356171
H    0.447422  -0.760957  3.273714
