35
Energy: -21190.2227984 eV PBE+vdW (tier 2 basis)
C    -0.666910  -1.183976  0.271522
C    -0.608817  -0.711828  1.707082
O    0.452995  -0.637521  2.333254
H    -1.654282  -1.075531  -0.194057
H    -0.375169  -2.243895  0.253098
H    0.074157  -0.627641  -0.314504
N    -1.808398  -0.401910  2.280243
C    -1.984868  -0.010377  3.680992
C    -1.167772  1.257132  4.056265
O    -0.481405  1.295334  5.070363
H    -2.639599  -0.532476  1.718255
H    -3.049147  0.267965  3.763014
C    -1.693028  -1.130629  4.696342
C    -2.359361  -2.487098  4.378677
C    -1.370601  -3.655775  4.294291
N    -0.402040  -3.428280  3.242934
C    0.333617  -4.431273  2.637114
N    1.256689  -3.929581  1.712554
N    0.205461  -5.710216  2.757563
H    -2.011783  -0.763252  5.679225
H    -0.602978  -1.226592  4.779254
H    -2.899240  -2.440992  3.420826
H    -3.108075  -2.726159  5.146965
H    -1.926607  -4.576317  4.063200
H    -0.886451  -3.813963  5.278050
H    0.020730  -2.502605  3.221541
H    1.949923  -4.627127  1.463422
H    1.655570  -3.018753  1.925702
H    -0.527507  -5.952343  3.426583
N    -1.285982  2.353317  3.244737
C    -2.109658  2.564244  2.068951
H    -0.698484  3.121936  3.551520
H    -2.254731  3.642849  1.935909
H    -3.105795  2.118153  2.190802
H    -1.657543  2.160852  1.150233
