35
Energy: -21190.0878181 eV PBE+vdW (tier 2 basis)
C    -1.132202  -0.302356  2.566301
C    -1.022910  1.091092  3.150735
O    -0.210897  1.350596  4.036930
H    -1.830139  -0.890083  3.179873
H    -0.145608  -0.769013  2.641980
H    -1.483557  -0.341694  1.531444
N    -1.892272  2.073399  2.725959
C    -2.866545  2.127812  1.633622
C    -3.722651  0.848884  1.491849
O    -3.815797  0.241121  0.427075
H    -1.703593  2.954697  3.196889
H    -3.589684  2.902583  1.945248
C    -2.284505  2.609808  0.291229
C    -1.119304  1.806966  -0.287188
C    -0.603769  2.432303  -1.581612
N    0.500447  1.654042  -2.124086
C    1.317027  2.198353  -3.100228
N    2.217982  1.251931  -3.620285
N    1.189616  3.429495  -3.460130
H    -1.961154  3.653296  0.438680
H    -3.110965  2.636853  -0.434236
H    -1.451802  0.776034  -0.481059
H    -0.288387  1.759144  0.432567
H    -0.225824  3.448596  -1.409233
H    -1.425924  2.530192  -2.314663
H    0.310642  0.663137  -2.242217
H    2.936440  1.659981  -4.208900
H    2.617538  0.624753  -2.925888
H    1.939295  3.704594  -4.099394
N    -4.422446  0.446201  2.594602
C    -4.496735  1.048328  3.915784
H    -4.959871  -0.398758  2.427637
H    -5.415198  0.701569  4.402959
H    -4.549972  2.142616  3.852839
H    -3.640549  0.783946  4.553260
