35
Energy: -21190.0997102 eV PBE+vdW (tier 2 basis)
C    -0.252473  -0.454767  0.227534
C    -0.153546  -0.230672  1.725011
O    0.918666  -0.309513  2.318683
H    -0.289338  0.511750  -0.295230
H    -1.134339  -1.036434  -0.067732
H    0.651688  -0.981127  -0.089877
N    -1.297444  0.109871  2.409345
C    -2.676682  0.188079  1.943877
C    -3.177943  -1.204457  1.457878
O    -2.873093  -2.221247  2.070316
H    -1.143707  0.153186  3.410936
H    -3.267439  0.358699  2.858122
C    -2.949340  1.386960  1.011222
C    -2.444299  2.717423  1.572915
C    -2.734492  3.883844  0.631979
N    -2.211516  5.127307  1.173314
C    -2.653147  6.340253  0.672839
N    -2.039914  7.448544  1.268699
N    -3.607467  6.378145  -0.194226
H    -4.037930  1.467012  0.855456
H    -2.497343  1.217159  0.021302
H    -1.360673  2.640140  1.755296
H    -2.909911  2.915981  2.551322
H    -3.813593  4.028779  0.491166
H    -2.321655  3.674068  -0.373479
H    -1.244689  5.095424  1.479898
H    -1.986735  8.271583  0.680498
H    -1.189390  7.286028  1.798399
H    -3.906029  7.341100  -0.366173
N    -3.989451  -1.205325  0.360691
C    -4.576371  -2.421291  -0.172159
H    -4.166283  -0.330512  -0.116066
H    -5.672520  -2.352677  -0.197679
H    -4.282750  -3.244998  0.486722
H    -4.209611  -2.629359  -1.187211
