35
Energy: -21190.6031092 eV PBE+vdW (tier 2 basis)
C    -1.316653  1.481665  2.854134
C    -1.594058  0.573619  4.025943
O    -1.275292  0.880705  5.184626
H    -0.257420  1.764657  2.868322
H    -1.908331  2.397320  2.997505
H    -1.564480  1.034617  1.884309
N    -2.280534  -0.570246  3.748057
C    -2.462285  -1.627639  4.726749
C    -1.886022  -2.913948  4.104469
O    -1.973164  -3.126772  2.895262
H    -2.376521  -0.872218  2.780701
H    -1.885667  -1.329924  5.616013
C    -3.935089  -1.887860  5.121616
C    -4.620507  -0.889745  6.071168
C    -5.128161  0.431778  5.475998
N    -4.155415  1.500665  5.565533
C    -4.408297  2.741198  5.013551
N    -3.274617  3.556350  4.935695
N    -5.529933  3.193671  4.557745
H    -3.961096  -2.875251  5.608925
H    -4.525626  -1.995008  4.198227
H    -3.971271  -0.673417  6.935036
H    -5.495649  -1.411890  6.484116
H    -6.034673  0.736587  6.025071
H    -5.441847  0.262705  4.426585
H    -3.174874  1.234086  5.652186
H    -2.563593  3.400418  5.643981
H    -3.526544  4.532571  4.820986
H    -6.261145  2.481098  4.589393
N    -1.329209  -3.784121  4.988924
C    -0.802420  -5.079885  4.600018
H    -1.256675  -3.496766  5.957654
H    -1.323185  -5.893204  5.123867
H    0.273313  -5.150011  4.811403
H    -0.960060  -5.189806  3.522230
