35
Energy: -21190.3786864 eV PBE+vdW (tier 2 basis)
C    -1.650294  -2.371463  1.166929
C    -1.167752  -1.796289  2.481115
O    -0.522931  -2.450271  3.297592
H    -1.427665  -3.441261  1.160279
H    -1.144909  -1.889461  0.319117
H    -2.729397  -2.219645  1.025437
N    -1.464381  -0.472137  2.739217
C    -2.335577  0.419815  1.978380
C    -1.794396  0.834567  0.590479
O    -2.584313  1.181240  -0.286429
H    -1.248166  -0.216369  3.697806
H    -3.292005  -0.081043  1.760898
C    -2.668857  1.700094  2.785397
C    -1.570691  2.774233  2.866003
C    -0.392256  2.465488  3.811812
N    0.814358  3.241157  3.530850
C    1.712570  2.864100  2.541179
N    1.949942  1.476512  2.472813
N    2.226895  3.766247  1.778835
H    -2.999323  1.397459  3.793237
H    -3.545884  2.145602  2.298286
H    -2.035662  3.719698  3.184287
H    -1.173239  2.963547  1.858680
H    -0.112548  1.409378  3.746749
H    -0.688363  2.643133  4.856639
H    0.674225  4.248621  3.488727
H    2.761359  1.249701  1.906015
H    1.995126  1.005514  3.374826
H    2.987777  3.390451  1.206418
N    -0.443981  0.828059  0.452126
C    0.218679  1.358421  -0.724125
H    0.129613  0.628390  1.270285
H    0.774080  2.275994  -0.479581
H    -0.549699  1.593534  -1.468067
H    0.915281  0.621990  -1.148093
