35
Energy: -21190.5822449 eV PBE+vdW (tier 2 basis)
C    -1.463876  1.121127  -0.215779
C    -1.104824  0.689484  1.191177
O    -0.045385  1.005536  1.735486
H    -1.453897  2.217555  -0.259455
H    -2.442753  0.751400  -0.545877
H    -0.686523  0.763344  -0.902882
N    -2.046935  -0.091535  1.807444
C    -1.873974  -0.559496  3.177207
C    -2.036018  -2.088107  3.246600
O    -3.000582  -2.640047  3.797729
H    -2.896215  -0.305860  1.287658
H    -0.818385  -0.325812  3.391782
C    -2.674445  0.243174  4.227536
C    -4.200983  0.107017  4.393400
C    -5.066326  0.166508  3.130420
N    -5.053062  -1.112836  2.431235
C    -4.907989  -1.223922  1.066290
N    -4.566778  -2.512962  0.654032
N    -4.973826  -0.289641  0.166809
H    -2.430851  1.295813  4.016169
H    -2.221686  0.022398  5.206271
H    -4.519306  0.927854  5.053554
H    -4.435027  -0.822082  4.931134
H    -4.705214  0.965785  2.461253
H    -6.099411  0.433377  3.406976
H    -4.608500  -1.859687  2.973143
H    -4.740695  -2.653385  -0.335508
H    -4.909835  -3.269473  1.236782
H    -5.197260  0.614616  0.587612
N    -1.054695  -2.836508  2.677877
C    0.092197  -2.406925  1.893935
H    -1.263475  -3.830835  2.697595
H    -0.155903  -2.309230  0.825956
H    0.894456  -3.146015  2.003959
H    0.470744  -1.438995  2.240019
