35
Energy: -21190.4267136 eV PBE+vdW (tier 2 basis)
C    -0.383996  1.151459  0.348163
C    0.161264  0.205540  1.397944
O    1.341808  0.186842  1.730645
H    0.448431  1.738196  -0.047703
H    -1.137288  1.829868  0.772215
H    -0.870011  0.607280  -0.473668
N    -0.744469  -0.649319  1.997450
C    -2.147407  -0.849697  1.655825
C    -3.051629  0.337823  2.028215
O    -4.011449  0.632142  1.304603
H    -0.307369  -1.322584  2.622093
H    -2.273583  -0.960367  0.567800
C    -2.613159  -2.157797  2.338756
C    -4.114610  -2.498366  2.320537
C    -4.953415  -1.895711  3.468413
N    -5.819081  -0.811894  3.022218
C    -6.519514  -0.092361  3.966200
N    -7.149352  1.040006  3.423644
N    -6.514597  -0.448001  5.209501
H    -2.276768  -2.131535  3.389241
H    -2.051268  -2.970774  1.854243
H    -4.188178  -3.591908  2.389717
H    -4.560867  -2.235052  1.349970
H    -4.293130  -1.554368  4.286923
H    -5.591665  -2.669064  3.916561
H    -5.448135  -0.257199  2.247943
H    -7.883873  1.420070  4.010654
H    -7.451268  0.939319  2.457792
H    -7.146800  0.137951  5.760743
N    -2.760466  0.951488  3.195656
C    -3.594413  1.975012  3.800661
H    -1.922274  0.642495  3.677977
H    -4.374921  2.246923  3.083456
H    -2.999297  2.863616  4.048005
H    -4.079376  1.594689  4.710869
