35
Energy: -21190.3813341 eV PBE+vdW (tier 2 basis)
C    0.288550  -0.461371  3.674136
C    -0.599154  0.376472  4.566423
O    -0.750989  0.137569  5.762265
H    -0.334585  -1.134184  3.066375
H    0.925372  -1.075904  4.315783
H    0.913536  0.140208  3.001440
N    -1.255798  1.452534  3.998009
C    -1.485097  1.719309  2.581855
C    -1.405588  3.237474  2.269529
O    -1.920523  3.708820  1.258714
H    -1.915376  1.869459  4.652938
H    -0.639887  1.280560  2.030476
C    -2.776433  1.107398  2.011778
C    -4.059532  1.434402  2.797312
C    -4.492428  0.378583  3.830708
N    -4.806372  -0.911956  3.236516
C    -3.916285  -1.980396  3.204602
N    -4.289783  -2.949040  2.262035
N    -2.841994  -2.165644  3.889613
H    -2.647087  0.018507  1.942205
H    -2.865148  1.486824  0.986445
H    -4.887953  1.563818  2.083528
H    -3.973522  2.412340  3.300718
H    -5.378837  0.745750  4.371285
H    -3.719459  0.217240  4.593718
H    -5.409489  -0.856851  2.420681
H    -5.287922  -3.139073  2.221617
H    -3.753748  -3.800894  2.402750
H    -2.628292  -1.383957  4.511829
N    -0.696295  3.968628  3.171935
C    -0.435011  5.384181  3.003109
H    -0.291438  3.465939  3.955111
H    0.630649  5.576345  2.811966
H    -0.741685  5.948577  3.893858
H    -1.015158  5.729003  2.140474
