35
Energy: -21190.1521705 eV PBE+vdW (tier 2 basis)
C    0.403139  0.647009  1.542739
C    -0.389751  -0.249790  2.468892
O    0.153928  -0.905620  3.355162
H    1.462909  0.442850  1.717644
H    0.211830  1.705926  1.766086
H    0.154133  0.454284  0.493303
N    -1.767874  -0.305688  2.354992
C    -2.707587  0.192330  1.358062
C    -2.616086  -0.564088  0.010295
O    -1.546489  -0.973724  -0.434479
H    -2.141366  -0.997999  2.997562
H    -3.695060  -0.023707  1.792210
C    -2.644468  1.711976  1.088815
C    -2.700299  2.602859  2.334647
C    -3.925327  2.398195  3.243364
N    -5.228976  2.358364  2.573704
C    -5.665562  3.329912  1.684066
N    -5.339150  4.632343  2.052898
N    -6.291003  2.955736  0.616232
H    -3.480054  1.963906  0.420103
H    -1.734058  1.942662  0.520879
H    -2.674324  3.649236  1.998037
H    -1.804566  2.451413  2.955773
H    -3.927666  3.179908  4.018757
H    -3.838276  1.450230  3.791655
H    -5.503419  1.444358  2.228234
H    -5.804519  5.355741  1.517692
H    -5.319525  4.825436  3.049899
H    -6.693860  3.751278  0.114747
N    -3.783566  -0.724144  -0.680619
C    -5.141614  -0.361612  -0.293950
H    -3.652622  -1.194972  -1.570477
H    -5.449520  -0.862317  0.637558
H    -5.293786  0.723061  -0.185295
H    -5.821256  -0.705478  -1.080833
