35
Energy: -21190.042464 eV PBE+vdW (tier 2 basis)
C    -0.534412  -0.768307  0.137339
C    -0.373581  -0.417420  1.603985
O    0.662652  -0.705716  2.212157
H    -1.489458  -0.452139  -0.299577
H    -0.433839  -1.855044  0.025335
H    0.287404  -0.306180  -0.423729
N    -1.432748  0.239564  2.160821
C    -1.666856  0.644458  3.555347
C    -1.403523  2.133517  3.903352
O    -2.129017  2.629378  4.769368
H    -2.200616  0.435363  1.530257
H    -2.760000  0.637992  3.651066
C    -1.141689  -0.400034  4.591702
C    -0.508268  0.094548  5.901058
C    0.801671  0.884967  5.798188
N    1.787200  0.217428  4.946476
C    2.986677  0.828603  4.595087
N    3.454829  1.773380  5.510887
N    3.666740  0.616631  3.518086
H    -0.437903  -1.060986  4.077152
H    -1.996054  -1.034896  4.861959
H    -0.327071  -0.804918  6.509278
H    -1.223827  0.715734  6.457660
H    1.198001  0.979043  6.821623
H    0.606449  1.913639  5.454745
H    1.383014  -0.272631  4.147841
H    4.421118  2.014347  5.311807
H    3.298076  1.557097  6.490558
H    3.160085  -0.009618  2.886216
N    -0.477903  2.890366  3.252946
C    0.643235  2.521705  2.399891
H    -0.503135  3.851710  3.582506
H    1.509592  3.139323  2.663656
H    0.414304  2.672624  1.333826
H    0.939169  1.482821  2.554613
