35
Energy: -21190.3068742 eV PBE+vdW (tier 2 basis)
C    -0.066373  1.609506  0.889805
C    -0.175327  1.543573  2.398904
O    0.719935  1.944157  3.141300
H    0.888874  2.074524  0.634346
H    -0.886465  2.186472  0.441902
H    -0.105414  0.601653  0.452045
N    -1.335885  1.021823  2.935611
C    -2.426672  0.373897  2.220780
C    -3.304353  1.352730  1.404946
O    -3.984706  0.949940  0.464058
H    -1.215535  0.733837  3.913105
H    -2.053227  -0.358108  1.485082
C    -3.371158  -0.357959  3.197450
C    -2.820725  -1.590403  3.942752
C    -2.241596  -1.342529  5.345298
N    -0.946321  -0.659491  5.350380
C    0.272997  -1.295671  5.007045
N    0.164363  -2.654821  4.724396
N    1.402062  -0.706094  4.871410
H    -4.229836  -0.672515  2.589887
H    -3.762273  0.378072  3.920699
H    -2.071540  -2.110323  3.328064
H    -3.649278  -2.303387  4.071749
H    -2.207063  -2.302784  5.892921
H    -2.934579  -0.705375  5.914226
H    -0.819882  0.018672  6.093421
H    1.079347  -3.060322  4.551949
H    -0.409776  -3.212628  5.349169
H    1.310355  0.314427  4.879287
N    -3.293106  2.636553  1.852738
C    -4.066435  3.694184  1.235764
H    -2.647108  2.846793  2.607657
H    -4.737152  4.171117  1.963799
H    -4.667515  3.243890  0.438247
H    -3.414986  4.464907  0.799242
