35
Energy: -21190.9936119 eV PBE+vdW (tier 2 basis)
C    -0.145564  0.286062  -0.312432
C    0.029303  0.455896  1.182903
O    1.093255  0.874936  1.661584
H    0.060555  1.243964  -0.805549
H    -1.145706  -0.059040  -0.599852
H    0.599905  -0.433996  -0.673037
N    -1.052467  0.135816  1.940867
C    -1.000891  0.072597  3.389687
C    -1.775868  -1.172923  3.844651
O    -2.664285  -1.671840  3.144523
H    -1.849552  -0.348207  1.528861
H    0.049203  -0.069072  3.652842
C    -1.573613  1.342696  4.065577
C    -0.707407  2.603360  3.940224
C    0.544779  2.656909  4.833744
N    1.533755  1.609623  4.599445
C    1.510539  0.409549  5.287105
N    2.265059  -0.579630  4.675299
N    0.843777  0.088744  6.357607
H    -1.755861  1.122762  5.128238
H    -2.560826  1.531490  3.616983
H    -1.322713  3.478196  4.204595
H    -0.410247  2.749954  2.891131
H    0.256821  2.630870  5.894855
H    1.042289  3.627012  4.684602
H    1.742796  1.490384  3.603346
H    3.018243  -0.282658  4.066271
H    2.489690  -1.355341  5.286867
H    0.281241  0.872899  6.691579
N    -1.411483  -1.633320  5.061536
C    -2.072668  -2.766781  5.681037
H    -0.633183  -1.175701  5.557515
H    -3.162034  -2.628831  5.683620
H    -1.717915  -2.856225  6.713030
H    -1.855612  -3.703309  5.146513
