35
Energy: -21190.4252326 eV PBE+vdW (tier 2 basis)
C    1.732078  0.570946  0.925321
C    0.922118  0.427868  2.201314
O    1.372777  0.734515  3.300883
H    2.777838  0.324886  1.136317
H    1.689692  1.622379  0.608405
H    1.367898  -0.055833  0.101269
N    -0.348506  -0.062781  2.026910
C    -1.382594  0.014643  3.061455
C    -1.412962  1.444572  3.674884
O    -1.376112  2.417736  2.920698
H    -0.678940  -0.107832  1.070961
H    -2.334548  -0.025059  2.508558
C    -1.401315  -1.186257  4.021424
C    -0.146301  -1.436542  4.865557
C    -0.440770  -2.355569  6.069819
N    0.222450  -1.965757  7.308437
C    -0.193473  -0.835551  7.976812
N    0.589517  -0.551675  9.098429
N    -1.197720  -0.136997  7.545727
H    -1.634197  -2.083516  3.425710
H    -2.262134  -1.046946  4.695835
H    0.250613  -0.484235  5.234161
H    0.652687  -1.861630  4.242688
H    -0.156601  -3.396257  5.862416
H    -1.518362  -2.350918  6.283254
H    1.216207  -2.160748  7.371175
H    0.242200  0.204553  9.676885
H    0.883970  -1.356993  9.643425
H    -1.467387  0.569689  8.233923
N    -1.595160  1.547307  5.013366
C    -1.659750  2.853642  5.639959
H    -1.477847  0.749055  5.645917
H    -2.126370  2.752333  6.626577
H    -2.258475  3.531095  5.020544
H    -0.660837  3.302208  5.759720
