35
Energy: -21190.32449 eV PBE+vdW (tier 2 basis)
C    0.467312  1.554992  0.596262
C    0.230078  0.837497  1.907538
O    1.133583  0.657300  2.725573
H    -0.347077  1.431428  -0.127887
H    1.402873  1.193768  0.155517
H    0.588986  2.625628  0.809643
N    -1.049137  0.411789  2.125187
C    -1.526082  -0.084328  3.415565
C    -1.068619  0.887244  4.542582
O    -1.137753  2.098515  4.359850
H    -1.751347  0.727342  1.468247
H    -2.613536  0.091356  3.399057
C    -1.360380  -1.617619  3.572765
C    0.005535  -2.257014  3.285269
C    1.083073  -2.062578  4.357664
N    2.355022  -2.636359  3.959124
C    3.581281  -1.997194  4.097756
N    3.529793  -0.610720  4.047146
N    4.627906  -2.737403  4.275205
H    -2.083311  -2.065363  2.874149
H    -1.728388  -1.910796  4.571318
H    0.400716  -1.882988  2.331345
H    -0.156056  -3.337266  3.141620
H    0.739664  -2.506295  5.315688
H    1.238648  -0.994934  4.536982
H    2.468958  -3.636978  4.088393
H    4.434709  -0.163992  3.970549
H    2.804601  -0.170179  3.478775
H    5.484334  -2.179404  4.234862
N    -0.729853  0.325108  5.733409
C    -0.267233  1.121037  6.855650
H    -0.586045  -0.675659  5.771929
H    -0.576189  2.156736  6.682942
H    0.829252  1.092447  6.942770
H    -0.710901  0.757919  7.791291
