35
Energy: -21190.1721802 eV PBE+vdW (tier 2 basis)
C    -0.056920  0.122640  0.168204
C    -0.400988  0.469617  1.606525
O    0.459312  0.812126  2.413387
H    1.010016  0.315291  0.030159
H    -0.623478  0.722258  -0.556509
H    -0.257441  -0.935105  -0.047273
N    -1.719893  0.392606  1.989578
C    -2.887153  -0.059589  1.235137
C    -4.027347  0.954009  1.499060
O    -4.900583  0.731196  2.335465
H    -1.863635  0.597523  2.976517
H    -2.619307  -0.038878  0.170017
C    -3.352517  -1.470287  1.614670
C    -2.325637  -2.573197  1.373042
C    -2.847869  -3.962068  1.766578
N    -3.978011  -4.412559  0.955568
C    -5.240966  -4.730537  1.447229
N    -5.601713  -4.046934  2.607396
N    -6.068780  -5.578053  0.934117
H    -4.265825  -1.685449  1.038581
H    -3.650370  -1.452651  2.674562
H    -1.408787  -2.375356  1.950479
H    -2.032453  -2.593429  0.309747
H    -3.163237  -3.962807  2.818849
H    -2.028812  -4.694296  1.685020
H    -3.733894  -4.947650  0.130560
H    -6.569476  -4.243720  2.844434
H    -5.394774  -3.051909  2.622091
H    -5.629341  -6.123838  0.187433
N    -4.002427  2.119087  0.788023
C    -2.989797  2.585637  -0.143997
H    -4.731618  2.769537  1.063851
H    -2.022547  2.770960  0.345860
H    -3.335190  3.526059  -0.585679
H    -2.839102  1.875292  -0.969091
