35
Energy: -21190.494192 eV PBE+vdW (tier 2 basis)
C    -2.033820  0.395876  -0.870035
C    -0.683280  0.112407  -0.234330
O    0.319442  0.763417  -0.522690
H    -2.366640  -0.456424  -1.480223
H    -1.927384  1.272187  -1.514394
H    -2.816742  0.585006  -0.123185
N    -0.619915  -0.906877  0.690986
C    -1.712315  -1.794724  1.073285
C    -2.735961  -1.177737  2.056347
O    -3.807010  -1.742451  2.273562
H    0.348675  -1.188542  0.922043
H    -2.306666  -2.071613  0.188666
C    -1.162151  -3.098862  1.684364
C    -0.551087  -2.951025  3.091238
C    0.619443  -3.905824  3.359235
N    1.784188  -3.653725  2.486513
C    2.302318  -2.352512  2.452047
N    2.775104  -1.911234  3.676210
N    2.254851  -1.689835  1.343878
H    -0.419149  -3.489022  0.972061
H    -1.983946  -3.825361  1.714642
H    -1.330627  -3.107988  3.850887
H    -0.183576  -1.925265  3.248588
H    0.324688  -4.953079  3.201290
H    0.933447  -3.823861  4.408447
H    1.592771  -3.922685  1.523010
H    3.185575  -2.613934  4.282243
H    3.258627  -1.021509  3.677030
H    2.784230  -0.813468  1.376750
N    -2.341170  -0.023171  2.653844
C    -3.156701  0.685386  3.617393
H    -1.438509  0.346571  2.370971
H    -4.090110  0.124384  3.737693
H    -3.391569  1.701472  3.270286
H    -2.653537  0.753787  4.592378
