35
Energy: -21190.0301998 eV PBE+vdW (tier 2 basis)
C    -0.075622  1.013893  -0.233248
C    -0.197666  0.318314  1.113387
O    0.427094  -0.709440  1.362174
H    0.980946  1.251171  -0.408768
H    -0.668931  1.932089  -0.326074
H    -0.384585  0.310539  -1.016411
N    -1.033231  0.941029  2.002853
C    -1.482275  0.518377  3.335240
C    -0.872193  1.284703  4.534748
O    -1.605443  1.511831  5.499134
H    -1.474335  1.789664  1.669117
H    -2.527836  0.851457  3.382965
C    -1.525063  -1.007357  3.609392
C    -0.292267  -1.656234  4.242639
C    -0.536131  -3.127004  4.621363
N    -0.704983  -4.051488  3.513588
C    0.372405  -4.568010  2.804502
N    -0.042485  -5.345652  1.714580
N    1.631554  -4.422440  3.032783
H    -1.779650  -1.508037  2.664661
H    -2.376355  -1.154381  4.292103
H    -0.025529  -1.118386  5.166121
H    0.558949  -1.589698  3.553523
H    -1.433279  -3.202084  5.256295
H    0.300361  -3.495023  5.233060
H    -1.556021  -3.951345  2.970569
H    0.758011  -5.798206  1.282103
H    -0.781030  -6.010585  1.931103
H    1.808516  -3.715414  3.749364
N    0.426107  1.699162  4.530554
C    1.513276  1.438757  3.598373
H    0.654309  2.207625  5.379991
H    1.578148  2.205771  2.811258
H    1.413267  0.458627  3.121508
H    2.456267  1.441749  4.157704
