35
Energy: -21190.5901534 eV PBE+vdW (tier 2 basis)
C    -1.091479  -0.013607  0.012172
C    -0.390071  0.177922  1.341013
O    0.836393  0.336645  1.400563
H    -2.183664  -0.075071  0.087899
H    -0.716386  -0.936636  -0.448301
H    -0.821608  0.815674  -0.652521
N    -1.195521  0.166644  2.439704
C    -0.786437  0.197422  3.853121
C    -0.189560  1.536916  4.349421
O    -0.618581  2.035415  5.398622
H    -2.189992  0.079065  2.272276
H    -1.725055  0.121916  4.414217
C    0.117369  -1.001937  4.224122
C    0.548088  -1.026609  5.695262
C    -0.604118  -1.250476  6.692275
N    -0.215138  -1.187694  8.088190
C    -0.090184  -0.014787  8.834963
N    -0.702916  1.104538  8.300730
N    0.460911  0.062805  10.004073
H    1.006509  -0.985883  3.580828
H    -0.436383  -1.921643  3.974576
H    1.071472  -0.093395  5.952921
H    1.287707  -1.831810  5.825667
H    -1.059667  -2.237068  6.505175
H    -1.405746  -0.515449  6.541028
H    0.395564  -1.929647  8.409991
H    -0.659805  1.288620  7.297876
H    -0.514381  1.924126  8.867278
H    0.762123  -0.858752  10.332737
N    0.819854  2.048794  3.617118
C    1.511929  3.270128  3.981592
H    1.094086  1.525271  2.775115
H    1.447859  4.010664  3.172695
H    2.572329  3.072068  4.191800
H    1.041459  3.678492  4.881739
