35
Energy: -21190.2908799 eV PBE+vdW (tier 2 basis)
C    1.321192  1.142220  1.213958
C    0.632664  0.312746  2.283723
O    1.245419  -0.441274  3.032744
H    2.004678  1.847615  1.703355
H    0.631768  1.705328  0.572309
H    1.930996  0.477286  0.590580
N    -0.727790  0.456991  2.356708
C    -1.538454  -0.215194  3.365983
C    -1.380560  -1.751431  3.362811
O    -1.301299  -2.349352  4.442757
H    -1.190327  1.098028  1.723115
H    -1.170920  0.068436  4.364159
C    -3.004056  0.246276  3.204456
C    -3.926508  0.109841  4.424190
C    -4.259974  -1.314341  4.887874
N    -4.675516  -2.155491  3.770775
C    -4.677161  -3.549720  3.820552
N    -3.667049  -4.112924  4.583026
N    -5.611082  -4.167545  3.170907
H    -3.463240  -0.270405  2.349118
H    -2.969304  1.317814  2.947818
H    -4.863586  0.633030  4.172215
H    -3.499141  0.655801  5.279564
H    -5.039488  -1.254464  5.670596
H    -3.378702  -1.761459  5.356010
H    -5.530393  -1.855480  3.306422
H    -2.772869  -3.614927  4.642693
H    -3.576897  -5.116419  4.485686
H    -5.454939  -5.178864  3.174428
N    -1.379673  -2.441439  2.193137
C    -1.537723  -1.992077  0.821085
H    -1.252553  -3.437877  2.338616
H    -1.868845  -2.846140  0.219447
H    -0.599738  -1.607724  0.393611
H    -2.308198  -1.218188  0.734791
