35
Energy: -21190.0734995 eV PBE+vdW (tier 2 basis)
C    -0.169740  0.286064  0.304258
C    -0.185521  0.526802  1.805073
O    0.790058  0.997799  2.388198
H    0.582983  -0.481564  0.082732
H    0.149287  1.208522  -0.195060
H    -1.132323  -0.034973  -0.112586
N    -1.357669  0.180429  2.424000
C    -1.703847  0.159679  3.849028
C    -2.643130  1.286447  4.347602
O    -3.564666  0.967637  5.102210
H    -2.081856  -0.184246  1.816649
H    -2.358335  -0.715802  3.964259
C    -0.534423  -0.013908  4.837650
C    0.256975  -1.322163  4.690792
C    -0.578461  -2.599737  4.604446
N    -1.450271  -2.755985  5.772080
C    -2.392792  -3.783877  5.854111
N    -1.974796  -4.986222  5.284633
N    -3.563380  -3.713592  6.387844
H    -0.987522  0.047753  5.839518
H    0.162339  0.827806  4.761977
H    0.943403  -1.397560  5.547776
H    0.887271  -1.266563  3.792649
H    0.110958  -3.453693  4.544749
H    -1.161488  -2.613925  3.663398
H    -1.841855  -1.879495  6.105529
H    -2.615702  -5.737310  5.522495
H    -1.002736  -5.233595  5.445332
H    -3.805729  -2.748982  6.631411
N    -2.442430  2.584223  3.991466
C    -1.383720  3.198861  3.206508
H    -3.148772  3.197540  4.387750
H    -1.216881  4.216089  3.580363
H    -1.642734  3.262501  2.137964
H    -0.441557  2.648175  3.297217
