35
Energy: -21190.3032646 eV PBE+vdW (tier 2 basis)
C    -0.010026  1.772317  0.848319
C    0.099691  0.888261  2.075197
O    1.070091  0.914523  2.826187
H    -0.938181  2.359999  0.843081
H    0.003981  1.171153  -0.072185
H    0.849047  2.447645  0.840697
N    -0.960166  0.042307  2.332719
C    -2.155775  -0.172173  1.528133
C    -3.317923  0.810308  1.818124
O    -4.329326  0.790519  1.119201
H    -0.791975  -0.577411  3.120941
H    -1.905846  -0.004977  0.470689
C    -2.665249  -1.619540  1.648447
C    -3.178681  -2.005309  3.039968
C    -3.758340  -3.420644  3.093727
N    -2.730926  -4.415295  2.831875
C    -2.967805  -5.775700  2.690323
N    -4.217920  -6.112075  2.169569
N    -2.001994  -6.589751  2.954429
H    -1.866305  -2.302803  1.328908
H    -3.486690  -1.725588  0.926562
H    -3.967717  -1.305136  3.352607
H    -2.382897  -1.926304  3.801706
H    -4.537432  -3.494608  2.318020
H    -4.253237  -3.571665  4.073477
H    -1.848934  -4.273777  3.317730
H    -4.471305  -7.084446  2.295558
H    -4.990283  -5.479797  2.349339
H    -2.252762  -7.556343  2.734767
N    -3.130716  1.646770  2.872057
C    -4.112474  2.632691  3.277771
H    -2.247514  1.574232  3.366227
H    -4.445801  2.459108  4.310301
H    -4.971806  2.541189  2.604595
H    -3.707006  3.651377  3.204452
