35
Energy: -21190.418241 eV PBE+vdW (tier 2 basis)
C    0.234111  -0.327133  0.317841
C    -0.864904  -0.253795  1.359294
O    -1.408686  -1.269948  1.808062
H    -0.115811  -0.939475  -0.521545
H    1.099235  -0.841394  0.757842
H    0.553884  0.652882  -0.055680
N    -1.182938  0.994798  1.786259
C    -2.196531  1.283868  2.783624
C    -2.336572  2.815098  2.787548
O    -1.437496  3.532211  2.338302
H    -0.690306  1.821992  1.450438
H    -3.143007  0.821429  2.459009
C    -1.896108  0.741486  4.207629
C    -0.528350  1.084857  4.814024
C    0.644836  0.186683  4.350474
N    0.386009  -1.240601  4.378504
C    0.515342  -2.074136  5.473249
N    1.079040  -1.483243  6.610821
N    0.239345  -3.335833  5.509162
H    -2.020451  -0.348928  4.178448
H    -2.685394  1.115388  4.874378
H    -0.627917  0.995600  5.907731
H    -0.260291  2.135892  4.620695
H    1.528140  0.395147  4.970475
H    0.930276  0.452888  3.325079
H    -0.153592  -1.618010  3.603505
H    1.047991  -2.139750  7.385631
H    0.713551  -0.571316  6.868604
H    -0.039852  -3.677979  4.585512
N    -3.467159  3.356066  3.317452
C    -4.643967  2.692918  3.852645
H    -3.447437  4.371444  3.334422
H    -5.526111  3.312569  3.652514
H    -4.576593  2.526120  4.938629
H    -4.802393  1.724898  3.364890
