35
Energy: -21190.2999676 eV PBE+vdW (tier 2 basis)
C    -1.588570  1.673505  0.127690
C    -1.084875  0.698087  1.173986
O    -0.026539  0.081855  1.044804
H    -0.839770  2.464034  -0.006457
H    -2.552521  2.132086  0.379567
H    -1.681062  1.145455  -0.829362
N    -1.885389  0.549517  2.270745
C    -1.547392  -0.356849  3.352949
C    -2.874811  -0.876372  3.920484
O    -3.807187  -0.094675  4.121469
H    -2.759493  1.057460  2.369144
H    -0.933393  -1.155544  2.916312
C    -0.723377  0.361040  4.446479
C    -0.254269  -0.542656  5.589472
C    0.561996  0.188535  6.658056
N    1.847660  0.629712  6.142952
C    2.920116  1.052749  6.914306
N    2.748052  0.892569  8.290785
N    4.050968  1.493109  6.474412
H    -1.331284  1.187656  4.846018
H    0.133367  0.810948  3.922642
H    0.352311  -1.372796  5.193938
H    -1.128441  -0.988149  6.088945
H    0.750845  -0.498358  7.495015
H    -0.044348  1.029879  7.053970
H    1.865277  0.965410  5.187847
H    3.532831  1.301084  8.789914
H    1.851928  1.184892  8.669285
H    4.105518  1.429252  5.454183
N    -2.982067  -2.203411  4.204593
C    -2.021353  -3.270319  3.960673
H    -3.880810  -2.454429  4.605755
H    -2.543985  -4.228651  4.049657
H    -1.193498  -3.266913  4.683837
H    -1.603691  -3.213281  2.947778
