35
Energy: -21190.3390371 eV PBE+vdW (tier 2 basis)
C    0.114431  -1.707483  0.534286
C    0.324310  -0.377511  1.239827
O    1.447072  0.051648  1.493762
H    -0.395611  -2.434503  1.181060
H    1.096980  -2.103913  0.266134
H    -0.488908  -1.596094  -0.378098
N    -0.794156  0.339040  1.579240
C    -2.188432  0.012994  1.362815
C    -2.960338  1.348217  1.367135
O    -2.515096  2.344739  1.934550
H    -0.629107  1.265336  1.973337
H    -2.305124  -0.456454  0.371949
C    -2.797170  -0.957026  2.415110
C    -3.051449  -0.394567  3.818676
C    -1.793853  -0.002784  4.618540
N    -2.050109  0.244273  6.026783
C    -2.275217  -0.785096  6.929993
N    -2.697920  -0.314766  8.180009
N    -2.146917  -2.055172  6.746839
H    -2.133791  -1.832701  2.482966
H    -3.750433  -1.335117  2.012435
H    -3.596246  -1.160449  4.390714
H    -3.722702  0.477211  3.762676
H    -1.339940  0.905940  4.205788
H    -1.026922  -0.788535  4.539153
H    -2.535248  1.110653  6.237169
H    -2.707217  -1.073103  8.856476
H    -2.178788  0.489266  8.524046
H    -1.947895  -2.279163  5.769561
N    -4.170915  1.312194  0.748975
C    -5.080428  2.444011  0.725012
H    -4.447934  0.455268  0.285170
H    -5.291615  2.759066  -0.305738
H    -4.594967  3.269068  1.255878
H    -6.027859  2.202776  1.226406
