35
Energy: -21190.650492 eV PBE+vdW (tier 2 basis)
C    -2.385953  1.401882  1.732997
C    -1.757625  0.625641  2.863870
O    -1.236005  1.180021  3.843865
H    -2.530668  0.801755  0.825967
H    -1.761724  2.271645  1.502493
H    -3.366349  1.761717  2.079541
N    -1.828534  -0.731330  2.773400
C    -1.349627  -1.610778  3.835639
C    0.151119  -1.943944  3.614202
O    0.537445  -3.036265  3.204458
H    -2.213057  -1.151481  1.934948
H    -1.406844  -1.013982  4.757349
C    -2.198601  -2.873046  3.958803
C    -3.698142  -2.651594  4.196267
C    -4.076729  -1.888348  5.482664
N    -4.028458  -0.429636  5.426405
C    -4.855594  0.364370  4.645089
N    -6.020667  -0.259714  4.193514
N    -4.635677  1.589489  4.301965
H    -1.775832  -3.470283  4.780902
H    -2.048561  -3.487336  3.057771
H    -4.172835  -3.643944  4.244554
H    -4.165936  -2.140294  3.342132
H    -3.418363  -2.194493  6.309840
H    -5.086740  -2.195919  5.794961
H    -3.129238  0.000750  5.610726
H    -6.672461  0.431239  3.833956
H    -6.459135  -0.906893  4.841512
H    -3.710607  1.900624  4.611078
N    0.964128  -0.894519  3.913787
C    2.393549  -0.919667  3.673600
H    0.505176  -0.010731  4.142623
H    2.685218  -1.955493  3.470694
H    2.939785  -0.556479  4.554024
H    2.670542  -0.299966  2.807401
