35
Energy: -21190.0299703 eV PBE+vdW (tier 2 basis)
C    1.185456  1.500441  1.152901
C    0.667464  1.142213  2.534570
O    1.341988  1.286980  3.549889
H    2.130037  0.970017  0.980885
H    1.406519  2.574890  1.128233
H    0.488111  1.263216  0.339361
N    -0.602439  0.629959  2.573345
C    -1.288403  0.341980  3.824035
C    -0.844437  -0.899317  4.635804
O    -1.176866  -0.942921  5.818634
H    -1.122311  0.558335  1.707416
H    -1.063603  1.165001  4.517413
C    -2.810928  0.290044  3.611409
C    -3.303594  -0.887829  2.762231
C    -4.824182  -0.924276  2.590299
N    -5.487698  -1.117048  3.866124
C    -6.861254  -1.119298  4.048987
N    -7.584383  -0.368875  3.116289
N    -7.338946  -1.717933  5.086956
H    -3.130634  1.241866  3.157168
H    -3.274809  0.245899  4.604122
H    -2.970064  -1.837539  3.212196
H    -2.864198  -0.863545  1.751397
H    -5.080153  -1.715390  1.856588
H    -5.147289  0.038269  2.158953
H    -5.041086  -1.759671  4.514814
H    -8.577786  -0.567625  3.115590
H    -7.204790  -0.299462  2.177868
H    -8.350440  -1.590201  5.163473
N    -0.160294  -1.941176  4.074127
C    0.364053  -2.162675  2.735674
H    0.071912  -2.637621  4.776115
H    -0.396987  -1.997103  1.964262
H    1.238932  -1.534463  2.514735
H    0.674266  -3.211901  2.669483
