35
Energy: -21190.0933928 eV PBE+vdW (tier 2 basis)
C    1.546665  0.514773  0.945334
C    0.603004  0.931404  2.060980
O    0.885426  1.818437  2.859333
H    2.443167  0.069209  1.395549
H    1.866804  1.411436  0.401868
H    1.114664  -0.201917  0.235655
N    -0.587683  0.251466  2.098040
C    -1.607087  0.391768  3.139054
C    -1.782913  1.839293  3.671052
O    -1.786823  2.070841  4.874624
H    -0.722505  -0.494656  1.426173
H    -2.565692  0.154266  2.644834
C    -1.432922  -0.615529  4.290999
C    -0.076617  -0.598917  4.998723
C    0.039705  -1.687444  6.078330
N    -0.805117  -1.525211  7.248621
C    -0.458765  -0.691832  8.306612
N    -1.471459  -0.629382  9.273248
N    0.625727  -0.021098  8.484240
H    -1.617051  -1.623494  3.879198
H    -2.235123  -0.409305  5.014413
H    0.097471  0.392457  5.436057
H    0.728425  -0.772407  4.267741
H    1.079364  -1.748381  6.431315
H    -0.190104  -2.671929  5.638158
H    -1.804488  -1.613132  7.096610
H    -1.857743  -1.532387  9.536836
H    -1.154886  -0.101081  10.081407
H    1.212315  -0.012889  7.647231
N    -2.094811  2.818156  2.765929
C    -2.092714  2.775090  1.316715
H    -2.145816  3.732500  3.204478
H    -2.708738  3.601559  0.942482
H    -2.538136  1.842738  0.948883
H    -1.083201  2.872450  0.886242
