35
Energy: -21190.1585939 eV PBE+vdW (tier 2 basis)
C    0.337327  1.269236  1.248220
C    -0.528071  0.025927  1.236788
O    -0.160970  -1.041391  0.745616
H    -0.200729  2.143554  0.856910
H    1.224629  1.070887  0.641728
H    0.652121  1.518124  2.272224
N    -1.773997  0.137844  1.805929
C    -2.299903  1.270986  2.550414
C    -1.694741  1.495429  3.954229
O    -1.531952  2.643819  4.367696
H    -2.307802  -0.726130  1.780784
H    -2.044798  2.196573  2.009682
C    -3.843647  1.201131  2.657289
C    -4.468292  2.601930  2.619615
C    -4.516915  3.163861  1.180783
N    -4.353445  4.605945  1.077296
C    -3.074890  5.140834  1.094446
N    -3.080701  6.533101  1.254652
N    -2.037468  4.379824  0.996329
H    -4.141644  0.670533  3.574105
H    -4.223490  0.603381  1.812480
H    -3.870380  3.272325  3.253560
H    -5.481748  2.577020  3.046853
H    -5.465687  2.888518  0.697687
H    -3.708513  2.728049  0.580498
H    -5.045096  5.162662  1.569796
H    -2.180055  6.968596  1.088025
H    -3.828630  7.017933  0.764986
H    -1.179004  4.931102  0.938252
N    -1.359113  0.422896  4.737405
C    -1.568916  -1.004170  4.537792
H    -0.978195  0.715966  5.631502
H    -2.593730  -1.227757  4.210424
H    -1.424137  -1.504173  5.502310
H    -0.865633  -1.441353  3.815881
