35
Energy: -21190.0638482 eV PBE+vdW (tier 2 basis)
C    -0.569472  0.042189  -0.440415
C    -0.102738  0.007599  1.004263
O    1.086936  0.028369  1.306977
H    0.318434  0.013377  -1.076944
H    -1.129546  0.962184  -0.661770
H    -1.217307  -0.809718  -0.686935
N    -1.070323  -0.031757  1.979961
C    -2.518677  -0.104059  1.823669
C    -3.200853  0.785334  2.892488
O    -3.985228  0.325413  3.719710
H    -0.689375  -0.097001  2.920625
H    -2.762125  0.342254  0.847106
C    -3.077105  -1.538391  1.831334
C    -2.610619  -2.414781  2.995662
C    -3.278945  -3.788156  2.972217
N    -2.779153  -4.613711  4.057017
C    -3.177399  -5.915704  4.305730
N    -3.653970  -6.610283  3.188882
N    -2.997010  -6.399484  5.489032
H    -2.787231  -2.013482  0.880369
H    -4.174715  -1.468209  1.834337
H    -2.849855  -1.914382  3.945711
H    -1.520044  -2.556052  2.954483
H    -3.047598  -4.277260  2.010488
H    -4.379177  -3.652874  3.017918
H    -2.561463  -4.132451  4.924386
H    -4.163100  -7.454721  3.421370
H    -4.118254  -6.066018  2.468967
H    -3.258266  -7.386915  5.534099
N    -2.892616  2.116551  2.873982
C    -2.057740  2.856422  1.940815
H    -3.351644  2.636091  3.615511
H    -0.984375  2.724721  2.135983
H    -2.301191  3.920868  2.029420
H    -2.259416  2.561222  0.902261
