35
Energy: -21190.5002636 eV PBE+vdW (tier 2 basis)
C    -0.191382  1.807725  1.438515
C    -0.044928  0.574033  2.308258
O    0.924050  0.390999  3.039261
H    0.638927  2.480868  1.665793
H    -1.143059  2.326976  1.616100
H    -0.151728  1.545632  0.371412
N    -1.067648  -0.350603  2.259091
C    -2.253654  -0.341406  1.413918
C    -3.484286  0.378410  2.022504
O    -4.528214  0.466375  1.367974
H    -0.884973  -1.181051  2.817321
H    -2.027131  0.224541  0.498628
C    -2.648822  -1.763522  0.986946
C    -3.003989  -2.725422  2.143998
C    -4.357424  -3.430818  1.948629
N    -5.519908  -2.557845  2.110290
C    -5.939468  -2.111186  3.364897
N    -5.758265  -3.029840  4.402836
N    -6.466066  -0.964141  3.625766
H    -1.833676  -2.180495  0.379697
H    -3.508395  -1.646216  0.312868
H    -3.050929  -2.193002  3.107874
H    -2.221366  -3.490663  2.254712
H    -4.438705  -4.264808  2.655845
H    -4.408306  -3.872979  0.941766
H    -5.556651  -1.799805  1.430564
H    -6.248054  -2.713540  5.235005
H    -5.986557  -3.992915  4.171129
H    -6.396587  -0.344135  2.812873
N    -3.315684  0.891276  3.259492
C    -4.361520  1.598137  3.980856
H    -2.426012  0.711728  3.712415
H    -5.034871  0.897605  4.496572
H    -4.957839  2.177482  3.266493
H    -3.901284  2.279224  4.705053
