35
Energy: -21190.4405036 eV PBE+vdW (tier 2 basis)
C    -2.062447  -1.210052  3.412991
C    -0.787141  -0.844478  2.677066
O    -0.563685  -1.210248  1.528517
H    -2.907339  -0.716286  2.915293
H    -2.061045  -0.925650  4.472762
H    -2.223111  -2.291234  3.329387
N    0.108781  -0.084289  3.399798
C    1.282167  0.528299  2.790262
C    2.621686  0.037984  3.387258
O    3.663989  0.660027  3.192463
H    -0.207104  0.298747  4.285427
H    1.275523  0.173315  1.745664
C    1.206389  2.059386  2.815771
C    0.116366  2.640517  1.917802
C    -0.030842  4.161335  2.055792
N    -0.482846  4.579590  3.381973
C    0.210614  5.418582  4.246681
N    1.591158  5.441642  4.057725
N    -0.305659  6.154908  5.173913
H    2.196417  2.431739  2.515742
H    1.043936  2.386001  3.857965
H    -0.854996  2.169484  2.141125
H    0.336565  2.402062  0.865061
H    -0.741453  4.528382  1.298004
H    0.925241  4.660891  1.849043
H    -1.487114  4.629330  3.505636
H    2.041444  5.970486  4.798334
H    2.040232  4.546843  3.885958
H    -1.327600  6.170342  5.112848
N    2.551652  -1.123156  4.091249
C    3.723204  -1.787993  4.625818
H    1.643709  -1.569670  4.154337
H    4.580147  -1.123142  4.473498
H    3.916210  -2.738467  4.107805
H    3.607952  -1.986228  5.700032
