35
Energy: -21190.5246448 eV PBE+vdW (tier 2 basis)
C    -0.259334  0.063099  1.197840
C    -1.571614  -0.538858  1.670100
O    -1.660024  -1.742207  1.913812
H    0.369724  0.262627  2.077090
H    -0.359187  0.996318  0.633188
H    0.257216  -0.684616  0.587292
N    -2.669764  0.282274  1.811027
C    -2.701132  1.744404  1.873674
C    -2.426758  2.446255  0.524547
O    -1.997109  3.597071  0.468537
H    -3.431311  -0.155319  2.359210
H    -3.764202  1.967359  2.064298
C    -1.885535  2.370605  3.024289
C    -2.130700  1.670206  4.365304
C    -3.572296  1.814382  4.899350
N    -4.040779  0.682661  5.685055
C    -4.553145  -0.440146  5.073815
N    -4.930256  -1.451051  5.956390
N    -4.735678  -0.479010  3.790263
H    -2.142684  3.437744  3.077416
H    -0.814126  2.339460  2.783172
H    -1.420714  2.057593  5.111332
H    -1.909931  0.598192  4.258678
H    -4.284630  1.915969  4.072179
H    -3.666423  2.719546  5.515670
H    -3.606384  0.547983  6.590469
H    -4.870311  -2.389587  5.579223
H    -4.600329  -1.386948  6.913722
H    -5.237043  -1.328577  3.523785
N    -2.765313  1.705684  -0.566021
C    -2.624221  2.190994  -1.922393
H    -3.064436  0.751506  -0.390262
H    -2.270166  3.226361  -1.869500
H    -3.585705  2.169048  -2.454247
H    -1.894650  1.593847  -2.488578
