35
Energy: -21190.216466 eV PBE+vdW (tier 2 basis)
C    -0.559401  -2.554536  0.680005
C    -0.700495  -2.299918  2.165959
O    -0.002665  -2.877078  2.996835
H    -1.376636  -3.198339  0.324961
H    -0.582315  -1.639831  0.076999
H    0.386922  -3.078484  0.522441
N    -1.669729  -1.417494  2.596061
C    -2.594139  -0.563289  1.846026
C    -3.407633  -1.368792  0.803053
O    -3.387439  -1.101703  -0.401630
H    -1.660982  -1.310817  3.606091
H    -3.327911  -0.221750  2.596655
C    -1.935159  0.678174  1.231992
C    -2.932169  1.770621  0.839876
C    -2.312017  2.871444  -0.033560
N    -1.553005  2.389920  -1.195326
C    -2.163828  2.073795  -2.412590
N    -3.297988  1.278158  -2.297561
N    -1.640462  2.550511  -3.493479
H    -1.214721  1.066862  1.967253
H    -1.356644  0.392237  0.343701
H    -3.345547  2.252371  1.741339
H    -3.787248  1.332396  0.308694
H    -1.595015  3.442964  0.573385
H    -3.108239  3.573638  -0.337180
H    -0.740654  2.964402  -1.401067
H    -3.674731  0.977496  -3.189490
H    -3.256872  0.516010  -1.616334
H    -2.066299  2.130274  -4.324734
N    -4.167035  -2.398362  1.269142
C    -4.332520  -2.875941  2.633030
H    -4.652039  -2.897965  0.530056
H    -5.242192  -3.484912  2.676460
H    -4.462511  -2.041061  3.333948
H    -3.482627  -3.484552  2.971848
