35
Energy: -21190.3314586 eV PBE+vdW (tier 2 basis)
C    -0.151627  -0.279884  1.172287
C    -1.033855  -0.059230  2.389738
O    -0.672879  -0.379891  3.520747
H    0.051016  0.656800  0.633685
H    -0.612779  -0.978615  0.460309
H    0.795905  -0.701271  1.517377
N    -2.251881  0.536899  2.188620
C    -2.939290  0.780332  0.930483
C    -3.760626  2.087144  1.029997
O    -4.961179  2.128923  0.735436
H    -2.860748  0.567705  3.009824
H    -2.173380  0.970309  0.161419
C    -3.800907  -0.409700  0.447531
C    -4.507191  -1.260923  1.517436
C    -5.558978  -0.576607  2.399478
N    -4.953211  0.198299  3.498027
C    -5.632097  1.256755  4.138480
N    -6.441417  2.009483  3.309849
N    -5.526365  1.559899  5.388641
H    -3.139778  -1.083567  -0.117687
H    -4.540762  -0.019111  -0.264269
H    -3.757293  -1.751358  2.159884
H    -5.011669  -2.081198  0.984532
H    -6.238833  -1.344540  2.808942
H    -6.171389  0.099066  1.795310
H    -4.536016  -0.410562  4.199957
H    -6.776133  2.845341  3.776485
H    -6.115395  2.157224  2.352834
H    -4.994140  0.852831  5.903212
N    -3.113030  3.209701  1.439354
C    -1.706174  3.414694  1.752552
H    -3.729705  4.013290  1.508276
H    -1.446170  3.069407  2.761720
H    -1.493719  4.487187  1.678716
H    -1.058813  2.899842  1.031899
