35
Energy: -21190.3320624 eV PBE+vdW (tier 2 basis)
C    -0.057632  0.310628  -0.270642
C    0.176990  0.218808  1.224362
O    1.296242  0.274765  1.724304
H    0.896757  0.547224  -0.747478
H    -0.797271  1.081081  -0.527616
H    -0.421685  -0.646270  -0.672316
N    -0.938370  0.084021  2.026695
C    -2.325232  -0.102804  1.627674
C    -3.180377  1.187893  1.620633
O    -4.360115  1.143477  1.278271
H    -0.707291  -0.042169  3.010035
H    -2.340156  -0.443814  0.583153
C    -3.010040  -1.169509  2.500157
C    -2.416461  -2.576491  2.378078
C    -2.577398  -3.198901  0.992532
N    -2.066810  -4.569414  0.996258
C    -1.895707  -5.311122  -0.172433
N    -2.779634  -4.974655  -1.195357
N    -1.022523  -6.237569  -0.375880
H    -4.074751  -1.173166  2.230338
H    -2.961450  -0.843272  3.552265
H    -2.908755  -3.228620  3.115417
H    -1.345521  -2.559376  2.642555
H    -2.062675  -2.589876  0.227443
H    -3.647122  -3.198251  0.727822
H    -1.314141  -4.724429  1.660018
H    -2.736405  -5.654631  -1.948307
H    -3.730583  -4.758908  -0.911926
H    -0.352404  -6.298351  0.395386
N    -2.531172  2.320067  1.996436
C    -3.170978  3.620560  2.024172
H    -1.550526  2.230188  2.240481
H    -2.681416  4.318860  1.331302
H    -3.149226  4.051167  3.034679
H    -4.213223  3.484117  1.716259
