35
Energy: -21189.9691086 eV PBE+vdW (tier 2 basis)
C    0.472507  0.270016  0.174945
C    0.318628  0.262339  1.682546
O    1.240519  0.573583  2.437397
H    1.424573  -0.204350  -0.087237
H    0.516165  1.313914  -0.163480
H    -0.343906  -0.236995  -0.353850
N    -0.911742  -0.102594  2.147808
C    -1.285332  -0.003642  3.558516
C    -0.877337  1.401722  4.093030
O    -1.420727  2.369272  3.561582
H    -1.655937  -0.234423  1.474956
H    -2.378134  0.116281  3.548764
C    -1.016377  -1.300984  4.358526
C    0.260351  -2.085242  4.046509
C    0.419472  -3.336553  4.921907
N    -0.665570  -4.319426  4.824861
C    -1.009321  -4.916511  3.615838
N    0.084829  -5.311139  2.843197
N    -2.257848  -5.033855  3.310876
H    -1.871581  -1.964601  4.156165
H    -1.078865  -1.061113  5.432342
H    1.155026  -1.461693  4.164835
H    0.246392  -2.394424  2.991401
H    0.487590  -3.055795  5.983877
H    1.374338  -3.825920  4.681195
H    -1.519653  -4.045035  5.303333
H    -0.150841  -5.917085  2.065873
H    0.896985  -5.636088  3.360139
H    -2.388725  -5.620948  2.482379
N    -0.092219  1.578857  5.202004
C    1.025124  0.773965  5.681707
H    -0.018473  2.574138  5.396413
H    1.582699  1.377675  6.405949
H    1.698101  0.498284  4.859185
H    0.690538  -0.132645  6.201882
