35
Energy: -21190.1402607 eV PBE+vdW (tier 2 basis)
C    -1.029199  1.968501  0.798239
C    -0.620078  1.036953  1.926690
O    0.299743  1.303429  2.693954
H    -0.365133  2.836010  0.825552
H    -2.067386  2.312763  0.907844
H    -0.942890  1.481998  -0.183392
N    -1.337527  -0.128536  2.069709
C    -2.369278  -0.660919  1.182536
C    -3.401285  -1.352727  2.100991
O    -3.312814  -2.547967  2.379435
H    -0.978593  -0.749424  2.791959
H    -2.844659  0.193684  0.682232
C    -1.813711  -1.613478  0.110825
C    -2.727751  -1.799772  -1.106715
C    -4.050234  -2.512970  -0.820532
N    -4.818235  -2.668242  -2.045452
C    -6.156303  -3.035255  -2.098099
N    -6.802468  -3.055548  -0.861154
N    -6.843333  -3.270154  -3.165723
H    -1.594215  -2.581265  0.585052
H    -0.855333  -1.196572  -0.229509
H    -2.172627  -2.376410  -1.864901
H    -2.946415  -0.821145  -1.565585
H    -4.658890  -1.918418  -0.124258
H    -3.840551  -3.477166  -0.318486
H    -4.290340  -2.904032  -2.877859
H    -7.744201  -3.421819  -0.963922
H    -6.295601  -3.488100  -0.094237
H    -6.292949  -3.090553  -4.009934
N    -4.387566  -0.565357  2.617638
C    -4.543015  0.874767  2.481644
H    -4.988678  -1.050199  3.276615
H    -3.680863  1.424183  2.887180
H    -5.433191  1.178377  3.041731
H    -4.697921  1.172792  1.434899
