35
Energy: -21190.3587382 eV PBE+vdW (tier 2 basis)
C    -0.507091  0.352076  0.835471
C    -0.797848  -0.096857  2.247937
O    0.084369  -0.497216  3.002562
H    0.371016  -0.199602  0.484719
H    -0.251346  1.425383  0.819107
H    -1.341451  0.196349  0.141434
N    -2.112650  -0.080453  2.699448
C    -3.296624  0.566968  2.126732
C    -3.882770  -0.168289  0.891956
O    -4.649801  0.401479  0.118176
H    -2.158988  -0.320898  3.685622
H    -4.076008  0.450715  2.899061
C    -3.145974  2.070353  1.846334
C    -2.760520  2.882251  3.082177
C    -2.436132  4.353709  2.778385
N    -1.246814  4.559285  1.955917
C    -1.198760  4.369616  0.580248
N    -2.246537  4.928386  -0.141425
N    -0.161366  3.781362  0.078398
H    -4.100190  2.420177  1.430195
H    -2.399643  2.210465  1.054388
H    -1.880617  2.433073  3.571145
H    -3.575101  2.850261  3.826230
H    -2.280289  4.895777  3.722385
H    -3.299372  4.840824  2.300250
H    -0.390449  4.193615  2.366876
H    -2.464986  4.471233  -1.017865
H    -3.066635  5.232832  0.369801
H    -0.149420  3.855981  -0.942262
N    -3.527525  -1.475503  0.788043
C    -3.992329  -2.335374  -0.281066
H    -2.852520  -1.820297  1.462787
H    -4.502687  -3.222203  0.119075
H    -3.159950  -2.664710  -0.919389
H    -4.699245  -1.759561  -0.888073
