35
Energy: -21190.1256393 eV PBE+vdW (tier 2 basis)
C    -0.565293  1.228730  0.344998
C    -0.674813  0.572068  1.704833
O    0.311318  0.128845  2.301192
H    -1.043979  2.216999  0.331032
H    -1.043538  0.616148  -0.432545
H    0.495562  1.332367  0.103941
N    -1.919222  0.497488  2.273896
C    -3.203861  0.633543  1.591618
C    -4.259484  1.118605  2.606697
O    -4.725989  2.251206  2.543016
H    -1.909350  0.060354  3.193267
H    -3.117923  1.479858  0.903008
C    -3.650848  -0.628767  0.761759
C    -2.739691  -1.859776  0.845616
C    -2.821188  -2.627295  2.171727
N    -1.787997  -3.643681  2.320966
C    -0.874721  -3.657625  3.379277
N    -0.530409  -2.395953  3.861065
N    -0.365037  -4.711385  3.922786
H    -3.722384  -0.318986  -0.289248
H    -4.676420  -0.906669  1.051423
H    -1.690062  -1.584050  0.674138
H    -3.003273  -2.544430  0.024922
H    -3.821469  -3.086113  2.271062
H    -2.697108  -1.945787  3.024581
H    -2.036887  -4.573553  2.004202
H    -0.228955  -1.692943  3.177671
H    0.157668  -2.492663  4.602921
H    -0.822532  -5.563709  3.585560
N    -4.603705  0.219548  3.577188
C    -5.567225  0.528110  4.619006
H    -4.262909  -0.732876  3.511148
H    -5.713445  1.612948  4.627460
H    -5.190288  0.202999  5.596834
H    -6.538267  0.046401  4.431477
