35
Energy: -21190.0009989 eV PBE+vdW (tier 2 basis)
C    0.870312  0.318006  0.207211
C    0.532931  0.431632  1.679468
O    1.339014  0.855079  2.508174
H    0.153159  -0.284335  -0.363585
H    1.870790  -0.116133  0.104492
H    0.900321  1.329272  -0.220300
N    -0.729336  0.041347  2.028154
C    -1.277179  0.250886  3.367930
C    -1.001327  1.720407  3.807370
O    -1.523344  2.601435  3.125626
H    -1.380902  -0.175595  1.284820
H    -2.364744  0.308011  3.217867
C    -1.048408  -0.946478  4.322632
C    0.285850  -1.689397  4.234497
C    0.401554  -2.833524  5.255777
N    -0.581750  -3.899760  5.139793
C    -0.535335  -4.846559  4.125301
N    -1.680293  -5.655197  4.102072
N    0.392078  -5.044705  3.252932
H    -1.847946  -1.671016  4.099099
H    -1.242081  -0.606531  5.352858
H    1.132208  -1.008476  4.384738
H    0.400910  -2.094012  3.218859
H    0.320878  -2.431182  6.277543
H    1.401386  -3.287610  5.187458
H    -1.515154  -3.681598  5.471454
H    -1.555048  -6.420920  3.445553
H    -1.977173  -5.990075  5.015462
H    1.109464  -4.317698  3.287846
N    -0.361929  2.042860  4.975458
C    0.728140  1.352012  5.655144
H    -0.359537  3.054267  5.079880
H    1.173520  2.054470  6.367810
H    1.501001  1.033876  4.943442
H    0.377036  0.484716  6.229045
