35
Energy: -21190.0633935 eV PBE+vdW (tier 2 basis)
C    -0.782455  -0.124060  -0.447550
C    -1.062543  0.771832  0.737090
O    -0.777967  1.975335  0.708972
H    -0.070982  -0.915033  -0.178050
H    -0.352647  0.502637  -1.232835
H    -1.692285  -0.592250  -0.841721
N    -1.625012  0.259448  1.880800
C    -2.186488  -1.043029  2.249114
C    -1.439420  -2.216526  1.569422
O    -0.256357  -2.421926  1.825000
H    -1.692618  0.976177  2.599108
H    -1.906169  -1.191322  3.304172
C    -3.732998  -1.054783  2.192042
C    -4.361566  -0.576360  0.867102
C    -4.979410  0.834593  0.955276
N    -5.176583  1.474892  -0.348713
C    -4.018428  1.939467  -1.005010
N    -3.386555  2.994532  -0.368773
N    -3.679163  1.404789  -2.130233
H    -4.090869  -0.408632  3.010018
H    -4.076049  -2.064146  2.464364
H    -5.140580  -1.279824  0.534365
H    -3.611050  -0.550974  0.064561
H    -4.318130  1.478124  1.551704
H    -5.942863  0.796118  1.485767
H    -5.676357  0.867587  -0.998291
H    -3.810781  3.310439  0.496125
H    -2.369250  2.953134  -0.319862
H    -2.928965  1.947731  -2.570476
N    -2.172920  -3.006904  0.738624
C    -1.588077  -4.123558  0.019519
H    -3.114684  -2.721257  0.501338
H    -2.265973  -4.985863  0.036516
H    -0.648154  -4.387713  0.514422
H    -1.370140  -3.860721  -1.026612
