35
Energy: -21190.2415759 eV PBE+vdW (tier 2 basis)
C    0.381156  0.164191  0.297306
C    0.159157  0.207485  1.795819
O    1.006666  0.635370  2.576537
H    -0.327318  -0.483079  -0.234235
H    1.402820  -0.177012  0.099207
H    0.287081  1.185766  -0.095571
N    -1.057654  -0.256506  2.222831
C    -1.523058  -0.100283  3.599566
C    -1.231227  1.346267  4.086475
O    -1.675983  2.296394  3.450458
H    -1.752300  -0.470735  1.518726
H    -2.621682  -0.103052  3.535682
C    -1.142203  -1.287150  4.512208
C    0.327735  -1.715508  4.554402
C    0.583011  -2.886620  5.520066
N    -0.124016  -4.122531  5.226327
C    0.237506  -4.958564  4.177718
N    -0.690496  -5.991111  3.982020
N    1.269991  -4.886286  3.410983
H    -1.735577  -2.147369  4.163641
H    -1.510530  -1.063230  5.528246
H    0.989889  -0.884836  4.841965
H    0.648378  -1.997261  3.542245
H    0.306611  -2.593734  6.544891
H    1.659808  -3.110786  5.547579
H    -1.111757  -4.136099  5.456399
H    -0.333477  -6.658488  3.303599
H    -0.992797  -6.452049  4.836882
H    1.799546  -4.025294  3.561593
N    -0.583601  1.481967  5.277586
C    -0.191287  2.795711  5.758454
H    -0.042470  0.688986  5.599778
H    0.000322  2.747827  6.836551
H    -1.007325  3.499714  5.566059
H    0.708354  3.167926  5.244181
