35
Energy: -21190.2219732 eV PBE+vdW (tier 2 basis)
C    -1.138625  -0.829308  0.405532
C    -0.861101  0.301557  1.381363
O    -0.109714  1.229468  1.105749
H    -1.535154  -0.400108  -0.522765
H    -1.845882  -1.580237  0.779383
H    -0.189442  -1.320867  0.158454
N    -1.535341  0.209953  2.581405
C    -1.253363  1.091149  3.720768
C    -1.971400  0.602119  4.984541
O    -1.506422  0.814458  6.098816
H    -1.896025  -0.710425  2.810455
H    -0.180390  1.049274  3.963277
C    -1.588657  2.577723  3.433938
C    -3.057863  2.899071  3.119049
C    -3.874776  3.328333  4.350879
N    -5.277815  3.603398  4.093309
C    -5.707067  4.791039  3.508850
N    -7.072088  4.755724  3.192505
N    -5.026023  5.851205  3.244779
H    -0.948452  2.879148  2.598060
H    -1.252226  3.148025  4.313208
H    -3.543336  2.034239  2.635336
H    -3.101789  3.703424  2.371589
H    -3.428836  4.231989  4.793159
H    -3.824375  2.563373  5.138080
H    -5.842589  2.795965  3.847579
H    -7.385705  5.673455  2.888374
H    -7.663662  4.382897  3.931178
H    -4.024538  5.711789  3.394942
N    -3.155686  -0.063937  4.787245
C    -3.993722  -0.462793  5.905188
H    -3.580061  -0.004865  3.867363
H    -4.588419  -1.341187  5.629375
H    -4.671692  0.344309  6.226037
H    -3.344960  -0.711886  6.750900
