35
Energy: -21190.5041008 eV PBE+vdW (tier 2 basis)
C    0.496087  1.348792  0.304541
C    1.218986  1.277688  1.629369
O    2.291564  1.867344  1.826152
H    0.049561  2.350123  0.210878
H    -0.296418  0.598063  0.198766
H    1.224407  1.232743  -0.505542
N    0.586763  0.579136  2.608145
C    1.153809  0.343469  3.919824
C    0.839678  -1.122717  4.268043
O    -0.196292  -1.661766  3.878159
H    -0.235181  0.017906  2.395928
H    2.240501  0.499751  3.833529
C    0.597950  1.257857  5.046355
C    1.234662  2.657446  5.194869
C    0.464124  3.833332  4.589893
N    0.525667  3.817889  3.139776
C    -0.111745  4.710708  2.299942
N    -1.216337  5.359327  2.854326
N    0.225304  4.983680  1.080792
H    0.744615  0.717124  5.993384
H    -0.491193  1.340188  4.912622
H    2.259360  2.649841  4.789178
H    1.339873  2.873626  6.267773
H    0.869092  4.776193  5.003635
H    -0.583894  3.773134  4.928368
H    1.377490  3.417108  2.746555
H    -1.735985  5.853722  2.135280
H    -1.812054  4.795294  3.452932
H    1.129973  4.561326  0.852731
N    1.761525  -1.738579  5.055977
C    1.601021  -3.093650  5.551315
H    2.605802  -1.229074  5.287997
H    0.647274  -3.472977  5.170491
H    1.582897  -3.116104  6.649760
H    2.411114  -3.743942  5.194259
