35
Energy: -21190.2267195 eV PBE+vdW (tier 2 basis)
C    -1.515245  0.986870  -0.309680
C    -0.959054  0.202999  0.869162
O    -0.022674  -0.581266  0.728771
H    -1.879301  0.273872  -1.059921
H    -0.696423  1.553936  -0.769038
H    -2.328560  1.676885  -0.052848
N    -1.583554  0.457747  2.062645
C    -1.386436  -0.147886  3.384939
C    -0.670708  0.775255  4.403544
O    -1.206890  0.930378  5.513729
H    -2.312452  1.160701  2.033125
H    -2.392475  -0.204433  3.825515
C    -0.841259  -1.591821  3.371373
C    -0.832898  -2.233182  4.776226
C    0.575205  -2.589916  5.284646
N    1.550420  -1.509052  5.179591
C    1.921745  -0.657807  6.203794
N    0.945923  -0.469613  7.186346
N    3.111849  -0.145576  6.165686
H    0.160544  -1.613887  2.932246
H    -1.480218  -2.167408  2.688038
H    -1.426642  -3.159040  4.769614
H    -1.325394  -1.570800  5.501720
H    0.966931  -3.428656  4.691065
H    0.510764  -2.935835  6.327144
H    2.327424  -1.660340  4.547129
H    1.236767  0.199831  7.891648
H    0.021455  -0.222774  6.822394
H    3.231252  0.555154  6.901326
N    0.483428  1.411574  4.097837
C    1.438228  1.161296  3.029463
H    0.829881  1.953032  4.886238
H    1.110455  0.340444  2.386376
H    2.407511  0.892968  3.472756
H    1.567192  2.056277  2.403708
