35
Energy: -21190.1681934 eV PBE+vdW (tier 2 basis)
C    1.037000  -0.024218  0.144990
C    0.532237  0.143244  1.567254
O    1.248795  0.571124  2.469034
H    1.572968  0.885587  -0.148304
H    0.247401  -0.231932  -0.587815
H    1.759317  -0.851084  0.124891
N    -0.777122  -0.205699  1.764190
C    -1.445492  -0.261255  3.064302
C    -1.102583  0.921300  4.006411
O    -0.813743  0.729701  5.183452
H    -1.277907  -0.600810  0.977123
H    -2.518570  -0.124101  2.842595
C    -1.315335  -1.639021  3.755046
C    0.074246  -2.287665  3.807103
C    1.058419  -1.709863  4.839421
N    2.359175  -2.359314  4.822498
C    2.589874  -3.613856  5.355554
N    3.873512  -4.098479  5.054865
N    1.795026  -4.347982  6.059309
H    -1.985772  -2.323663  3.212371
H    -1.725636  -1.535078  4.769425
H    0.543829  -2.245980  2.811231
H    -0.066222  -3.358821  4.016083
H    0.638404  -1.785244  5.852880
H    1.220923  -0.643849  4.654990
H    2.970155  -2.089851  4.058690
H    4.058682  -4.941246  5.592206
H    4.614237  -3.411653  5.175703
H    0.859998  -3.938195  6.115310
N    -1.281995  2.191657  3.531706
C    -1.606722  2.656877  2.197042
H    -1.011076  2.890772  4.216056
H    -2.010802  3.673380  2.273354
H    -2.380135  2.031241  1.735159
H    -0.732429  2.681570  1.527618
