35
Energy: -21190.3800936 eV PBE+vdW (tier 2 basis)
C    -0.721838  -1.999311  -0.246973
C    0.050523  -1.587974  0.992309
O    1.177207  -2.040785  1.223876
H    -1.550629  -2.668057  0.026301
H    -0.038041  -2.540356  -0.906391
H    -1.163271  -1.151133  -0.784902
N    -0.549071  -0.740766  1.888137
C    -1.678996  0.161083  1.658032
C    -2.977323  -0.586281  1.260213
O    -3.632699  -0.290313  0.262411
H    0.098451  -0.435198  2.634495
H    -1.898340  0.582767  2.654933
C    -1.367487  1.330872  0.698376
C    -1.033061  2.664823  1.379105
C    0.138621  2.653928  2.373142
N    1.360708  2.089958  1.826766
C    2.033438  1.055905  2.432804
N    3.219843  0.698559  1.791120
N    1.560208  0.501538  3.506913
H    -2.234185  1.470129  0.038937
H    -0.528077  1.031666  0.055568
H    -1.917975  3.041002  1.918887
H    -0.833391  3.407629  0.589207
H    -0.092379  2.051562  3.260688
H    0.317831  3.680515  2.734135
H    1.863333  2.624651  1.129884
H    3.479953  -0.264850  1.983788
H    3.216811  0.858181  0.786134
H    2.139838  -0.293183  3.783069
N    -3.387517  -1.587277  2.094438
C    -2.805890  -2.048904  3.345508
H    -4.237611  -2.038879  1.772806
H    -2.456220  -1.208797  3.958539
H    -1.958083  -2.730428  3.190451
H    -3.583604  -2.572716  3.913561
