35
Energy: -21190.6202602 eV PBE+vdW (tier 2 basis)
C    0.910362  -1.761055  0.369595
C    0.045146  -0.642197  0.918091
O    -0.162810  0.397369  0.292585
H    0.475656  -2.111904  -0.574711
H    1.015744  -2.612689  1.052707
H    1.904442  -1.357443  0.141379
N    -0.494263  -0.869846  2.151828
C    -1.295451  0.120041  2.841678
C    -1.185131  -0.183467  4.338207
O    -0.979730  -1.337398  4.748368
H    -0.259751  -1.696246  2.696106
H    -0.863526  1.110689  2.627441
C    -2.768930  0.156989  2.343300
C    -3.530803  -1.183991  2.335267
C    -4.577028  -1.368456  3.436110
N    -3.979640  -1.475467  4.749541
C    -4.717205  -1.474470  5.912029
N    -3.938562  -1.690338  7.060296
N    -5.978434  -1.238345  6.057264
H    -2.714663  0.553461  1.321279
H    -3.319530  0.902051  2.938614
H    -2.819837  -2.025108  2.356469
H    -4.060522  -1.281018  1.377771
H    -5.190207  -2.259639  3.203293
H    -5.264732  -0.504716  3.421813
H    -3.002950  -1.755825  4.800855
H    -3.190262  -2.370615  6.954841
H    -4.534193  -1.892646  7.857879
H    -6.425761  -1.019715  5.165058
N    -1.356614  0.869021  5.162720
C    -1.403967  0.737411  6.613067
H    -1.540207  1.775192  4.749486
H    -1.347892  1.736416  7.057031
H    -0.548381  0.144172  6.957930
H    -2.327369  0.238782  6.940811
