35
Energy: -21190.4159753 eV PBE+vdW (tier 2 basis)
C    -1.135696  1.351438  -0.438423
C    -0.832568  0.610314  0.849771
O    0.312820  0.286209  1.165022
H    -0.781136  0.747367  -1.282757
H    -0.568220  2.290283  -0.448023
H    -2.200246  1.575204  -0.577496
N    -1.917215  0.349936  1.641370
C    -1.826552  -0.488673  2.820340
C    -3.036201  -1.433005  2.802414
O    -4.081055  -1.109390  2.232712
H    -2.862349  0.465816  1.280628
H    -0.879260  -1.043402  2.743597
C    -1.824432  0.321421  4.135638
C    -0.605947  1.229690  4.289561
C    -0.528770  1.895801  5.670793
N    -0.447283  0.952410  6.784848
C    0.727609  0.528579  7.391039
N    1.878708  0.736010  6.634696
N    0.837163  -0.003188  8.563159
H    -1.855121  -0.378373  4.984897
H    -2.753331  0.913274  4.179511
H    -0.615942  2.016918  3.521235
H    0.307260  0.644322  4.097439
H    -1.425715  2.513596  5.827597
H    0.333879  2.577503  5.706406
H    -1.257340  0.893528  7.387396
H    2.679000  0.284890  7.066558
H    1.810104  0.554160  5.638150
H    -0.048809  0.031659  9.074755
N    -2.919454  -2.612098  3.472692
C    -1.739113  -3.160316  4.124650
H    -3.769018  -3.167499  3.469288
H    -1.947744  -4.200114  4.396327
H    -1.473750  -2.617659  5.043953
H    -0.868584  -3.158836  3.454978
