35
Energy: -21190.5111202 eV PBE+vdW (tier 2 basis)
C    -2.777976  -0.585955  0.047108
C    -2.108562  -0.727938  1.401580
O    -1.035587  -1.314549  1.547270
H    -3.742385  -0.064784  0.084608
H    -2.924509  -1.585526  -0.380042
H    -2.103068  -0.039657  -0.623765
N    -2.770556  -0.150887  2.444742
C    -2.292556  -0.251913  3.806712
C    -3.506236  -0.087198  4.723364
O    -4.554188  0.441758  4.318605
H    -3.701582  0.245604  2.340522
H    -1.876277  -1.264160  3.931616
C    -1.146803  0.751743  4.151798
C    -1.182921  2.136538  3.499645
C    -2.422261  3.025138  3.744150
N    -3.058340  2.938451  5.049428
C    -2.427638  3.260992  6.221886
N    -3.220805  2.964979  7.355192
N    -1.224280  3.731524  6.230194
H    -0.208175  0.270127  3.846961
H    -1.092842  0.875304  5.241930
H    -1.061974  2.036544  2.410365
H    -0.299008  2.669920  3.871680
H    -3.210439  2.775915  3.022018
H    -2.132964  4.070249  3.559925
H    -3.854035  2.310487  5.101304
H    -2.866831  3.402208  8.200495
H    -4.209053  3.178107  7.231427
H    -0.938945  3.997262  7.175365
N    -3.399776  -0.515770  6.006213
C    -2.250497  -1.079367  6.693456
H    -4.205437  -0.269424  6.574052
H    -1.636826  -0.303613  7.175685
H    -1.618776  -1.639641  5.996284
H    -2.601287  -1.778374  7.462147
