35
Energy: -21190.0935425 eV PBE+vdW (tier 2 basis)
C    0.056173  0.944481  0.166290
C    0.212216  0.447551  1.592538
O    1.280377  0.570060  2.188148
H    1.008440  0.824344  -0.359495
H    -0.177377  2.017860  0.205986
H    -0.738751  0.437186  -0.395319
N    -0.919239  -0.146490  2.101032
C    -1.265216  -0.377954  3.508931
C    -1.326929  0.986876  4.256048
O    -0.841271  2.000908  3.765655
H    -1.725099  -0.061611  1.493074
H    -2.312502  -0.720575  3.462691
C    -0.515053  -1.577977  4.154431
C    1.002584  -1.529155  4.406141
C    1.440320  -1.050619  5.799248
N    0.818189  0.183362  6.258376
C    1.291251  1.469401  6.038947
N    2.125325  1.614266  4.939320
N    0.925112  2.379570  6.886949
H    -0.719859  -2.417407  3.473359
H    -1.031991  -1.828988  5.092463
H    1.486583  -0.932789  3.626575
H    1.396387  -2.551534  4.291395
H    2.540134  -0.967192  5.815102
H    1.170467  -1.818914  6.539302
H    0.366482  0.143300  7.164445
H    2.313074  2.588613  4.727275
H    1.838898  1.122057  4.087654
H    1.220185  3.306894  6.573236
N    -2.046213  1.052288  5.418152
C    -2.634515  -0.022950  6.188557
H    -1.871302  1.925895  5.911011
H    -3.367372  0.404821  6.882494
H    -1.895436  -0.591398  6.777732
H    -3.172629  -0.726385  5.540164
