35
Energy: -21190.1888234 eV PBE+vdW (tier 2 basis)
C    -0.228546  0.298949  0.036716
C    -0.107838  0.067567  1.530353
O    0.991083  0.065721  2.080632
H    0.085933  -0.617658  -0.480778
H    0.482164  1.086913  -0.234899
H    -1.227738  0.565241  -0.317472
N    -1.240263  -0.207189  2.272844
C    -2.669863  -0.060948  1.968123
C    -3.092542  -0.782658  0.662160
O    -3.955895  -0.329236  -0.083033
H    -1.007114  -0.297142  3.259027
H    -3.169430  -0.656171  2.752147
C    -3.268400  1.353267  2.097207
C    -2.729201  2.491365  1.218486
C    -1.494470  3.205292  1.790916
N    -1.036782  4.330157  0.987711
C    -1.679955  5.552775  1.057108
N    -1.189435  6.461700  0.103413
N    -2.629246  5.755903  1.906014
H    -3.184539  1.649015  3.155683
H    -4.341712  1.233673  1.897397
H    -3.519303  3.249085  1.126959
H    -2.533915  2.135092  0.196872
H    -0.642163  2.525711  1.919433
H    -1.742790  3.607448  2.782187
H    -0.659802  4.098854  0.074426
H    -1.527382  7.408722  0.237742
H    -0.179745  6.440799  -0.019877
H    -2.912112  6.738293  1.915369
N    -2.486379  -1.988745  0.471306
C    -2.740404  -2.817408  -0.689880
H    -1.738746  -2.239765  1.108881
H    -2.947950  -3.853355  -0.391364
H    -1.887983  -2.813696  -1.386219
H    -3.615932  -2.409559  -1.205928
