35
Energy: -21190.3894638 eV PBE+vdW (tier 2 basis)
C    0.966293  -1.575565  1.122772
C    0.778899  -0.254845  1.842196
O    1.689312  0.570166  1.920913
H    1.454822  -2.294856  1.797664
H    1.649224  -1.402357  0.284797
H    0.034064  -2.016917  0.749136
N    -0.451794  0.013751  2.389291
C    -1.524566  -0.911196  2.690865
C    -2.761020  -0.062209  3.041524
O    -2.655337  1.085968  3.468528
H    -0.551850  0.931870  2.822886
H    -1.755459  -1.519573  1.801705
C    -1.168189  -1.871035  3.858993
C    -0.900362  -1.157151  5.191442
C    0.147461  -1.857368  6.067465
N    1.495929  -1.803047  5.502029
C    2.071022  -2.793322  4.714817
N    1.646813  -4.093752  5.009412
N    2.931485  -2.620716  3.768792
H    -0.277740  -2.432595  3.545814
H    -1.968547  -2.617532  3.979324
H    -1.833671  -1.045685  5.764059
H    -0.547531  -0.131357  5.001779
H    -0.122068  -2.910171  6.218605
H    0.163516  -1.385733  7.062061
H    1.787063  -0.871666  5.217112
H    2.227389  -4.763336  4.511998
H    1.584036  -4.309638  6.000927
H    3.061991  -1.627913  3.551813
N    -3.952953  -0.702326  2.888694
C    -5.224706  -0.096963  3.239773
H    -3.948451  -1.636199  2.496217
H    -5.874832  0.000737  2.359532
H    -5.015486  0.901258  3.637733
H    -5.747256  -0.686464  4.005753
