35
Energy: -21190.6473188 eV PBE+vdW (tier 2 basis)
C    0.157954  0.637007  0.751522
C    0.148328  -0.485517  1.768436
O    1.192760  -1.078335  2.073541
H    -0.270300  0.295657  -0.202174
H    1.196629  0.929548  0.576268
H    -0.419735  1.509413  1.083491
N    -1.038692  -0.814611  2.361119
C    -2.365184  -0.597399  1.790950
C    -3.434505  -0.330934  2.875036
O    -4.631862  -0.369085  2.596838
H    -0.992557  -1.690958  2.921881
H    -2.339145  0.325380  1.192714
C    -2.801824  -1.741801  0.853598
C    -2.960762  -3.146126  1.462195
C    -1.697724  -3.873035  1.948236
N    -1.325084  -3.477143  3.324392
C    -0.163885  -4.047208  3.908340
N    0.987922  -3.826916  3.179342
N    -0.316003  -4.689650  5.015283
H    -2.080232  -1.785123  0.021999
H    -3.768686  -1.447193  0.424144
H    -3.412825  -3.777148  0.682896
H    -3.705014  -3.116886  2.274874
H    -0.848737  -3.661294  1.284408
H    -1.869427  -4.962481  1.906501
H    -2.090502  -3.671691  3.971838
H    1.837449  -4.144339  3.632014
H    1.088192  -2.901105  2.737499
H    0.588341  -4.942546  5.425389
N    -2.945650  -0.035838  4.107712
C    -3.797478  0.274698  5.237940
H    -1.936003  -0.023553  4.210534
H    -3.649171  1.309338  5.578530
H    -3.600026  -0.405902  6.077252
H    -4.836830  0.154438  4.913761
