35
Energy: -21190.370513 eV PBE+vdW (tier 2 basis)
C    -1.052729  -1.483838  0.272185
C    -1.651988  -0.091937  0.259197
O    -1.867069  0.528358  -0.785874
H    -0.126751  -1.523571  0.863090
H    -0.835591  -1.771673  -0.759709
H    -1.761894  -2.202978  0.705519
N    -1.956342  0.461110  1.472748
C    -1.527164  -0.009580  2.775422
C    -2.370329  -1.210126  3.261404
O    -3.582423  -1.266010  3.077355
H    -2.452210  1.344285  1.410970
H    -0.471644  -0.306411  2.696020
C    -1.649893  1.102514  3.834400
C    -0.966553  2.447373  3.538789
C    0.550963  2.428379  3.267054
N    0.924797  2.148853  1.895778
C    1.424401  0.961431  1.406443
N    1.444669  0.922438  0.015475
N    1.876107  -0.051767  2.080047
H    -1.251584  0.699367  4.778657
H    -2.721691  1.283490  4.012899
H    -1.144370  3.092804  4.413121
H    -1.460361  2.957866  2.696738
H    1.045579  1.695243  3.921016
H    0.971125  3.406679  3.546591
H    0.737954  2.870567  1.209967
H    1.794558  0.031770  -0.322889
H    0.583334  1.200734  -0.452866
H    1.976969  0.176021  3.072578
N    -1.694986  -2.193914  3.929264
C    -0.273915  -2.271948  4.237193
H    -2.302539  -2.923218  4.289478
H    -0.055876  -3.280930  4.603409
H    0.028832  -1.559076  5.021163
H    0.349830  -2.097377  3.350781
