35
Energy: -21190.1129493 eV PBE+vdW (tier 2 basis)
C    -1.495133  -0.415108  0.811084
C    -1.650535  -0.016213  2.261808
O    -0.964232  -0.533174  3.149789
H    -0.570089  -0.990721  0.721166
H    -1.470593  0.438691  0.124154
H    -2.335905  -1.053099  0.504858
N    -2.609442  0.904126  2.611929
C    -3.210757  2.006227  1.849110
C    -3.700438  1.600863  0.444137
O    -3.295192  2.151731  -0.577415
H    -2.583945  1.075268  3.616096
H    -4.137259  2.246003  2.401166
C    -2.383499  3.305628  1.868130
C    -0.980398  3.354909  1.245702
C    0.183352  2.619823  1.971160
N    0.075015  2.439112  3.404149
C    0.088949  3.459398  4.325175
N    -0.136467  3.013101  5.636731
N    0.232044  4.726325  4.114375
H    -2.316498  3.626806  2.919036
H    -2.995006  4.065173  1.359739
H    -0.727367  4.423282  1.182614
H    -1.017917  3.002772  0.206294
H    1.118629  3.156232  1.738087
H    0.312664  1.613748  1.555635
H    -0.154267  1.502253  3.724458
H    0.058336  3.759331  6.298355
H    0.348681  2.154188  5.883991
H    0.287654  4.935954  3.115896
N    -4.659026  0.627730  0.386369
C    -5.281199  -0.116971  1.468434
H    -4.937796  0.408067  -0.564948
H    -4.650488  -0.939743  1.836022
H    -6.225609  -0.535979  1.103715
H    -5.515318  0.536451  2.318504
