35
Energy: -21189.7257536 eV PBE+vdW (tier 2 basis)
C    -0.250473  0.162556  -0.323298
C    0.091870  -0.146217  1.119227
O    1.243700  -0.411986  1.455698
H    0.689623  0.247424  -0.874544
H    -0.820753  1.092183  -0.434895
H    -0.836552  -0.657028  -0.758316
N    -0.899455  -0.113224  2.077123
C    -2.369230  -0.031832  2.017890
C    -2.934116  -1.459285  1.741774
O    -3.022200  -2.206865  2.718728
H    -0.542399  -0.455606  2.965688
H    -2.650353  0.080079  3.074183
C    -2.916603  1.237086  1.336491
C    -4.331088  1.628951  1.791445
C    -5.434581  0.709351  1.275486
N    -6.754644  1.190080  1.652886
C    -7.858822  0.738868  0.947552
N    -9.074839  1.224381  1.437433
N    -7.704762  0.014485  -0.109995
H    -2.887808  1.191480  0.241865
H    -2.226738  2.044770  1.622704
H    -4.542255  2.650340  1.441578
H    -4.353187  1.668359  2.894629
H    -5.282612  -0.328463  1.620375
H    -5.427719  0.677749  0.179585
H    -6.896515  1.337309  2.647213
H    -9.874370  0.626663  1.265820
H    -9.077616  1.635109  2.365513
H    -8.597717  -0.126403  -0.588122
N    -3.206322  -1.954091  0.494144
C    -3.513746  -1.324589  -0.782124
H    -3.503452  -2.924503  0.574618
H    -3.154078  -1.971180  -1.593223
H    -3.010196  -0.363194  -0.884488
H    -4.595675  -1.168585  -0.912986
