35
Energy: -21190.2947797 eV PBE+vdW (tier 2 basis)
C    0.027769  -1.207418  1.784065
C    0.311997  0.207445  2.247160
O    1.388726  0.546230  2.727569
H    0.947182  -1.789317  1.884570
H    -0.315347  -1.240037  0.741054
H    -0.756896  -1.671463  2.398791
N    -0.707402  1.128219  2.096961
C    -2.071734  0.882679  1.643230
C    -2.201408  0.722893  0.110472
O    -3.175924  0.154519  -0.380863
H    -0.503729  2.027306  2.526997
H    -2.445894  -0.063163  2.064517
C    -2.974941  2.030090  2.139464
C    -4.475778  1.769294  1.989075
C    -5.335350  2.953592  2.432889
N    -5.149390  3.238998  3.845574
C    -5.648461  4.346807  4.510925
N    -5.898261  5.461221  3.703785
N    -5.747921  4.292061  5.796689
H    -2.704587  2.954671  1.601399
H    -2.738620  2.206326  3.199546
H    -4.756399  0.875436  2.571140
H    -4.717430  1.529817  0.945358
H    -6.392752  2.739893  2.180171
H    -5.032419  3.838583  1.849982
H    -5.131548  2.434376  4.465971
H    -6.451244  6.176509  4.161288
H    -6.210856  5.283843  2.754527
H    -6.069314  5.180166  6.187808
N    -1.197977  1.284437  -0.614424
C    -1.158757  1.253194  -2.062696
H    -0.414354  1.665630  -0.094140
H    -1.126038  2.269055  -2.480033
H    -2.070036  0.753828  -2.409071
H    -0.284938  0.694100  -2.425668
