35
Energy: -21190.367512 eV PBE+vdW (tier 2 basis)
C    -1.648625  -0.154226  -0.006035
C    -0.801326  0.580143  1.023244
O    -0.149976  1.580093  0.729307
H    -1.485160  0.322575  -0.975897
H    -2.718029  -0.090234  0.242733
H    -1.387193  -1.218940  -0.080169
N    -0.812205  0.089711  2.301024
C    -1.486639  -1.089785  2.808150
C    -1.777338  -0.822689  4.297998
O    -0.985413  -0.186698  4.990469
H    -0.266981  0.605127  2.991634
H    -2.436446  -1.225661  2.266982
C    -0.631013  -2.374625  2.658120
C    -1.396940  -3.676691  2.891131
C    -0.490527  -4.910193  2.780360
N    -1.172225  -6.184452  2.953862
C    -1.587419  -6.599413  4.206650
N    -2.310798  -7.802176  4.150845
N    -1.329405  -5.895014  5.256010
H    0.220729  -2.297853  3.351748
H    -0.203907  -2.366768  1.643080
H    -2.218651  -3.760910  2.157951
H    -1.845496  -3.694615  3.893871
H    0.290196  -4.853066  3.550569
H    0.010308  -4.934286  1.800664
H    -1.763469  -6.484157  2.185850
H    -2.501793  -8.203511  5.062700
H    -1.934719  -8.495246  3.508144
H    -1.577932  -6.399330  6.110051
N    -2.934232  -1.359097  4.771945
C    -3.284851  -1.349011  6.181009
H    -3.503959  -1.901752  4.134296
H    -3.173403  -2.347836  6.627500
H    -4.317384  -1.004184  6.320675
H    -2.603078  -0.658188  6.687122
