35
Energy: -21190.1524483 eV PBE+vdW (tier 2 basis)
C    -0.669812  -1.147923  0.490486
C    -0.496907  -0.481522  1.834926
O    0.497651  -0.684580  2.528401
H    -0.103558  -0.589741  -0.270259
H    -1.701316  -1.217323  0.134788
H    -0.235274  -2.150673  0.560478
N    -1.472980  0.373730  2.312508
C    -2.731520  0.869049  1.758600
C    -3.610888  -0.227717  1.119544
O    -4.123872  -0.110709  0.000565
H    -1.186071  0.784148  3.197282
H    -3.325567  1.149863  2.647908
C    -2.604073  2.178837  0.940593
C    -1.479241  2.311771  -0.109583
C    -1.915129  2.260604  -1.581549
N    -2.416142  0.979035  -2.037051
C    -1.564814  0.041468  -2.571918
N    -2.211544  -1.154393  -2.913226
N    -0.313127  0.303276  -2.777046
H    -2.457728  2.966656  1.693568
H    -3.584786  2.382425  0.484881
H    -0.689018  1.569388  0.058327
H    -0.991415  3.286409  0.041414
H    -1.054965  2.508314  -2.215284
H    -2.695728  3.018758  -1.758244
H    -3.211608  0.616060  -1.510196
H    -1.618222  -1.975125  -2.879592
H    -3.122186  -1.308260  -2.488883
H    0.137543  -0.458081  -3.289711
N    -3.883886  -1.325104  1.878278
C    -3.484618  -1.643262  3.241195
H    -4.485994  -1.987386  1.399192
H    -4.176297  -2.398348  3.631131
H    -3.552651  -0.763192  3.893218
H    -2.461445  -2.038049  3.300607
