35
Energy: -21190.5589417 eV PBE+vdW (tier 2 basis)
C    -2.444612  -0.113606  0.127606
C    -2.076898  0.759963  1.309207
O    -2.158010  1.992562  1.256477
H    -1.896512  0.239615  -0.754267
H    -3.515375  0.010204  -0.081747
H    -2.224830  -1.172596  0.301528
N    -1.676116  0.077949  2.426003
C    -1.231903  0.829214  3.591163
C    0.298233  0.744607  3.687871
O    0.881508  -0.325134  3.918220
H    -1.478682  -0.934166  2.317367
H    -1.520372  1.857407  3.343548
C    -1.956943  0.508037  4.927940
C    -1.445582  -0.571976  5.899740
C    -1.735615  -2.033260  5.546820
N    -1.028400  -2.455577  4.345240
C    -1.608706  -3.157240  3.323699
N    -2.458904  -4.187607  3.699375
N    -1.305827  -2.850638  2.095077
H    -3.008533  0.309014  4.666898
H    -1.963747  1.453230  5.492662
H    -1.926486  -0.383499  6.872337
H    -0.365916  -0.450335  6.069490
H    -2.821047  -2.158918  5.394927
H    -1.456803  -2.658882  6.414408
H    -0.257444  -1.838104  4.055463
H    -3.214511  -4.415720  3.066985
H    -2.667528  -4.313143  4.682069
H    -1.643061  -3.557545  1.437488
N    1.002125  1.888807  3.492497
C    0.505808  3.213974  3.136671
H    2.007328  1.757362  3.559113
H    1.343746  3.796861  2.738824
H    0.102346  3.752182  4.007918
H    -0.267932  3.153565  2.360566
