35
Energy: -21190.6203359 eV PBE+vdW (tier 2 basis)
C    -1.606216  -2.660610  0.301919
C    -2.008722  -1.800621  1.476112
O    -2.953387  -1.000918  1.421886
H    -1.817853  -2.128648  -0.630497
H    -2.216535  -3.575195  0.333387
H    -0.548536  -2.951988  0.329961
N    -1.295991  -1.987952  2.622545
C    -1.788411  -1.520004  3.919163
C    -1.305205  -0.069151  4.217863
O    -0.505930  0.191521  5.116378
H    -0.598989  -2.723897  2.635361
H    -2.884689  -1.465041  3.815096
C    -1.395800  -2.484249  5.039629
C    -2.453271  -2.586910  6.144244
C    -3.723321  -3.348462  5.730462
N    -3.474668  -4.732183  5.357776
C    -3.381143  -5.199783  4.057356
N    -3.125424  -6.575763  4.014371
N    -3.511523  -4.551086  2.949946
H    -0.447201  -2.138292  5.472341
H    -1.231693  -3.486076  4.615522
H    -2.736216  -1.579455  6.489157
H    -2.012111  -3.095290  7.014846
H    -4.232703  -2.836699  4.898595
H    -4.441123  -3.341203  6.562972
H    -3.676010  -5.435769  6.057713
H    -2.398428  -6.897987  4.647632
H    -2.968962  -6.883371  3.059191
H    -3.851473  -3.598555  3.099811
N    -1.871904  0.846762  3.393224
C    -1.513967  2.250281  3.417245
H    -2.460722  0.476837  2.639348
H    -0.921848  2.436878  4.319477
H    -2.414313  2.878741  3.439706
H    -0.913712  2.530137  2.538264
