35
Energy: -21190.7664984 eV PBE+vdW (tier 2 basis)
C    -1.292790  -1.692536  0.674076
C    -0.753123  -0.786156  1.757486
O    0.462706  -0.606705  1.928158
H    -2.277347  -1.375147  0.309103
H    -1.400377  -2.703188  1.095225
H    -0.578664  -1.730063  -0.153795
N    -1.698250  -0.220551  2.554504
C    -1.387902  0.584157  3.732471
C    -0.956715  -0.296024  4.945660
O    -1.600553  -0.362634  6.002842
H    -2.656673  -0.541617  2.428046
H    -0.490170  1.163381  3.466006
C    -2.515229  1.583250  4.067914
C    -3.973604  1.197671  3.762793
C    -4.667778  0.181905  4.690653
N    -4.068696  -1.140974  4.839821
C    -3.885679  -2.062568  3.830564
N    -4.592619  -1.807188  2.641152
N    -3.094536  -3.083919  3.848461
H    -2.306453  2.500308  3.499479
H    -2.417391  1.839870  5.132362
H    -4.070777  0.877457  2.714481
H    -4.569321  2.122338  3.828279
H    -5.719148  0.080834  4.372420
H    -4.708319  0.598628  5.706632
H    -3.312737  -1.144763  5.527249
H    -4.616872  -2.646407  2.067522
H    -5.517945  -1.403944  2.762493
H    -2.564737  -3.118124  4.723472
N    0.203071  -0.952353  4.734095
C    0.747682  -1.903620  5.682908
H    0.615964  -0.866398  3.796339
H    0.438104  -2.934123  5.447793
H    0.385988  -1.653033  6.685665
H    1.842891  -1.855763  5.667669
