35
Energy: -21190.0324836 eV PBE+vdW (tier 2 basis)
C    1.091836  -0.628970  0.577300
C    0.714641  -0.029510  1.920494
O    1.553428  0.408414  2.702354
H    1.833533  0.018313  0.096591
H    0.242997  -0.776299  -0.102438
H    1.572525  -1.601551  0.753034
N    -0.624593  -0.049612  2.208329
C    -1.244282  0.427745  3.449465
C    -0.529776  1.647396  4.088122
O    -0.212842  1.652389  5.272774
H    -1.253520  -0.388425  1.489748
H    -2.230505  0.816364  3.138914
C    -1.544333  -0.684643  4.473257
C    -0.390364  -1.418054  5.173148
C    0.477119  -2.362509  4.315607
N    -0.227414  -3.230541  3.381258
C    -0.954494  -4.366931  3.689716
N    -0.811701  -4.822716  4.998095
N    -1.669849  -5.062692  2.865361
H    -2.192201  -1.420807  3.969815
H    -2.162804  -0.219639  5.253861
H    -0.853392  -1.993464  5.992297
H    0.271208  -0.687215  5.654970
H    1.085470  -2.992056  4.981441
H    1.195299  -1.772408  3.734901
H    -0.453274  -2.830860  2.480340
H    -1.451575  -5.588490  5.183201
H    -0.806998  -4.120392  5.730266
H    -1.583155  -4.707174  1.909083
N    -0.405771  2.777876  3.325846
C    -0.687246  2.984919  1.919153
H    0.107595  3.506778  3.811662
H    -0.815839  4.059444  1.742850
H    -1.623427  2.493142  1.626678
H    0.118891  2.621206  1.261835
