35
Energy: -21190.0005957 eV PBE+vdW (tier 2 basis)
C    0.308658  0.121238  0.106978
C    0.172148  0.097655  1.617152
O    1.133188  0.267906  2.364966
H    1.218523  -0.418483  -0.176793
H    0.426573  1.165542  -0.212930
H    -0.551090  -0.311266  -0.419789
N    -1.094896  -0.116605  2.088569
C    -1.447110  0.056766  3.500514
C    -0.863685  1.412178  4.004136
O    -1.266798  2.421957  3.423532
H    -1.851492  -0.071351  1.417588
H    -2.516979  0.311196  3.489648
C    -1.339009  -1.245462  4.323798
C    -0.119798  -2.140887  4.101443
C    -0.111767  -3.328741  5.071978
N    1.110791  -4.116949  5.034635
C    2.234672  -3.684937  5.714389
N    3.355650  -4.503648  5.527465
N    2.171260  -2.667571  6.507402
H    -2.244138  -1.834358  4.097785
H    -1.428367  -0.980421  5.389011
H    0.809911  -1.578424  4.230496
H    -0.119484  -2.510690  3.063948
H    -0.958960  -4.003795  4.873496
H    -0.211592  -2.965670  6.103386
H    1.275108  -4.643067  4.183862
H    3.344921  -5.127386  4.726224
H    4.243072  -4.025674  5.632236
H    3.045544  -2.554773  7.024959
N    -0.081556  1.525617  5.118762
C    0.899473  0.601817  5.682813
H    0.117599  2.510148  5.277880
H    1.442349  1.138153  6.468473
H    1.619183  0.264239  4.925818
H    0.443437  -0.275920  6.150991
