35
Energy: -21190.1234222 eV PBE+vdW (tier 2 basis)
C    -0.760094  -0.373792  0.005842
C    -0.658769  0.022556  1.468940
O    0.385736  0.439995  1.962004
H    -0.432279  0.471608  -0.610985
H    -1.769229  -0.671756  -0.305711
H    -0.067617  -1.204026  -0.182394
N    -1.821439  -0.103793  2.188271
C    -1.841683  0.049722  3.645754
C    -3.019058  -0.659723  4.331630
O    -2.843968  -1.111068  5.463500
H    -2.561273  -0.646687  1.761697
H    -0.962863  -0.480965  4.041153
C    -1.667647  1.515523  4.117755
C    -2.818123  2.509509  3.905302
C    -3.860760  2.510265  5.034978
N    -4.795814  3.621891  4.960837
C    -6.072558  3.500818  4.462185
N    -6.732215  4.738849  4.392157
N    -6.553281  2.360277  4.088015
H    -0.762493  1.878051  3.615439
H    -1.423352  1.465600  5.190119
H    -3.312369  2.356371  2.934661
H    -2.378073  3.519051  3.853493
H    -3.336920  2.556878  6.003088
H    -4.462457  1.595518  5.040488
H    -4.387133  4.547018  4.885317
H    -7.722479  4.660468  4.187529
H    -6.562459  5.359218  5.180202
H    -7.546309  2.443183  3.860704
N    -4.226034  -0.822873  3.699963
C    -4.856659  -0.091226  2.601753
H    -4.872309  -1.317182  4.311591
H    -5.642366  0.575911  2.988500
H    -5.283388  -0.794681  1.871368
H    -4.131500  0.545193  2.089286
