35
Energy: -21190.1389286 eV PBE+vdW (tier 2 basis)
C    -0.092241  -0.248700  -0.261519
C    0.183682  -0.140308  1.229262
O    1.323961  -0.100648  1.678044
H    -0.611402  0.645975  -0.635637
H    -0.709226  -1.125093  -0.505223
H    0.869203  -0.337063  -0.773531
N    -0.906581  -0.115284  2.071264
C    -2.290520  0.073582  1.684632
C    -2.620060  1.575027  1.528359
O    -2.062440  2.429560  2.213349
H    -0.655585  0.135926  3.024239
H    -2.429384  -0.427580  0.718327
C    -3.243199  -0.627914  2.683849
C    -3.305472  -0.061875  4.113071
C    -4.315676  1.086819  4.296060
N    -4.474276  1.530880  5.667827
C    -5.215590  0.817036  6.600259
N    -5.074735  1.327981  7.895176
N    -5.974582  -0.207702  6.407470
H    -2.919114  -1.677441  2.720341
H    -4.258890  -0.635486  2.256036
H    -2.314522  0.285291  4.445007
H    -3.579287  -0.877078  4.797739
H    -5.304381  0.776320  3.922015
H    -4.014514  1.958801  3.702761
H    -3.691987  2.052971  6.049894
H    -5.735109  0.884446  8.527142
H    -5.108750  2.342094  7.958986
H    -5.896363  -0.564529  5.452851
N    -3.586485  1.904407  0.619673
C    -4.270176  1.031884  -0.322609
H    -3.771279  2.901548  0.569758
H    -4.959423  1.640166  -0.917176
H    -4.865829  0.257865  0.181796
H    -3.572872  0.542543  -1.019266
