35
Energy: -21190.4230647 eV PBE+vdW (tier 2 basis)
C    -0.440587  -1.374510  0.492923
C    -0.664577  -0.269100  1.505062
O    0.067487  0.728522  1.535564
H    -1.174195  -2.187671  0.549043
H    0.562875  -1.790507  0.648311
H    -0.461311  -0.939979  -0.513900
N    -1.711026  -0.454613  2.357469
C    -2.107098  0.409922  3.481420
C    -2.736263  1.763375  3.052652
O    -3.869213  2.059862  3.434183
H    -2.283032  -1.276029  2.207111
H    -2.944250  -0.110926  3.962725
C    -0.979946  0.580620  4.517755
C    -1.422846  1.364754  5.753524
C    -0.274540  1.550060  6.754393
N    -0.644694  2.298101  7.949453
C    -0.370122  3.638700  8.171872
N    -0.114541  4.373602  7.012128
N    -0.313085  4.234762  9.315798
H    -0.118746  1.073901  4.045957
H    -0.641513  -0.426389  4.811176
H    -2.264595  0.859243  6.252404
H    -1.808390  2.351655  5.453393
H    0.568805  2.059886  6.264727
H    0.098303  0.563372  7.070697
H    -0.808807  1.762997  8.791756
H    -0.037410  5.361485  7.235685
H    -0.746182  4.202913  6.234306
H    -0.364221  3.565675  10.089032
N    -1.936203  2.565109  2.307206
C    -2.375204  3.856089  1.815093
H    -1.043544  2.167413  1.992224
H    -1.604121  4.616898  1.994646
H    -3.291298  4.134090  2.346977
H    -2.591909  3.826936  0.736548
