35
Energy: -21190.1227385 eV PBE+vdW (tier 2 basis)
C    -1.445526  0.216135  0.066833
C    -0.968551  0.303882  1.506368
O    0.215208  0.426562  1.801053
H    -1.057718  -0.711373  -0.373807
H    -1.013807  1.050667  -0.498111
H    -2.536907  0.230997  -0.045707
N    -1.958350  0.250708  2.454583
C    -1.708531  0.205324  3.895179
C    -0.637740  1.232941  4.356976
O    0.314622  0.891889  5.049247
H    -2.910627  0.104709  2.142456
H    -2.656812  0.513970  4.369628
C    -1.355537  -1.208698  4.386011
C    -1.614950  -1.415035  5.881962
C    -1.160170  -2.774575  6.410862
N    -1.909388  -3.871843  5.815873
C    -1.786310  -5.169208  6.304851
N    -2.472457  -6.097083  5.509908
N    -1.144509  -5.576374  7.344211
H    -0.298614  -1.400187  4.153552
H    -1.961236  -1.908777  3.788494
H    -2.688973  -1.288244  6.098341
H    -1.070288  -0.643905  6.442675
H    -1.328646  -2.806507  7.497217
H    -0.070218  -2.884633  6.249825
H    -1.991934  -3.832870  4.804021
H    -2.470993  -7.012336  5.951484
H    -3.409038  -5.806393  5.241091
H    -0.569813  -4.833146  7.747327
N    -0.855636  2.550873  4.060879
C    -1.885510  3.161587  3.242711
H    -0.084045  3.139731  4.358487
H    -1.964527  4.220718  3.515787
H    -2.864442  2.703189  3.430067
H    -1.672359  3.096173  2.164096
