35
Energy: -21190.4557624 eV PBE+vdW (tier 2 basis)
C    2.493550  3.113143  1.558125
C    1.855887  1.780722  1.863849
O    2.517323  0.733871  1.934303
H    3.265868  2.976407  0.793916
H    2.974210  3.444642  2.491818
H    1.775669  3.876042  1.232600
N    0.522433  1.807349  2.116193
C    -0.248081  0.641354  2.493628
C    -1.715580  0.980060  2.199740
O    -2.092696  2.145696  2.067336
H    -0.021756  2.664190  2.032188
H    0.077502  -0.197921  1.858630
C    -0.061523  0.232301  3.987773
C    0.961516  -0.901270  4.212121
C    1.996711  -0.588187  5.300567
N    2.827381  0.558966  4.949260
C    2.818402  1.764554  5.613224
N    2.539353  1.668995  6.986133
N    3.029879  2.862644  4.959043
H    -1.031238  -0.050234  4.421019
H    0.250019  1.142584  4.517767
H    1.502684  -1.093379  3.274789
H    0.447998  -1.837397  4.480299
H    2.626562  -1.479809  5.460066
H    1.490824  -0.375933  6.252679
H    3.009002  0.667681  3.948337
H    2.687729  2.538714  7.485893
H    2.970184  0.880208  7.461857
H    3.149250  3.651962  5.598798
N    -2.589448  -0.063343  2.109441
C    -2.323765  -1.481161  2.278390
H    -3.553571  0.230997  1.987848
H    -2.364282  -1.798839  3.332413
H    -1.336177  -1.743623  1.881656
H    -3.069814  -2.053732  1.715416
