35
Energy: -21190.5913719 eV PBE+vdW (tier 2 basis)
C    -0.618353  -1.625205  0.262819
C    -1.414574  -1.685215  1.550506
O    -2.579676  -1.287064  1.609631
H    -0.643626  -0.597883  -0.120251
H    -1.111140  -2.260899  -0.483838
H    0.425660  -1.944415  0.369463
N    -0.747718  -2.195106  2.633422
C    -1.368995  -2.445918  3.930694
C    -0.615033  -1.764082  5.095323
O    -0.718752  -2.173662  6.247655
H    0.164947  -2.608007  2.466950
H    -2.357474  -1.962588  3.885366
C    -1.561453  -3.945982  4.202475
C    -2.542939  -4.667035  3.268386
C    -4.031226  -4.416913  3.534544
N    -4.424889  -3.058263  3.221989
C    -5.695048  -2.579227  3.496857
N    -5.934490  -1.335173  2.913011
N    -6.627644  -3.143582  4.189010
H    -1.882993  -4.045398  5.247899
H    -0.575577  -4.437102  4.144467
H    -2.377459  -5.749241  3.373355
H    -2.313657  -4.439124  2.213127
H    -4.239078  -4.608725  4.600561
H    -4.624549  -5.155169  2.959737
H    -3.946979  -2.611268  2.439721
H    -6.752294  -0.884120  3.308740
H    -5.129234  -0.722347  2.825830
H    -6.366585  -4.091265  4.467493
N    0.122652  -0.671304  4.747013
C    0.792554  0.161550  5.726934
H    0.098100  -0.379816  3.776875
H    0.745644  -0.357406  6.690175
H    0.299865  1.139351  5.830070
H    1.844013  0.320603  5.452992
