35
Energy: -21189.9949227 eV PBE+vdW (tier 2 basis)
C    1.504028  0.370644  2.391271
C    0.545507  0.549978  3.545668
O    0.967835  0.828129  4.667743
H    1.985737  1.336194  2.187318
H    1.056637  -0.040823  1.487182
H    2.287054  -0.317762  2.729404
N    -0.819616  0.409807  3.380841
C    -1.739225  0.176483  2.269898
C    -1.534407  -1.187832  1.572901
O    -0.469696  -1.800248  1.585391
H    -1.275534  0.558527  4.276455
H    -2.713135  0.085919  2.775054
C    -1.942708  1.383377  1.311109
C    -0.829057  1.830074  0.355551
C    -0.463327  0.863434  -0.786839
N    -1.591774  0.307556  -1.536094
C    -2.571658  1.082226  -2.134253
N    -2.095341  2.241453  -2.744035
N    -3.805271  0.697646  -2.060470
H    -2.182502  2.235835  1.963759
H    -2.853726  1.197534  0.723686
H    0.087683  2.074305  0.909431
H    -1.168335  2.775604  -0.093272
H    0.094157  -0.001675  -0.407927
H    0.226107  1.378818  -1.473354
H    -2.011864  -0.508194  -1.099245
H    -1.169134  2.180332  -3.156625
H    -2.764278  2.711356  -3.342489
H    -4.412105  1.261036  -2.661439
N    -2.622640  -1.705088  0.915316
C    -4.010936  -1.250507  0.874193
H    -2.420425  -2.616704  0.514209
H    -4.656055  -2.127082  0.743861
H    -4.198626  -0.556317  0.039350
H    -4.299179  -0.772164  1.819046
