35
Energy: -21190.2880227 eV PBE+vdW (tier 2 basis)
C    0.292959  0.376508  0.753248
C    0.020298  -0.057644  2.179765
O    0.931178  -0.443077  2.921070
H    1.376377  0.409662  0.612777
H    -0.131959  1.363935  0.527989
H    -0.131965  -0.340264  0.036116
N    -1.269795  -0.001311  2.633841
C    -2.483037  0.049986  1.819541
C    -3.584164  0.824433  2.586689
O    -4.665696  0.313733  2.865698
H    -1.374057  -0.411290  3.569468
H    -2.254337  0.637854  0.917250
C    -2.983143  -1.341696  1.381786
C    -3.019521  -2.393791  2.505240
C    -1.711139  -3.200566  2.645466
N    -1.545562  -3.886366  3.921356
C    -1.422565  -3.202058  5.123422
N    -0.763896  -1.965195  5.028931
N    -1.929970  -3.723302  6.188314
H    -2.337093  -1.695553  0.561542
H    -3.986875  -1.209807  0.958751
H    -3.849658  -3.090847  2.323886
H    -3.255681  -1.910925  3.463778
H    -0.837313  -2.556657  2.480859
H    -1.656587  -3.965401  1.857000
H    -2.132590  -4.704973  4.058012
H    -0.514796  -1.586882  5.937152
H    0.023811  -1.896001  4.379240
H    -1.667295  -3.195842  7.024781
N    -3.300435  2.115399  2.936659
C    -2.126183  2.915474  2.630441
H    -4.053592  2.555398  3.455574
H    -1.837833  2.818893  1.574502
H    -1.259641  2.647972  3.250735
H    -2.371481  3.968816  2.805228
