35
Energy: -21190.5240732 eV PBE+vdW (tier 2 basis)
C    1.084960  -0.474403  0.754503
C    0.638359  0.018732  2.113374
O    1.404385  0.620481  2.875474
H    1.934935  -1.155220  0.886141
H    1.440428  0.383030  0.169642
H    0.296948  -0.989126  0.191755
N    -0.661000  -0.235349  2.442919
C    -1.243449  0.224548  3.707427
C    -0.904208  -0.787986  4.833753
O    -1.678611  -1.666222  5.228703
H    -1.226694  -0.796411  1.817208
H    -0.692732  1.147658  3.940681
C    -2.727096  0.609523  3.566378
C    -3.812410  -0.479627  3.526091
C    -3.613726  -1.598679  2.488779
N    -4.621254  -2.634715  2.510894
C    -4.709562  -3.634855  3.470006
N    -3.545783  -3.862957  4.199893
N    -5.811057  -4.310609  3.527444
H    -2.791943  1.238037  2.663046
H    -2.961464  1.277862  4.408007
H    -4.773412  0.017183  3.318908
H    -3.905859  -0.937675  4.517535
H    -2.640144  -2.090472  2.639655
H    -3.597148  -1.172304  1.471149
H    -5.527575  -2.427877  2.106106
H    -3.681195  -4.502352  4.973858
H    -2.960744  -3.067261  4.463410
H    -5.758578  -5.040627  4.241124
N    0.347641  -0.615053  5.324213
C    0.937486  -1.525454  6.287652
H    0.953837  0.017620  4.795367
H    1.534519  -2.309487  5.796886
H    0.132284  -2.007206  6.851527
H    1.583614  -0.969875  6.977615
