35
Energy: -21190.3471027 eV PBE+vdW (tier 2 basis)
C    -0.695785  0.381265  -0.899692
C    -0.150571  0.544382  0.500920
O    1.033774  0.851505  0.692437
H    -0.833210  -0.684776  -1.130172
H    0.036566  0.798139  -1.595739
H    -1.668888  0.865214  -1.044832
N    -0.976734  0.295027  1.563746
C    -2.442087  0.247661  1.601804
C    -3.022108  -0.808759  0.630208
O    -3.850190  -0.523339  -0.231465
H    -0.532558  0.498177  2.455838
H    -2.678339  -0.124541  2.613596
C    -3.140660  1.609042  1.451933
C    -3.008442  2.543627  2.671385
C    -1.966596  3.668745  2.575100
N    -0.588855  3.228946  2.436064
C    0.143742  2.764975  3.506926
N    1.472535  2.490381  3.163163
N    -0.419932  2.637678  4.667502
H    -4.199752  1.392080  1.263065
H    -2.780793  2.106588  0.538550
H    -2.803125  1.967247  3.585749
H    -3.976803  3.037876  2.841878
H    -2.060704  4.298154  3.474229
H    -2.188961  4.299170  1.701957
H    -0.055272  3.572364  1.649436
H    1.989787  2.036257  3.908518
H    1.572271  1.987799  2.272540
H    0.232605  2.229179  5.340530
N    -2.587694  -2.095259  0.790604
C    -1.668735  -2.643738  1.774840
H    -3.003924  -2.735082  0.121347
H    -1.842618  -3.723395  1.847113
H    -1.845684  -2.214789  2.769733
H    -0.615428  -2.473050  1.510733
