35
Energy: -21190.6494799 eV PBE+vdW (tier 2 basis)
C    0.236413  1.026274  0.827498
C    -0.030813  0.473262  2.208011
O    0.875768  0.100752  2.965768
H    1.219549  0.689615  0.487205
H    0.222687  2.123943  0.890794
H    -0.530537  0.723408  0.102750
N    -1.340859  0.439347  2.583430
C    -1.747792  0.204533  3.969630
C    -1.894565  -1.319586  4.247653
O    -2.986161  -1.864074  4.406910
H    -2.025680  0.834824  1.949086
H    -0.915266  0.565833  4.594269
C    -3.040505  0.947665  4.316925
C    -3.101489  2.413779  3.868943
C    -1.915878  3.273481  4.326346
N    -1.991735  4.664099  3.898223
C    -1.694263  5.020908  2.597649
N    -1.961180  6.375186  2.346316
N    -1.251984  4.153388  1.747208
H    -3.164586  0.880441  5.408147
H    -3.889225  0.389662  3.896228
H    -4.036229  2.851310  4.254263
H    -3.164930  2.488835  2.773171
H    -0.977008  2.873671  3.923594
H    -1.834193  3.264966  5.423985
H    -2.714929  5.224958  4.336592
H    -1.609158  6.703290  1.453566
H    -1.714179  7.007587  3.103504
H    -0.971099  4.614701  0.878528
N    -0.695932  -1.957059  4.293898
C    -0.582582  -3.394809  4.429979
H    0.122545  -1.400344  4.027287
H    0.172185  -3.652542  5.184803
H    -0.303650  -3.872787  3.478300
H    -1.555878  -3.786177  4.744797
