35
Energy: -21190.4785923 eV PBE+vdW (tier 2 basis)
C    -1.769503  -2.486241  2.375596
C    -1.104917  -1.123110  2.359422
O    -1.610470  -0.150300  1.797336
H    -1.944910  -2.804704  1.340691
H    -2.749663  -2.394353  2.860042
H    -1.184864  -3.255359  2.894886
N    0.090259  -1.044816  3.013666
C    0.858381  0.183650  3.063430
C    2.337874  -0.216424  3.115257
O    2.707212  -1.207929  3.745357
H    0.525464  -1.856986  3.442390
H    0.626795  0.738629  2.141857
C    0.466330  1.037940  4.296483
C    1.049227  2.452925  4.349633
C    0.501086  3.388111  3.261160
N    0.967050  4.758753  3.414243
C    0.343586  5.644180  4.292246
N    0.895074  6.927633  4.218458
N    -0.632091  5.415236  5.099605
H    0.759302  0.479088  5.197213
H    -0.632664  1.093268  4.299121
H    2.148195  2.434678  4.290763
H    0.811776  2.888188  5.331010
H    -0.603627  3.339070  3.250825
H    0.816846  3.054294  2.262645
H    1.321168  5.200346  2.572853
H    1.911170  6.951630  4.202481
H    0.508332  7.527303  4.941656
H    -1.038177  4.487972  4.954144
N    3.187945  0.613198  2.450984
C    4.628473  0.436964  2.452323
H    2.787943  1.378689  1.922349
H    5.134774  1.315755  2.875048
H    5.008259  0.260045  1.436732
H    4.852366  -0.437324  3.072096
