35
Energy: -21190.4408002 eV PBE+vdW (tier 2 basis)
C    0.310636  0.036632  -0.133252
C    0.383429  0.154780  1.375533
O    1.437435  0.318079  1.981615
H    1.314596  0.190904  -0.536046
H    -0.377623  0.772198  -0.571541
H    -0.045986  -0.959005  -0.433911
N    -0.812794  0.080361  2.063495
C    -2.136772  -0.204109  1.524362
C    -2.787933  0.988476  0.790529
O    -3.637906  0.796920  -0.079431
H    -0.696243  0.066913  3.073914
H    -2.067582  -0.995915  0.764200
C    -3.030977  -0.697682  2.684276
C    -4.494423  -0.998310  2.345665
C    -4.686569  -2.110695  1.300520
N    -6.070157  -2.464855  1.047412
C    -6.887872  -1.681969  0.229064
N    -8.222796  -2.117643  0.272717
N    -6.571822  -0.677820  -0.504961
H    -3.001157  0.063367  3.481460
H    -2.552193  -1.602229  3.094583
H    -5.004235  -0.088501  2.000241
H    -4.996840  -1.300926  3.278065
H    -4.157003  -3.021412  1.623969
H    -4.243035  -1.810132  0.341453
H    -6.559738  -2.893388  1.827795
H    -8.770096  -1.624490  -0.427624
H    -8.334144  -3.125705  0.191437
H    -5.610784  -0.352974  -0.365422
N    -2.380409  2.216497  1.200496
C    -2.896707  3.448088  0.634621
H    -1.608952  2.248046  1.859140
H    -2.118127  3.990750  0.080040
H    -3.293701  4.103572  1.421179
H    -3.705660  3.184472  -0.054937
