35
Energy: -21190.3624232 eV PBE+vdW (tier 2 basis)
C    -0.303384  -0.187768  0.232765
C    -1.187036  -0.831269  1.275169
O    -0.761851  -1.713663  2.024748
H    0.382549  0.508167  0.738125
H    -0.841310  0.355974  -0.550026
H    0.309771  -0.975825  -0.218562
N    -2.505991  -0.433138  1.378115
C    -3.104981  0.842013  0.956310
C    -3.402459  0.910660  -0.568435
O    -3.602310  1.984643  -1.128886
H    -2.970783  -0.915149  2.143310
H    -4.111310  0.839301  1.409076
C    -2.377925  2.101729  1.453410
C    -2.604162  2.476510  2.921488
C    -2.118629  1.492984  4.009982
N    -0.777502  0.940476  3.866117
C    0.401081  1.647214  3.707910
N    0.334856  2.993429  4.076494
N    1.512048  1.181448  3.240045
H    -2.732733  2.928636  0.824378
H    -1.301518  2.014999  1.255515
H    -3.679187  2.648610  3.100660
H    -2.109708  3.444036  3.082092
H    -2.789867  0.624600  4.065792
H    -2.227718  1.993827  4.988696
H    -0.717533  -0.028864  3.572738
H    1.267777  3.394285  4.108255
H    -0.197007  3.188657  4.920128
H    1.404792  0.210411  2.933242
N    -3.491680  -0.297690  -1.185158
C    -3.811690  -0.440659  -2.591183
H    -3.273986  -1.116384  -0.627327
H    -4.705441  -1.063989  -2.731485
H    -2.976443  -0.889591  -3.147307
H    -4.007577  0.559895  -2.991193
