35
Energy: -21190.109114 eV PBE+vdW (tier 2 basis)
C    -0.076953  -0.045054  0.039884
C    -0.062669  0.139253  1.544195
O    0.975915  0.293893  2.183653
H    -0.593011  0.787452  -0.459666
H    -0.593404  -0.969519  -0.253449
H    0.958425  -0.084005  -0.307188
N    -1.279954  0.136626  2.183523
C    -2.602270  0.082211  1.586450
C    -3.088963  1.334526  0.815480
O    -3.962537  1.179868  -0.036935
H    -1.204858  0.270277  3.188031
H    -2.594492  -0.679905  0.793644
C    -3.648300  -0.398271  2.615287
C    -3.924853  0.502587  3.830163
C    -4.907808  1.658447  3.562797
N    -5.281324  2.412219  4.746267
C    -6.195243  1.923350  5.675367
N    -6.248517  2.715384  6.828504
N    -6.947708  0.881605  5.590321
H    -3.307540  -1.383131  2.966265
H    -4.585528  -0.570806  2.067048
H    -2.990015  0.913752  4.248501
H    -4.344352  -0.121737  4.632162
H    -5.826255  1.263423  3.103191
H    -4.497057  2.368471  2.833595
H    -4.547519  2.988079  5.147610
H    -7.015116  2.419088  7.426269
H    -6.272594  3.716742  6.652769
H    -6.733988  0.318649  4.764390
N    -2.556274  2.574094  1.046125
C    -1.645009  3.069848  2.071963
H    -2.971695  3.267522  0.431055
H    -0.600511  2.784550  1.892313
H    -1.928672  2.731855  3.076665
H    -1.705024  4.164050  2.067220
