35
Energy: -21190.2679974 eV PBE+vdW (tier 2 basis)
C    -1.067939  0.915720  -0.007510
C    -1.040054  0.157520  1.305164
O    -0.347297  -0.844436  1.469327
H    -0.057902  1.288692  -0.218628
H    -1.768270  1.760347  -0.017776
H    -1.333206  0.219786  -0.812643
N    -1.853105  0.657718  2.289275
C    -1.889253  0.103274  3.636146
C    -3.341392  -0.202283  4.063810
O    -3.862173  0.325489  5.046042
H    -2.385223  1.497841  2.096140
H    -1.360353  -0.858472  3.543388
C    -1.119477  0.952069  4.672125
C    -1.185679  2.479728  4.539754
C    -2.560903  3.135682  4.751988
N    -2.514997  4.589829  4.792577
C    -2.106396  5.277590  5.931069
N    -1.935870  6.647420  5.684719
N    -1.880460  4.817847  7.112485
H    -0.061992  0.661495  4.596559
H    -1.466479  0.649514  5.669661
H    -0.788852  2.784464  3.556493
H    -0.489744  2.904926  5.278161
H    -3.022036  2.772639  5.679480
H    -3.269148  2.850465  3.959906
H    -2.240474  5.040149  3.924231
H    -1.775809  7.142976  6.557555
H    -2.686990  7.071289  5.145542
H    -1.919156  3.796573  7.138641
N    -4.029597  -1.108731  3.307746
C    -3.588153  -1.884111  2.159873
H    -4.981859  -1.244662  3.633314
H    -4.119469  -2.843323  2.154637
H    -2.514245  -2.096484  2.209991
H    -3.787846  -1.370572  1.206468
