35
Energy: -21190.056595 eV PBE+vdW (tier 2 basis)
C    -1.810585  -0.037052  1.160926
C    -2.597633  0.224538  2.428701
O    -3.003480  -0.699433  3.132222
H    -2.512176  -0.129716  0.319296
H    -1.301904  -0.997942  1.281289
H    -1.084823  0.739417  0.902478
N    -2.920703  1.520847  2.768850
C    -2.487192  2.820799  2.247899
C    -2.432594  2.888254  0.705243
O    -1.414901  3.217154  0.099741
H    -3.448366  1.547184  3.637835
H    -3.301592  3.514742  2.521593
C    -1.219214  3.377983  2.920276
C    0.049165  2.529922  2.810755
C    1.219578  3.095991  3.628004
N    1.622403  4.449059  3.244563
C    1.146512  5.599616  3.854670
N    0.976519  5.489296  5.241870
N    0.890991  6.635131  3.127465
H    -1.459750  3.528673  3.985684
H    -1.036982  4.377593  2.500961
H    0.347363  2.449754  1.755434
H    -0.137211  1.506133  3.172775
H    0.953828  3.108280  4.693210
H    2.086829  2.425783  3.524319
H    1.694213  4.602635  2.240893
H    0.800058  6.379011  5.695218
H    1.694298  4.954117  5.724327
H    0.705013  7.459976  3.703903
N    -3.591275  2.611533  0.034312
C    -4.898434  2.249906  0.556666
H    -3.482587  2.673273  -0.973178
H    -5.151245  2.843943  1.444255
H    -4.970019  1.185917  0.825900
H    -5.650598  2.467755  -0.210029
