35
Energy: -21190.4266819 eV PBE+vdW (tier 2 basis)
C    -0.612465  2.746219  0.876074
C    -0.436167  1.625760  1.886431
O    0.331244  1.732319  2.839781
H    -1.653529  2.881475  0.553370
H    -0.248618  3.671368  1.331252
H    -0.008266  2.543021  -0.019344
N    -1.161351  0.477761  1.694647
C    -2.093265  0.139544  0.638459
C    -2.959896  -1.012556  1.177101
O    -2.535101  -1.798083  2.034231
H    -1.037874  -0.247437  2.401409
H    -2.761180  0.995808  0.446611
C    -1.417087  -0.226644  -0.718512
C    -0.258720  -1.242522  -0.656802
C    -0.579773  -2.645124  -1.172921
N    -1.578887  -3.301396  -0.353371
C    -2.209885  -4.448867  -0.763829
N    -3.104157  -4.965328  0.195477
N    -2.025110  -4.912422  -1.955279
H    -1.050291  0.717124  -1.143880
H    -2.196261  -0.584765  -1.409620
H    0.132599  -1.299967  0.371353
H    0.578995  -0.864609  -1.258845
H    0.351539  -3.238362  -1.217781
H    -0.963177  -2.607830  -2.202920
H    -1.593041  -3.075739  0.636987
H    -3.246828  -5.965986  0.109453
H    -2.914679  -4.696823  1.158936
H    -2.619733  -5.726464  -2.126671
N    -4.195354  -1.101989  0.637561
C    -5.114592  -2.189652  0.935960
H    -4.446576  -0.445466  -0.091750
H    -4.995427  -2.472705  1.987544
H    -4.913378  -3.073847  0.314771
H    -6.141963  -1.846857  0.771538
