35
Energy: -21190.1272139 eV PBE+vdW (tier 2 basis)
C    -1.611971  -0.081960  -0.060410
C    -1.226496  0.110146  1.395531
O    -0.060864  0.223603  1.760147
H    -1.288142  -1.081981  -0.377657
H    -1.066082  0.647426  -0.669554
H    -2.687592  0.016664  -0.253935
N    -2.275181  0.157790  2.278461
C    -2.102905  0.182113  3.730355
C    -1.061254  1.227663  4.215999
O    -0.203315  0.927090  5.039778
H    -3.209408  0.009165  1.917981
H    -3.075561  0.508573  4.139587
C    -1.760061  -1.196565  4.306331
C    -2.838323  -2.256577  4.098996
C    -2.436223  -3.623541  4.672939
N    -1.300564  -4.229636  3.982926
C    -0.100440  -4.566969  4.593182
N    0.294298  -3.699244  5.615132
N    0.511910  -5.631992  4.194946
H    -1.561619  -1.063119  5.379309
H    -0.816797  -1.521657  3.843840
H    -3.058089  -2.379559  3.025836
H    -3.779671  -1.942996  4.582935
H    -3.297182  -4.308620  4.618273
H    -2.184701  -3.521325  5.738264
H    -1.530042  -4.924947  3.280169
H    1.230716  -3.879536  5.958805
H    0.134677  -2.708439  5.448149
H    1.449169  -5.695324  4.600142
N    -1.199022  2.519787  3.789234
C    -2.128226  3.097636  2.837290
H    -0.447279  3.112283  4.127184
H    -2.187920  4.176912  3.022788
H    -3.137397  2.688027  2.967619
H    -1.822658  2.942315  1.790739
