35
Energy: -21190.1728767 eV PBE+vdW (tier 2 basis)
C    -0.991027  0.046977  -0.409167
C    -0.182859  -0.033128  0.872458
O    1.032584  -0.207443  0.857376
H    -0.388899  -0.392918  -1.208724
H    -1.186997  1.098262  -0.664163
H    -1.953927  -0.474789  -0.350256
N    -0.839475  0.141300  2.069951
C    -2.267300  0.251849  2.341286
C    -3.027296  -1.034303  1.894579
O    -2.506890  -2.137474  2.019641
H    -0.230300  -0.030424  2.862590
H    -2.344375  0.218749  3.440555
C    -2.882053  1.588692  1.889581
C    -2.147273  2.817564  2.428612
C    -2.759060  4.145059  1.956371
N    -4.157394  4.351585  2.346123
C    -5.240775  3.797927  1.666509
N    -5.088389  3.744865  0.280720
N    -6.333422  3.348620  2.188146
H    -3.921604  1.627627  2.248360
H    -2.929159  1.644436  0.792274
H    -1.091243  2.790613  2.119507
H    -2.142031  2.792682  3.532344
H    -2.691800  4.212931  0.863003
H    -2.171506  4.984092  2.356347
H    -4.304103  4.353848  3.351502
H    -5.970922  3.506035  -0.162236
H    -4.654353  4.562007  -0.139432
H    -6.272571  3.314681  3.209695
N    -4.290490  -0.850677  1.414223
C    -5.142878  -1.960166  1.027813
H    -4.647469  0.091084  1.308882
H    -6.104140  -1.916331  1.556968
H    -4.623513  -2.886522  1.293873
H    -5.334160  -1.959533  -0.054862
