35
Energy: -21190.0892541 eV PBE+vdW (tier 2 basis)
C    -1.008855  -1.067072  -0.101247
C    -0.779429  -0.357913  1.224944
O    0.174495  0.401609  1.385439
H    -0.153185  -1.726401  -0.294613
H    -1.029465  -0.316401  -0.900366
H    -1.929567  -1.662130  -0.143750
N    -1.713629  -0.639925  2.186316
C    -1.772919  -0.234926  3.598263
C    -2.881476  0.812122  3.884881
O    -3.783647  0.518858  4.672850
H    -2.459134  -1.265532  1.904673
H    -2.164198  -1.113634  4.130388
C    -0.422964  0.105287  4.252746
C    -0.548624  0.216461  5.774057
C    0.801160  0.530165  6.431074
N    0.754348  0.599840  7.883337
C    0.795917  -0.554930  8.642540
N    0.690397  -0.325177  10.021471
N    1.007600  -1.698877  8.084147
H    0.003992  1.024396  3.833999
H    0.285215  -0.697730  3.999692
H    -0.929684  -0.726336  6.193128
H    -1.276414  0.999801  6.041100
H    1.195536  1.487982  6.057740
H    1.528200  -0.252485  6.178814
H    0.236383  1.378291  8.274777
H    0.291980  -1.098025  10.542065
H    0.313113  0.571496  10.313066
H    1.135561  -2.430435  8.786634
N    -2.840712  2.044668  3.302842
C    -1.963729  2.582912  2.276857
H    -3.644857  2.607555  3.567247
H    -1.740709  3.633865  2.502599
H    -2.427268  2.533333  1.278590
H    -1.017323  2.035818  2.230158
