35
Energy: -21190.443259 eV PBE+vdW (tier 2 basis)
C    -1.107397  -0.368504  -0.404377
C    -0.571895  -0.459774  1.010493
O    0.546216  -0.892872  1.271908
H    -0.313493  -0.675224  -1.089739
H    -1.437137  0.648856  -0.655508
H    -1.973494  -1.032086  -0.540110
N    -1.404799  -0.017818  2.019253
C    -2.788188  0.429808  1.904765
C    -2.939342  1.856965  1.334234
O    -3.972821  2.197635  0.758738
H    -1.041722  -0.201404  2.951657
H    -3.333209  -0.215715  1.200814
C    -3.444584  0.320565  3.300029
C    -4.904500  0.766729  3.411368
C    -5.871008  -0.046535  2.538100
N    -7.272476  0.287008  2.744078
C    -7.947583  -0.166946  3.861113
N    -9.238343  0.380090  3.960621
N    -7.384494  -0.979504  4.690649
H    -2.836184  0.909350  4.006594
H    -3.362187  -0.732706  3.613830
H    -4.997204  1.832827  3.156735
H    -5.213501  0.648563  4.459067
H    -5.759070  -1.116883  2.759637
H    -5.652573  0.115124  1.474151
H    -7.562121  1.197610  2.402906
H    -9.812161  -0.064771  4.669006
H    -9.734056  0.461085  3.075924
H    -8.051942  -1.313784  5.389317
N    -1.880576  2.680708  1.553943
C    -1.846082  4.058662  1.106857
H    -1.051761  2.261557  1.962998
H    -1.056361  4.216805  0.358739
H    -1.676995  4.743329  1.949244
H    -2.816661  4.284216  0.652040
