35
Energy: -21190.2531693 eV PBE+vdW (tier 2 basis)
C    0.138233  -0.186696  0.837893
C    -0.406337  0.597823  2.021887
O    0.090813  1.663556  2.377884
H    -0.601262  -0.253515  0.026823
H    0.423659  -1.211118  1.114638
H    1.020094  0.341267  0.466194
N    -1.493431  0.073518  2.671922
C    -2.162687  -1.199488  2.435993
C    -3.664839  -0.967490  2.671812
O    -4.059594  -0.713069  3.815240
H    -1.825733  0.617054  3.466273
H    -1.973487  -1.494448  1.397622
C    -1.625658  -2.301219  3.373621
C    -2.156712  -3.734600  3.178362
C    -3.476589  -4.104785  3.884959
N    -4.666868  -3.817526  3.106499
C    -5.838488  -3.230541  3.513122
N    -6.100249  -3.231121  4.875942
N    -6.638010  -2.760061  2.598124
H    -1.805347  -1.977061  4.409584
H    -0.534142  -2.314875  3.237136
H    -2.235129  -3.979231  2.104838
H    -1.391129  -4.419652  3.571182
H    -3.524820  -3.540588  4.827577
H    -3.443477  -5.175998  4.150971
H    -4.627227  -3.967415  2.105452
H    -6.615400  -2.414792  5.186853
H    -5.321810  -3.440649  5.491555
H    -7.529923  -2.476467  3.008631
N    -4.506291  -1.058632  1.611821
C    -4.147957  -1.429785  0.254229
H    -5.478099  -1.277810  1.887723
H    -5.061800  -1.416722  -0.349067
H    -3.712193  -2.440810  0.170961
H    -3.446329  -0.710519  -0.189085
