35
Energy: -21190.0745248 eV PBE+vdW (tier 2 basis)
C    1.445958  1.628288  1.979448
C    0.392888  1.231338  2.997926
O    -0.002293  1.996914  3.872427
H    1.069046  2.478853  1.397814
H    1.725408  0.822333  1.289167
H    2.341860  1.970430  2.512100
N    -0.081006  -0.049720  2.887145
C    -1.162100  -0.550735  3.719761
C    -0.852073  -0.923398  5.190464
O    -1.812024  -1.045959  5.950076
H    0.267898  -0.634633  2.137778
H    -1.886693  0.268053  3.834969
C    -1.869277  -1.736166  3.040738
C    -1.017559  -3.002681  2.909101
C    -1.789155  -4.153767  2.263870
N    -0.956883  -5.341602  2.166473
C    -1.205520  -6.434664  1.345299
N    -2.246973  -6.257421  0.433654
N    -0.519937  -7.527351  1.305459
H    -2.219699  -1.406768  2.049617
H    -2.762960  -1.956468  3.639961
H    -0.671601  -3.311968  3.909505
H    -0.111721  -2.823982  2.306282
H    -2.090430  -3.865203  1.246299
H    -2.717191  -4.332732  2.843523
H    -0.405398  -5.562559  2.987664
H    -2.415571  -7.120101  -0.075658
H    -3.102176  -5.849582  0.799751
H    0.298519  -7.477852  1.918383
N    0.416323  -1.158255  5.639764
C    1.715777  -1.094947  4.987990
H    0.415195  -1.345798  6.638057
H    2.030754  -0.063982  4.773375
H    1.737468  -1.675729  4.058448
H    2.450710  -1.539111  5.669082
