35
Energy: -21190.1774404 eV PBE+vdW (tier 2 basis)
C    -3.511843  1.926892  1.741478
C    -2.043954  1.568918  1.613410
O    -1.145082  2.389116  1.787745
H    -4.072106  1.688011  0.826820
H    -3.583428  2.999163  1.939202
H    -3.987699  1.375516  2.565192
N    -1.748593  0.263911  1.298932
C    -2.676031  -0.842613  1.138731
C    -3.369769  -1.393335  2.410101
O    -4.439786  -1.985890  2.266034
H    -0.750814  0.079486  1.236345
H    -3.529114  -0.500972  0.534996
C    -2.022517  -1.998124  0.357412
C    -0.914609  -2.754584  1.094389
C    -0.177454  -3.747565  0.183400
N    0.576437  -3.090816  -0.873079
C    1.836105  -2.544288  -0.642773
N    2.402044  -2.016046  -1.805247
N    2.491017  -2.493007  0.465613
H    -1.623457  -1.582105  -0.579964
H    -2.823978  -2.699884  0.086390
H    -1.336442  -3.307722  1.947509
H    -0.169318  -2.058667  1.510599
H    -0.905676  -4.413384  -0.300589
H    0.478772  -4.395295  0.791766
H    0.433157  -3.442025  -1.812831
H    3.264110  -1.520677  -1.597027
H    1.769292  -1.465998  -2.379677
H    2.039279  -3.042558  1.200108
N    -2.824583  -1.236817  3.653069
C    -1.555360  -0.676196  4.104917
H    -3.420433  -1.649077  4.364854
H    -0.701826  -1.078080  3.546616
H    -1.422888  -0.963655  5.153934
H    -1.526751  0.419553  4.045618
