35
Energy: -21190.333294 eV PBE+vdW (tier 2 basis)
C    0.244565  0.449125  1.168435
C    -0.392231  -0.687534  1.954235
O    0.205695  -1.741709  2.161496
H    1.236757  0.120625  0.848613
H    0.352106  1.351961  1.787087
H    -0.344753  0.722694  0.282682
N    -1.657739  -0.485759  2.435416
C    -2.497803  0.690444  2.312212
C    -3.411290  0.702534  3.551488
O    -3.708719  -0.353273  4.117732
H    -2.034087  -1.215859  3.040584
H    -1.865855  1.589738  2.319019
C    -3.328593  0.707034  0.996591
C    -4.307063  -0.470205  0.845394
C    -5.752565  -0.177488  1.268562
N    -6.472467  0.661620  0.320765
C    -6.836807  1.963555  0.558174
N    -7.530697  2.524480  -0.526968
N    -6.517723  2.572834  1.654940
H    -2.602339  0.694226  0.172016
H    -3.867232  1.662584  0.915378
H    -3.943598  -1.334738  1.419784
H    -4.315269  -0.804063  -0.204528
H    -5.795780  0.333447  2.236640
H    -6.294608  -1.129652  1.379646
H    -6.463381  0.371580  -0.650150
H    -7.926381  3.437058  -0.329366
H    -8.209743  1.908894  -0.967944
H    -6.983220  3.481694  1.706335
N    -3.880186  1.901667  3.982911
C    -3.727108  3.211733  3.369712
H    -4.574772  1.810938  4.718743
H    -2.707070  3.347395  2.990733
H    -4.451791  3.356334  2.554137
H    -3.894620  3.976592  4.137019
