35
Energy: -21189.9912448 eV PBE+vdW (tier 2 basis)
C    -0.218074  0.096981  -0.092487
C    -0.100578  0.041963  1.417386
O    1.005167  -0.050351  1.953742
H    -0.797353  -0.741199  -0.497942
H    0.798651  0.051513  -0.491653
H    -0.704101  1.016053  -0.440247
N    -1.217331  0.104945  2.224904
C    -2.676852  0.142347  2.057256
C    -3.358990  -1.075633  2.728257
O    -4.248461  -0.886077  3.559347
H    -0.926570  0.073599  3.200183
H    -3.038114  0.975277  2.680430
C    -3.202010  0.392696  0.639481
C    -4.719450  0.582632  0.588832
C    -5.218444  0.859911  -0.833835
N    -4.688916  2.092933  -1.412826
C    -3.696127  2.068401  -2.375148
N    -3.483985  3.329831  -2.953342
N    -3.094624  0.968630  -2.680936
H    -2.924742  -0.413752  -0.050522
H    -2.724483  1.303051  0.253483
H    -5.018709  1.406024  1.256628
H    -5.235313  -0.315455  0.961974
H    -6.315457  0.927853  -0.828373
H    -4.936664  0.032564  -1.500656
H    -5.341831  2.862623  -1.493131
H    -2.634521  3.388100  -3.504385
H    -3.567225  4.116427  -2.313919
H    -2.348131  1.132582  -3.359381
N    -2.982527  -2.344299  2.388280
C    -1.963758  -2.812823  1.460846
H    -3.488486  -3.045477  2.920174
H    -0.943822  -2.614353  1.817616
H    -2.081183  -2.365588  0.465936
H    -2.083592  -3.895527  1.345713
