35
Energy: -21190.2452619 eV PBE+vdW (tier 2 basis)
C    -1.213391  -0.032532  -0.659919
C    -1.470135  -0.127931  0.831841
O    -0.886049  -0.948746  1.536688
H    -1.104038  -1.043403  -1.066651
H    -0.260640  0.493750  -0.809510
H    -1.997751  0.500526  -1.211713
N    -2.408222  0.750676  1.310099
C    -2.657246  1.015810  2.722671
C    -1.463735  1.815962  3.312010
O    -0.408839  1.946941  2.685658
H    -2.702931  1.473320  0.664644
H    -3.493812  1.730909  2.716342
C    -3.180767  -0.268380  3.468613
C    -2.570405  -0.768054  4.790116
C    -1.236498  -1.522873  4.708331
N    -0.094638  -0.709366  4.359945
C    0.572005  0.052012  5.279477
N    1.594123  0.827092  4.706906
N    0.271703  -0.018686  6.542028
H    -3.125278  -1.086180  2.739592
H    -4.253385  -0.099240  3.644258
H    -3.307758  -1.467722  5.216871
H    -2.463856  0.030453  5.533507
H    -1.306976  -2.328287  3.963760
H    -1.037919  -1.975524  5.689188
H    0.083118  -0.584195  3.368043
H    1.340963  1.238608  3.806609
H    1.961473  1.526288  5.343368
H    0.887723  0.587010  7.088943
N    -1.645873  2.447076  4.502653
C    -2.817145  2.542970  5.353347
H    -0.800340  2.904073  4.832617
H    -3.057300  3.597874  5.549121
H    -2.653842  2.034096  6.314168
H    -3.686034  2.086048  4.871568
