35
Energy: -21190.5232053 eV PBE+vdW (tier 2 basis)
C    -0.508785  0.090152  -0.182541
C    -0.439874  0.206090  1.328337
O    0.642022  0.364775  1.907655
H    0.096958  -0.770047  -0.494145
H    -0.056028  0.985992  -0.624910
H    -1.525075  -0.030319  -0.576877
N    -1.634988  0.127986  1.976895
C    -1.865081  0.138045  3.431861
C    -1.649955  1.515985  4.109707
O    -2.540431  1.975443  4.830360
H    -2.462850  0.061781  1.398434
H    -2.943951  -0.023050  3.550808
C    -1.127210  -1.026181  4.128443
C    -1.331508  -1.100630  5.650832
C    -0.291077  -0.326853  6.471456
N    1.052335  -0.830219  6.229627
C    2.155978  -0.003170  6.202751
N    3.348676  -0.731146  6.036628
N    2.048680  1.274094  6.351587
H    -0.052988  -0.967011  3.908874
H    -1.492110  -1.950903  3.657257
H    -1.300342  -2.159457  5.955437
H    -2.331296  -0.735732  5.930987
H    -0.550015  -0.384268  7.542676
H    -0.276273  0.737174  6.216527
H    1.239179  -1.781344  6.528709
H    4.156096  -0.140903  5.865900
H    3.288313  -1.478483  5.348466
H    2.947896  1.733318  6.188871
N    -0.457351  2.109201  3.881292
C    -0.069283  3.351763  4.523002
H    0.224665  1.588573  3.321875
H    0.635537  3.155073  5.344458
H    -0.969335  3.826961  4.926891
H    0.400206  4.023129  3.791906
