35
Energy: -21189.7730803 eV PBE+vdW (tier 2 basis)
C    -0.592780  -0.044446  -0.533028
C    -0.445874  -0.392264  0.935941
O    0.406078  -1.186228  1.326339
H    -0.527827  1.036915  -0.709407
H    -1.556050  -0.400935  -0.923048
H    0.214174  -0.542899  -1.075952
N    -1.295050  0.204327  1.838132
C    -2.436927  1.102849  1.643423
C    -3.565936  0.376775  0.850247
O    -4.064162  -0.618553  1.370980
H    -1.188191  -0.187072  2.768670
H    -2.898374  1.145663  2.640052
C    -2.023880  2.547467  1.300819
C    -3.109238  3.588802  1.618679
C    -3.213686  3.901703  3.112371
N    -4.279819  4.856660  3.370599
C    -4.781574  4.989756  4.657724
N    -5.682715  6.062168  4.760457
N    -4.393720  4.202405  5.599759
H    -1.701033  2.639459  0.258007
H    -1.129241  2.763470  1.904413
H    -4.096302  3.253343  1.263318
H    -2.882148  4.517009  1.068912
H    -2.239754  4.264368  3.490618
H    -3.451770  3.007094  3.702011
H    -4.208384  5.733540  2.862335
H    -6.183064  6.088778  5.642513
H    -6.313670  6.163343  3.968956
H    -4.939170  4.346941  6.452685
N    -4.037187  0.800100  -0.367731
C    -3.629010  1.839215  -1.302504
H    -4.787422  0.188545  -0.676865
H    -3.800427  2.851632  -0.913844
H    -4.238781  1.726137  -2.205350
H    -2.578030  1.746677  -1.604061
