35
Energy: -21190.4465925 eV PBE+vdW (tier 2 basis)
C    -1.222704  1.745706  0.635395
C    -1.019957  1.343540  2.084271
O    -0.990882  2.167331  2.998334
H    -0.400926  2.408686  0.336699
H    -2.152037  2.322783  0.555204
H    -1.266281  0.895207  -0.055749
N    -0.882375  0.002117  2.305585
C    -0.559055  -0.528715  3.613286
C    0.192084  -1.851213  3.381902
O    0.167606  -2.425503  2.291976
H    -0.759262  -0.656836  1.538747
H    0.099864  0.195361  4.120181
C    -1.812523  -0.721249  4.501510
C    -2.803475  -1.756698  3.967416
C    -4.110753  -1.821775  4.756235
N    -4.855138  -0.567535  4.627711
C    -6.094078  -0.353339  5.228167
N    -6.269320  -1.021596  6.439554
N    -7.052396  0.381414  4.775409
H    -2.292386  0.262402  4.593697
H    -1.491872  -1.003361  5.517873
H    -2.350130  -2.759625  3.973289
H    -3.030778  -1.539601  2.910370
H    -3.883426  -2.001258  5.818261
H    -4.708539  -2.685250  4.412543
H    -4.813226  -0.168120  3.694282
H    -7.104940  -0.688266  6.911117
H    -5.458653  -1.044571  7.051060
H    -6.856304  0.708665  3.825510
N    0.841030  -2.340316  4.471977
C    1.565479  -3.598116  4.464123
H    0.847405  -1.779367  5.315619
H    1.177875  -4.282066  5.231431
H    2.639194  -3.440639  4.636510
H    1.428879  -4.052199  3.477502
