35
Energy: -21190.4470487 eV PBE+vdW (tier 2 basis)
C    0.227571  -0.892959  0.250256
C    0.041903  -0.635361  1.733680
O    0.923415  -0.877051  2.559126
H    1.086765  -0.310112  -0.104528
H    -0.651585  -0.638487  -0.354081
H    0.470089  -1.952925  0.105200
N    -1.164647  -0.105105  2.089436
C    -1.526537  0.107981  3.475409
C    -3.055875  0.004030  3.554148
O    -3.753588  0.118932  2.542759
H    -1.934566  -0.023078  1.428488
H    -1.048926  -0.688530  4.067432
C    -1.016095  1.463569  4.022581
C    -1.557417  2.687266  3.281405
C    -1.100592  4.009892  3.896656
N    -1.690934  4.206081  5.213196
C    -1.269840  5.243624  6.041658
N    -2.071022  5.361770  7.184446
N    -0.286083  6.055663  5.869735
H    0.081277  1.438943  3.954575
H    -1.256656  1.540399  5.092230
H    -2.660001  2.665289  3.246783
H    -1.227710  2.660922  2.232948
H    -1.345338  4.842818  3.211045
H    -0.005808  4.002198  4.014227
H    -2.694644  4.044077  5.247061
H    -1.674084  6.040349  7.828414
H    -2.281656  4.479739  7.644195
H    0.124713  5.961516  4.938452
N    -3.619951  -0.183151  4.780044
C    -2.972143  -0.393702  6.063697
H    -4.635219  -0.186572  4.753116
H    -3.609470  -1.033320  6.685465
H    -2.792058  0.547962  6.604866
H    -2.012039  -0.906416  5.937038
