35
Energy: -21190.0431614 eV PBE+vdW (tier 2 basis)
C    -0.299236  -0.451852  0.034286
C    -0.060113  -0.101274  1.488987
O    1.065386  -0.168305  1.979292
H    -1.160988  0.043185  -0.424934
H    -0.465627  -1.535190  -0.033224
H    0.608629  -0.201763  -0.523155
N    -1.124324  0.260417  2.284246
C    -2.530629  0.505680  1.991118
C    -3.141870  -0.604143  1.095400
O    -2.867239  -1.784930  1.276393
H    -0.833388  0.411528  3.245670
H    -3.052667  0.324423  2.945918
C    -2.818171  1.985766  1.639074
C    -2.078858  2.574952  0.434099
C    -2.410482  4.054576  0.176805
N    -2.088929  4.952857  1.284062
C    -2.957601  5.220345  2.334647
N    -4.294911  5.375830  1.946795
N    -2.486446  5.281929  3.533688
H    -2.545853  2.570356  2.530235
H    -3.907319  2.134756  1.537850
H    -2.301105  2.018281  -0.491281
H    -0.993351  2.476913  0.590634
H    -3.479247  4.161986  -0.051363
H    -1.862662  4.394189  -0.715013
H    -1.142962  4.854638  1.647064
H    -4.890286  5.726366  2.689261
H    -4.434885  5.884447  1.077138
H    -3.179615  5.644966  4.193198
N    -4.042924  -0.184407  0.159259
C    -4.773834  -1.109669  -0.685496
H    -4.230105  0.805936  0.074674
H    -4.578184  -0.914141  -1.748984
H    -5.856298  -1.046270  -0.505539
H    -4.430556  -2.119955  -0.439520
