35
Energy: -21190.4672825 eV PBE+vdW (tier 2 basis)
C    -1.631693  -0.506330  1.218538
C    -0.243771  0.100895  1.289660
O    0.272595  0.679299  0.333381
H    -1.681021  -1.173224  0.349633
H    -2.359217  0.299134  1.055024
H    -1.915098  -1.062970  2.120158
N    0.387010  -0.018000  2.495789
C    1.742593  0.446338  2.697136
C    2.335795  -0.388667  3.844001
O    1.620425  -1.047729  4.600277
H    0.023889  -0.613587  3.237308
H    2.306141  0.264532  1.767172
C    1.803895  1.965301  2.994206
C    1.167290  2.375110  4.320447
C    1.028927  3.896984  4.478486
N    0.132297  4.520322  3.511795
C    -1.187378  4.870199  3.751990
N    -1.763835  4.229020  4.851094
N    -1.892123  5.722915  3.087079
H    1.293672  2.463508  2.157594
H    2.855394  2.296501  2.964268
H    1.756246  1.988624  5.167847
H    0.172458  1.908836  4.402074
H    2.019294  4.367346  4.374159
H    0.674530  4.133855  5.491701
H    0.555892  5.008784  2.734505
H    -2.756532  4.439764  4.895616
H    -1.576366  3.233544  4.931339
H    -1.321759  6.231050  2.405589
N    3.687106  -0.307071  3.972239
C    4.425052  -0.980137  5.025306
H    4.201380  0.222742  3.278527
H    5.109375  -1.734612  4.613101
H    3.696684  -1.479623  5.672076
H    5.003851  -0.262653  5.622883
