35
Energy: -21190.1188022 eV PBE+vdW (tier 2 basis)
C    0.343342  0.859082  0.165857
C    0.197643  0.470828  1.621105
O    1.171179  0.385789  2.366877
H    1.411416  0.848082  -0.068641
H    -0.044609  1.873840  0.004216
H    -0.189757  0.162292  -0.490567
N    -1.062342  0.256687  2.149812
C    -2.388023  0.108541  1.560795
C    -2.547189  -1.227565  0.798045
O    -1.650163  -1.698545  0.105089
H    -0.989674  -0.010405  3.126777
H    -3.065173  0.098860  2.427947
C    -2.847218  1.266513  0.648040
C    -2.817706  2.635607  1.325150
C    -3.049686  3.795200  0.348819
N    -2.011642  3.885078  -0.675656
C    -0.816772  4.531050  -0.396889
N    0.010650  4.623193  -1.527496
N    -0.581965  4.985631  0.784462
H    -3.869854  1.035881  0.306219
H    -2.227842  1.284643  -0.257725
H    -1.852518  2.794904  1.823898
H    -3.586394  2.687570  2.113359
H    -3.094215  4.737802  0.915045
H    -4.008124  3.665884  -0.175301
H    -2.333425  3.984623  -1.630778
H    0.954961  4.926952  -1.314554
H    0.011741  3.796423  -2.120531
H    0.372467  5.342222  0.866273
N    -3.764429  -1.847383  0.897031
C    -4.908642  -1.474413  1.712688
H    -3.821809  -2.704121  0.355488
H    -5.286623  -0.471143  1.467748
H    -4.687259  -1.512980  2.790117
H    -5.717869  -2.185682  1.516190
