35
Energy: -21190.3700838 eV PBE+vdW (tier 2 basis)
C    -2.901630  -0.997549  1.112467
C    -1.453410  -0.608936  1.335828
O    -0.518902  -1.340318  1.016366
H    -3.445412  -1.101123  2.061622
H    -2.909086  -1.959942  0.594271
H    -3.452816  -0.260094  0.514127
N    -1.205737  0.612151  1.921906
C    -2.162965  1.581429  2.447183
C    -1.670541  2.980660  2.030296
O    -1.017756  3.692679  2.794690
H    -0.219906  0.780972  2.110604
H    -3.122934  1.383517  1.954440
C    -2.330748  1.445667  3.969956
C    -3.235091  2.474946  4.667081
C    -4.605388  2.740640  4.027449
N    -5.399399  1.542173  3.797982
C    -5.708562  1.051287  2.542481
N    -6.149425  -0.275873  2.570691
N    -5.606078  1.643260  1.397205
H    -1.336351  1.502228  4.434698
H    -2.700159  0.424473  4.149559
H    -2.709654  3.438243  4.724778
H    -3.384342  2.145363  5.708306
H    -4.477138  3.251189  3.063224
H    -5.166607  3.443471  4.663128
H    -5.339697  0.840897  4.529125
H    -6.567661  -0.535383  1.681971
H    -6.749337  -0.516080  3.354995
H    -5.242430  2.593226  1.497536
N    -1.981914  3.387094  0.763612
C    -2.549881  2.590992  -0.317216
H    -1.539709  4.267510  0.515171
H    -2.807040  3.264202  -1.142060
H    -3.474797  2.089917  -0.003246
H    -1.845721  1.832235  -0.690782
