35
Energy: -21190.1723503 eV PBE+vdW (tier 2 basis)
C    0.383017  0.914509  0.358930
C    0.139079  0.657462  1.830252
O    0.940455  1.010591  2.697562
H    0.361483  2.000947  0.195738
H    -0.351919  0.441072  -0.303884
H    1.387275  0.559760  0.099979
N    -1.055002  0.062095  2.137154
C    -1.389519  -0.358459  3.501216
C    -1.996789  -1.773693  3.508917
O    -1.478564  -2.664088  4.174669
H    -1.597472  -0.309118  1.367138
H    -0.428586  -0.474366  4.018578
C    -2.237871  0.635062  4.328030
C    -1.555001  1.978071  4.637910
C    -1.756609  3.052134  3.556434
N    -1.115276  4.315371  3.878815
C    -0.052435  4.897044  3.201000
N    0.666628  4.035251  2.378859
N    0.291402  6.142466  3.261604
H    -2.460022  0.119056  5.274304
H    -3.211162  0.817868  3.846273
H    -0.479058  1.825423  4.799729
H    -1.961126  2.370096  5.583195
H    -2.838977  3.219354  3.412283
H    -1.370923  2.716526  2.587368
H    -1.636814  4.959941  4.458940
H    1.495375  4.505543  2.028239
H    0.868239  3.098451  2.732896
H    -0.394265  6.692684  3.786429
N    -3.104885  -2.038979  2.735887
C    -4.079783  -1.132837  2.146132
H    -3.405687  -3.003850  2.851171
H    -4.920223  -0.923408  2.827092
H    -4.482310  -1.576858  1.226608
H    -3.625546  -0.173437  1.880367
