35
Energy: -21190.4585537 eV PBE+vdW (tier 2 basis)
C    0.280673  1.302361  -0.048986
C    -0.114115  0.565684  1.217082
O    0.609666  0.541155  2.212865
H    -0.490320  1.280712  -0.828542
H    1.201567  0.853787  -0.442749
H    0.508258  2.344989  0.204091
N    -1.336550  -0.047338  1.175892
C    -1.776418  -0.953134  2.219122
C    -2.373884  -2.182922  1.516140
O    -2.784980  -2.103594  0.356083
H    -1.813334  -0.184505  0.285521
H    -0.882827  -1.215228  2.806420
C    -2.832936  -0.321283  3.155519
C    -2.316736  0.911821  3.897761
C    -3.336268  1.554772  4.849369
N    -4.547388  2.050014  4.217495
C    -5.728269  1.325710  4.130415
N    -6.682429  1.974249  3.335527
N    -6.025295  0.188092  4.659433
H    -3.162568  -1.080050  3.882022
H    -3.719282  -0.067938  2.554792
H    -1.986598  1.665931  3.166493
H    -1.417089  0.653324  4.477914
H    -2.851217  2.393667  5.372043
H    -3.636597  0.845661  5.634663
H    -4.406918  2.721408  3.469066
H    -7.576278  1.494714  3.394980
H    -6.775518  2.970967  3.514362
H    -5.214872  -0.247087  5.104273
N    -2.459639  -3.345332  2.219842
C    -2.046808  -3.617161  3.585256
H    -2.943501  -4.081928  1.714559
H    -1.743320  -4.667649  3.666924
H    -2.851326  -3.431295  4.314001
H    -1.182240  -3.002225  3.858398
