35
Energy: -21190.5250778 eV PBE+vdW (tier 2 basis)
C    0.050218  -0.012446  0.198465
C    0.475563  0.482906  1.566984
O    1.649899  0.526759  1.920165
H    0.952874  -0.204023  -0.386903
H    -0.580292  0.717080  -0.327841
H    -0.523790  -0.946846  0.278798
N    -0.526428  0.905158  2.417607
C    -1.967624  0.846319  2.209977
C    -2.570820  2.070733  1.482122
O    -3.765751  2.065881  1.168313
H    -0.185999  1.158618  3.342034
H    -2.197477  -0.007763  1.556561
C    -2.704637  0.609617  3.540488
C    -2.582468  1.739804  4.591160
C    -3.913374  2.455034  4.899244
N    -4.429328  3.334019  3.867999
C    -4.001003  4.650650  3.753705
N    -4.595530  5.306452  2.673959
N    -3.164235  5.301539  4.492034
H    -2.333307  -0.337689  3.955305
H    -3.761291  0.442879  3.290153
H    -1.845950  2.497364  4.278642
H    -2.203641  1.322042  5.535341
H    -3.808116  3.048740  5.818671
H    -4.683614  1.697328  5.112632
H    -4.661017  2.890881  2.978183
H    -4.432272  6.307453  2.718390
H    -5.569497  5.070295  2.510217
H    -2.699313  4.691527  5.167123
N    -1.716793  3.091020  1.252562
C    -2.093604  4.336500  0.611410
H    -0.763602  2.963967  1.578102
H    -1.510458  4.493264  -0.306598
H    -1.936769  5.182115  1.293253
H    -3.158312  4.282544  0.367567
