35
Energy: -21190.1047399 eV PBE+vdW (tier 2 basis)
C    -1.552745  -2.422629  2.232016
C    -0.969298  -1.025454  2.350967
O    0.213562  -0.802532  2.097268
H    -1.318685  -2.821935  1.238242
H    -2.637445  -2.469585  2.393069
H    -1.058846  -3.068064  2.969701
N    -1.854554  -0.063462  2.755037
C    -1.480726  1.317814  3.061370
C    -2.176364  1.870792  4.320585
O    -1.535718  2.513246  5.145072
H    -2.808369  -0.363806  2.903551
H    -0.417205  1.300406  3.342056
C    -1.693284  2.305345  1.883684
C    -0.963620  1.956246  0.575907
C    0.501769  2.418923  0.476830
N    1.386150  1.920578  1.525204
C    1.666335  2.638853  2.675462
N    1.795705  4.025180  2.484330
N    1.747940  2.010469  3.799805
H    -1.381839  3.300263  2.237620
H    -2.771316  2.379346  1.670908
H    -1.502511  2.427962  -0.261657
H    -1.021984  0.873030  0.394176
H    0.530841  3.516245  0.493644
H    0.895206  2.105791  -0.503783
H    1.244715  0.930947  1.751240
H    2.309155  4.294558  1.648431
H    2.140849  4.505845  3.308046
H    2.064470  2.623349  4.554895
N    -3.531114  1.693601  4.501087
C    -4.539661  1.079843  3.657320
H    -3.845999  2.104711  5.374697
H    -5.507182  1.557752  3.852544
H    -4.665366  -0.001195  3.848980
H    -4.321557  1.227594  2.592776
