35
Energy: -21190.4713197 eV PBE+vdW (tier 2 basis)
C    -0.186498  -0.259568  -0.045562
C    -0.145414  -0.123337  1.461610
O    0.920227  -0.016837  2.079290
H    0.314045  0.609879  -0.489523
H    -1.201133  -0.334609  -0.455164
H    0.385056  -1.149574  -0.336674
N    -1.353467  -0.116018  2.094231
C    -1.482987  0.031902  3.544462
C    -1.290844  -1.349132  4.233568
O    -2.240344  -2.018929  4.638698
H    -2.192980  -0.305762  1.558403
H    -0.658694  0.691953  3.854524
C    -2.826996  0.660456  3.901284
C    -2.911776  1.092927  5.366394
C    -4.281871  1.668413  5.719253
N    -4.310533  2.093795  7.107103
C    -5.398269  2.679698  7.731134
N    -6.280757  3.346876  6.874734
N    -5.460629  2.644973  9.020126
H    -3.623799  -0.070238  3.689836
H    -2.983425  1.531843  3.245974
H    -2.140826  1.848452  5.584573
H    -2.711597  0.224291  6.012144
H    -5.058231  0.908557  5.494031
H    -4.476491  2.539811  5.071364
H    -3.782846  1.525401  7.762758
H    -7.177378  3.555888  7.297650
H    -6.375702  2.981057  5.932742
H    -6.265636  3.168696  9.370805
N    0.012605  -1.720777  4.318250
C    0.420531  -3.021340  4.813522
H    0.682007  -1.143005  3.804547
H    1.292865  -2.921377  5.471656
H    0.675334  -3.709000  3.992604
H    -0.413296  -3.449721  5.379340
