35
Energy: -21190.3641329 eV PBE+vdW (tier 2 basis)
C    -0.295244  1.170078  -0.065855
C    -0.811269  0.431360  1.152634
O    -0.890516  -0.796327  1.194278
H    -0.916681  0.896109  -0.927775
H    0.723869  0.824504  -0.280539
H    -0.285267  2.260938  0.044280
N    -1.201672  1.226818  2.199791
C    -1.709754  0.675667  3.451434
C    -3.088234  1.283778  3.795265
O    -3.267230  1.953080  4.813087
H    -1.106207  2.234525  2.107686
H    -1.839622  -0.398427  3.245247
C    -0.726453  0.823627  4.623095
C    -0.197179  2.254386  4.849337
C    1.284740  2.426362  4.470850
N    1.681117  3.811472  4.242270
C    1.310617  4.449046  3.062217
N    1.309834  5.839305  3.159723
N    0.973785  3.895432  1.943374
H    0.113449  0.138086  4.430489
H    -1.231530  0.456202  5.524697
H    -0.340573  2.545216  5.898737
H    -0.791542  2.977453  4.273516
H    1.517161  1.851793  3.562262
H    1.936336  2.011417  5.253598
H    1.598413  4.401263  5.066195
H    1.272279  6.274679  2.243044
H    2.036782  6.236783  3.747130
H    0.994701  2.877837  2.032328
N    -4.111177  1.039274  2.924098
C    -4.110012  0.271989  1.689792
H    -4.972552  1.505791  3.192063
H    -3.374815  -0.539749  1.726562
H    -3.881604  0.895235  0.810951
H    -5.100434  -0.177524  1.548836
