35
Energy: -21190.3190153 eV PBE+vdW (tier 2 basis)
C    -0.278567  1.061498  -0.412872
C    -0.513599  -0.199417  0.399406
O    0.355231  -1.065829  0.524225
H    0.633127  0.923299  -0.999840
H    -0.143903  1.929866  0.248303
H    -1.118408  1.296578  -1.080471
N    -1.729563  -0.334192  1.011862
C    -2.819682  0.626517  1.031056
C    -2.510122  1.984198  1.698441
O    -2.979039  3.016216  1.217513
H    -1.869380  -1.231666  1.504680
H    -3.104687  0.906425  0.003771
C    -4.050374  0.012092  1.727121
C    -4.524854  -1.296409  1.081094
C    -5.127559  -2.314596  2.070797
N    -4.438907  -2.482821  3.348034
C    -3.118570  -2.836195  3.486995
N    -2.751406  -3.020329  4.827229
N    -2.334373  -2.910145  2.460315
H    -4.846661  0.768513  1.731531
H    -3.792278  -0.172873  2.780956
H    -3.685802  -1.781628  0.570983
H    -5.284027  -1.089129  0.312282
H    -5.185785  -3.292128  1.568455
H    -6.155532  -2.027739  2.332257
H    -4.878818  -2.081217  4.165149
H    -1.805335  -3.364771  4.949475
H    -3.420313  -3.530137  5.398463
H    -1.419036  -3.295128  2.702811
N    -1.748422  2.024816  2.834044
C    -1.123398  0.958688  3.607918
H    -1.621063  2.975387  3.166793
H    -0.847013  1.373050  4.584623
H    -0.218030  0.560637  3.129466
H    -1.809725  0.122096  3.787426
