35
Energy: -21190.5241475 eV PBE+vdW (tier 2 basis)
C    0.829048  -1.940315  0.207330
C    0.469445  -0.761733  1.084108
O    1.318911  -0.219437  1.802440
H    1.819769  -1.750685  -0.219590
H    0.113729  -2.139566  -0.599162
H    0.911436  -2.833682  0.843562
N    -0.818458  -0.308144  1.077435
C    -2.018445  -1.009756  0.660206
C    -3.173433  0.002459  0.790667
O    -3.095006  0.971573  1.544857
H    -1.007295  0.506314  1.665118
H    -1.926003  -1.302510  -0.399065
C    -2.325886  -2.291643  1.483711
C    -2.825358  -2.118400  2.924271
C    -1.870767  -1.442166  3.939638
N    -0.474384  -1.823938  3.871708
C    -0.012822  -3.111177  4.050923
N    1.280832  -3.304427  3.555379
N    -0.639099  -4.119716  4.562575
H    -1.423064  -2.917764  1.484274
H    -3.083934  -2.868944  0.930859
H    -3.078233  -3.126261  3.283226
H    -3.767503  -1.547812  2.938098
H    -2.265007  -1.632358  4.952452
H    -1.901550  -0.353929  3.807034
H    0.149443  -1.173756  3.402081
H    1.719877  -4.123068  3.963871
H    1.884235  -2.486834  3.544161
H    -1.584113  -3.860963  4.851820
N    -4.278482  -0.293377  0.057158
C    -5.501886  0.486264  0.120704
H    -4.247267  -1.101981  -0.552374
H    -6.341914  -0.122571  0.482321
H    -5.758000  0.899734  -0.864018
H    -5.332111  1.311740  0.819214
