35
Energy: -21189.9252 eV PBE+vdW (tier 2 basis)
C    0.473518  -1.224949  0.341260
C    0.260140  -0.614592  1.712081
O    1.171928  -0.605922  2.539127
H    -0.217582  -2.052605  0.140595
H    1.497789  -1.605734  0.316772
H    0.346784  -0.485744  -0.458908
N    -0.946938  -0.042538  2.057430
C    -2.287946  0.102336  1.476916
C    -3.370785  -0.567148  2.361214
O    -4.343566  0.095484  2.723040
H    -0.879807  0.333380  3.001439
H    -2.549803  1.167932  1.568459
C    -2.458765  -0.258771  -0.004396
C    -3.850270  0.100000  -0.537567
C    -3.974842  -0.124044  -2.045292
N    -3.099696  0.768414  -2.788732
C    -2.812736  0.547465  -4.134699
N    -2.078539  1.598457  -4.692844
N    -3.139045  -0.459221  -4.868090
H    -2.278449  -1.328286  -0.181699
H    -1.707392  0.288146  -0.589507
H    -4.087941  1.149082  -0.295627
H    -4.623841  -0.496900  -0.034100
H    -5.032446  -0.013489  -2.348533
H    -3.681219  -1.157414  -2.286803
H    -3.201551  1.752163  -2.551455
H    -1.775697  1.367137  -5.634552
H    -1.315539  1.941862  -4.115686
H    -3.799331  -1.077981  -4.392985
N    -3.248773  -1.880891  2.715458
C    -2.193914  -2.843611  2.435471
H    -4.008279  -2.183356  3.317636
H    -1.268234  -2.631838  2.987888
H    -1.959419  -2.891534  1.364871
H    -2.553262  -3.835033  2.731786
