35
Energy: -21190.5530774 eV PBE+vdW (tier 2 basis)
C    0.186089  -2.291281  1.784643
C    -0.667654  -1.790796  2.928833
O    -0.916511  -2.477642  3.927555
H    0.058844  -3.374327  1.690633
H    1.236789  -2.081224  2.034347
H    -0.051729  -1.806219  0.829581
N    -1.114695  -0.511442  2.795647
C    -1.893525  0.180800  3.798961
C    -2.396679  1.479247  3.144518
O    -1.916653  1.900473  2.091545
H    -0.914299  0.038905  1.962405
H    -2.757978  -0.446595  4.075487
C    -1.081604  0.447796  5.089243
C    0.128872  1.375033  4.918272
C    1.257968  1.112942  5.940480
N    2.280324  0.149536  5.526963
C    2.019657  -1.185237  5.222460
N    1.256787  -1.894024  6.146020
N    2.566504  -1.691332  4.166526
H    -0.764288  -0.542406  5.434401
H    -1.754997  0.844521  5.865890
H    -0.192689  2.425318  4.992765
H    0.552458  1.255951  3.909569
H    0.830418  0.805162  6.908833
H    1.795286  2.048341  6.147269
H    2.912672  0.515957  4.818812
H    0.591644  -2.533684  5.715267
H    0.851423  -1.357852  6.905673
H    2.446864  -2.708711  4.165766
N    -3.375569  2.124560  3.833495
C    -3.940055  3.391603  3.406948
H    -3.733313  1.690182  4.675942
H    -3.795399  4.167667  4.171147
H    -5.013763  3.296936  3.193892
H    -3.422319  3.692118  2.490493
