35
Energy: -21190.2272755 eV PBE+vdW (tier 2 basis)
C    -0.283928  0.580968  -0.494768
C    -0.609890  -0.046798  0.846225
O    -0.277593  -1.195453  1.130967
H    -0.677695  -0.061534  -1.291713
H    0.806634  0.613207  -0.610863
H    -0.684898  1.594640  -0.619824
N    -1.315503  0.749468  1.711097
C    -1.632697  0.341772  3.073537
C    -3.141295  0.507860  3.360375
O    -3.564152  1.238148  4.256886
H    -1.536415  1.695683  1.424674
H    -1.409554  -0.736857  3.088033
C    -0.736287  1.010845  4.138524
C    -0.340083  2.478461  3.926420
C    -1.475047  3.513078  3.961378
N    -1.006807  4.900373  3.914888
C    -0.302901  5.500487  4.958647
N    -0.646055  5.035854  6.226210
N    0.598307  6.418161  4.851783
H    0.191776  0.423492  4.185364
H    -1.237102  0.899017  5.109923
H    0.217499  2.582728  2.980187
H    0.372747  2.743608  4.721074
H    -2.094119  3.358393  4.852685
H    -2.170722  3.385507  3.119030
H    -0.649706  5.189053  3.009479
H    -0.248164  5.629853  6.946977
H    -1.630494  4.836102  6.375000
H    0.855928  6.574122  3.873344
N    -4.001092  -0.212907  2.581121
C    -3.714926  -1.170353  1.524990
H    -4.974763  -0.038913  2.811258
H    -4.504160  -1.931531  1.513335
H    -2.760062  -1.680185  1.695608
H    -3.673360  -0.696788  0.531780
