35
Energy: -21190.1693779 eV PBE+vdW (tier 2 basis)
C    -1.795563  -1.512185  1.755856
C    -0.654878  -0.777425  2.439236
O    0.412550  -1.321462  2.697498
H    -1.492790  -2.553941  1.624435
H    -2.012088  -1.078599  0.768573
H    -2.720456  -1.480386  2.349346
N    -0.876117  0.538041  2.785277
C    -2.014374  1.351338  2.402983
C    -1.934726  1.795634  0.924593
O    -0.858348  2.050717  0.382683
H    -0.036095  1.006227  3.111849
H    -2.912143  0.734149  2.543012
C    -2.177480  2.588621  3.324276
C    -1.335842  3.832316  3.002002
C    0.189430  3.688411  3.165708
N    0.932846  4.893822  2.849429
C    1.237500  5.317421  1.551979
N    1.213193  4.335445  0.580883
N    1.624013  6.510769  1.234021
H    -1.986210  2.246937  4.353759
H    -3.236456  2.885016  3.297375
H    -1.675232  4.643266  3.665975
H    -1.550663  4.175963  1.978729
H    0.581515  2.885759  2.526617
H    0.425884  3.403112  4.203982
H    0.800157  5.667601  3.490972
H    1.371891  4.718449  -0.343555
H    0.528821  3.582482  0.611007
H    1.704671  7.107661  2.061422
N    -3.112658  1.927166  0.252908
C    -4.455006  1.605586  0.714321
H    -2.999922  2.254753  -0.701786
H    -4.559006  0.541996  0.974638
H    -5.157200  1.818307  -0.098082
H    -4.755951  2.214492  1.578456
