35
Energy: -21190.3199451 eV PBE+vdW (tier 2 basis)
C    -0.035327  0.971044  -0.230452
C    0.108739  0.093985  0.997570
O    1.188798  -0.370214  1.351804
H    -0.531466  1.924462  -0.003229
H    -0.625210  0.465183  -1.008032
H    0.965983  1.169042  -0.621185
N    -1.029375  -0.152840  1.739323
C    -2.418400  0.033663  1.328482
C    -3.296958  0.571770  2.487786
O    -4.522048  0.508456  2.436715
H    -0.858998  -0.851285  2.460671
H    -2.427566  0.844807  0.585128
C    -3.061360  -1.204997  0.679530
C    -2.983667  -2.503824  1.501426
C    -1.766436  -3.381089  1.160339
N    -1.728298  -4.653510  1.865425
C    -2.513613  -5.712508  1.444671
N    -2.451552  -6.800668  2.331999
N    -3.215711  -5.627981  0.366717
H    -2.594551  -1.362986  -0.305353
H    -4.111254  -0.945394  0.496157
H    -3.880822  -3.104768  1.305327
H    -3.000092  -2.277402  2.581849
H    -0.816857  -2.862400  1.358407
H    -1.791074  -3.616904  0.088246
H    -1.579343  -4.605613  2.867911
H    -2.888220  -7.641814  1.970216
H    -1.523549  -6.992543  2.702249
H    -3.638762  -6.527717  0.128866
N    -2.607626  1.139965  3.515412
C    -3.263660  1.775471  4.640606
H    -1.597324  1.176135  3.427789
H    -4.335923  1.566439  4.561160
H    -3.114749  2.865006  4.631369
H    -2.886903  1.375206  5.591336
