35
Energy: -21190.5062614 eV PBE+vdW (tier 2 basis)
C    -0.284485  -0.472574  -0.388258
C    -0.330585  -0.118283  1.085859
O    0.177327  0.910426  1.534483
H    0.756543  -0.430502  -0.729856
H    -0.843711  0.286823  -0.950168
H    -0.702178  -1.460557  -0.617086
N    -0.994455  -1.008095  1.879090
C    -1.101757  -0.839781  3.312846
C    -1.411702  -2.225350  3.900714
O    -1.858354  -3.136626  3.201731
H    -1.331086  -1.901041  1.525242
H    -0.127831  -0.481600  3.685825
C    -2.161941  0.210855  3.737453
C    -3.636710  -0.171069  3.563943
C    -4.099941  -0.352494  2.117392
N    -5.552082  -0.434368  2.059523
C    -6.202139  -0.532401  0.832596
N    -7.574571  -0.766958  0.978020
N    -5.693924  -0.436830  -0.347118
H    -1.933204  1.130136  3.179601
H    -1.989460  0.452120  4.797936
H    -4.244816  0.628554  4.014792
H    -3.858196  -1.088335  4.135928
H    -3.629424  -1.245563  1.671677
H    -3.778951  0.515180  1.519993
H    -5.973363  -1.003795  2.789235
H    -8.044743  -0.702302  0.079574
H    -8.026281  -0.194942  1.686847
H    -4.672419  -0.407753  -0.313885
N    -1.196711  -2.342570  5.237954
C    -1.490356  -3.552540  5.984102
H    -0.788750  -1.554683  5.727066
H    -2.216147  -3.357161  6.785444
H    -0.578662  -3.978379  6.425072
H    -1.916876  -4.277646  5.283674
