35
Energy: -21190.1119962 eV PBE+vdW (tier 2 basis)
C    0.002760  -0.315131  0.165287
C    -0.154847  0.132628  1.609728
O    0.581823  0.974451  2.114364
H    -0.798586  -0.975198  -0.190145
H    0.962170  -0.839224  0.065826
H    0.048305  0.572881  -0.476000
N    -1.184942  -0.461092  2.289607
C    -1.458926  -0.308646  3.721706
C    -1.181216  1.116121  4.267675
O    -0.490503  1.293124  5.265166
H    -1.700305  -1.189712  1.809930
H    -2.550669  -0.440961  3.825746
C    -0.792962  -1.401281  4.573910
C    0.730582  -1.490549  4.476882
C    1.303679  -2.634892  5.317275
N    0.947633  -3.964713  4.818231
C    0.080737  -4.789648  5.508574
N    0.051597  -6.092673  4.975107
N    -0.572927  -4.364668  6.534989
H    -1.236647  -2.366527  4.281347
H    -1.083332  -1.235726  5.620445
H    1.172619  -0.545002  4.817268
H    1.042086  -1.628311  3.429397
H    0.944460  -2.567532  6.353165
H    2.400687  -2.558409  5.338823
H    1.671693  -4.450529  4.302880
H    -0.718958  -6.652042  5.325145
H    0.106242  -6.136381  3.960010
H    -1.219845  -5.075878  6.881810
N    -1.864761  2.157881  3.696989
C    -2.669982  2.184214  2.491842
H    -1.583140  3.051427  4.088193
H    -3.322943  3.064754  2.526920
H    -3.315837  1.299889  2.430622
H    -2.064861  2.236871  1.572453
