35
Energy: -21190.1905622 eV PBE+vdW (tier 2 basis)
C    -1.446796  -1.362974  0.545643
C    -0.098542  -0.683214  0.718931
O    0.947964  -1.325587  0.739991
H    -2.128900  -0.813692  -0.117503
H    -1.942617  -1.470377  1.520863
H    -1.270959  -2.362540  0.139197
N    -0.091667  0.679963  0.865266
C    -1.205617  1.602737  0.889524
C    -0.628458  2.993355  0.560844
O    0.562356  3.251463  0.733204
H    0.825336  1.118471  0.959006
H    -1.918731  1.340577  0.091678
C    -2.006145  1.600158  2.230804
C    -1.180795  1.536846  3.520217
C    -0.399627  2.808407  3.853130
N    0.180187  2.711072  5.180167
C    1.057457  3.686170  5.647158
N    1.367402  3.509170  7.002333
N    1.569435  4.674071  5.000723
H    -2.673466  0.727294  2.206846
H    -2.666483  2.480858  2.255423
H    -0.487208  0.684467  3.482417
H    -1.884038  1.326939  4.343573
H    -1.067171  3.689861  3.757234
H    0.416953  2.950180  3.132872
H    -0.443938  2.346152  5.895015
H    2.108015  4.147181  7.280368
H    1.582292  2.548645  7.258514
H    1.171983  4.761654  4.062779
N    -1.497249  3.934437  0.093522
C    -2.883272  3.767166  -0.314753
H    -1.053031  4.829646  -0.084658
H    -3.002491  2.952756  -1.043790
H    -3.212510  4.693535  -0.796202
H    -3.553374  3.575980  0.535451
