35
Energy: -21190.2386059 eV PBE+vdW (tier 2 basis)
C    0.585332  -0.340284  0.439941
C    0.337287  -0.223042  1.928286
O    1.145452  0.280377  2.699239
H    1.652462  -0.510860  0.267243
H    0.311787  0.614909  -0.030354
H    0.005404  -1.141284  -0.035304
N    -0.868067  -0.745407  2.365916
C    -1.418567  -0.373079  3.679490
C    -1.299504  1.166073  3.861999
O    -1.631952  1.911586  2.943748
H    -1.563622  -0.861126  1.635626
H    -2.505248  -0.515456  3.570224
C    -1.009739  -1.295342  4.845116
C    0.468756  -1.429819  5.252685
C    1.262713  -2.487925  4.465986
N    0.651392  -3.808531  4.507745
C    0.383393  -4.600525  3.403523
N    0.162069  -3.897137  2.217598
N    0.378268  -5.883617  3.556011
H    -1.384753  -2.305789  4.617000
H    -1.602632  -0.971925  5.715121
H    0.499302  -1.707316  6.318455
H    1.008576  -0.477618  5.150306
H    2.285463  -2.532129  4.875729
H    1.377992  -2.182434  3.422065
H    0.877742  -4.390865  5.307841
H    -0.232672  -4.463845  1.476584
H    -0.275040  -2.979535  2.299043
H    0.054110  -6.358501  2.710258
N    -0.925316  1.612712  5.089860
C    -0.758464  3.028499  5.364691
H    -0.507181  0.949163  5.729543
H    -0.966093  3.228854  6.422460
H    -1.464764  3.586724  4.741873
H    0.258268  3.374728  5.123733
