35
Energy: -21190.1798608 eV PBE+vdW (tier 2 basis)
C    -0.191620  -0.052694  -0.044065
C    -0.103707  -0.380299  1.438011
O    0.718109  -1.189854  1.864297
H    0.814045  0.183174  -0.411093
H    -0.867392  0.777568  -0.284735
H    -0.532414  -0.949030  -0.578534
N    -0.998164  0.302427  2.222839
C    -1.330493  0.147370  3.644188
C    -0.754556  1.181784  4.636615
O    -1.499331  1.550383  5.557131
H    -1.597054  0.949986  1.725514
H    -2.396942  0.404193  3.691479
C    -1.174333  -1.285199  4.222352
C    -2.484852  -2.078309  4.263567
C    -3.599609  -1.421762  5.112572
N    -3.183627  -0.895632  6.398002
C    -2.852457  -1.719233  7.461145
N    -2.192461  -1.034935  8.486094
N    -3.066692  -2.985983  7.596423
H    -0.782199  -1.203589  5.245248
H    -0.417123  -1.825142  3.646072
H    -2.254538  -3.074935  4.666660
H    -2.873685  -2.238859  3.244443
H    -4.417079  -2.143538  5.262679
H    -4.051205  -0.581982  4.563659
H    -2.680869  -0.006986  6.345558
H    -2.170090  -1.586517  9.338128
H    -2.503847  -0.080729  8.642475
H    -3.461915  -3.393203  6.746741
N    0.511697  1.653007  4.541151
C    1.599005  1.263075  3.655466
H    0.723644  2.319375  5.278387
H    1.528814  0.206918  3.374028
H    2.546430  1.410508  4.186427
H    1.620092  1.868641  2.736606
