35
Energy: -21190.6143242 eV PBE+vdW (tier 2 basis)
C    -3.527283  -1.260690  0.950909
C    -2.974901  -0.683155  2.235864
O    -2.928121  0.538516  2.439819
H    -3.023352  -0.783332  0.102133
H    -4.593970  -1.009417  0.883330
H    -3.414664  -2.348676  0.876211
N    -2.546513  -1.581542  3.157327
C    -2.003044  -1.171236  4.434185
C    -1.223146  -2.373501  4.987637
O    -1.422991  -3.514152  4.567456
H    -2.538040  -2.585566  2.985566
H    -1.320600  -0.323694  4.255065
C    -3.108423  -0.695236  5.413073
C    -2.647633  0.358759  6.430465
C    -3.717882  1.432989  6.690766
N    -4.058213  2.166987  5.487949
C    -5.279756  2.037763  4.829491
N    -5.180058  2.315291  3.470954
N    -6.427813  1.760037  5.353887
H    -3.555933  -1.563632  5.917337
H    -3.895052  -0.255693  4.788344
H    -1.747735  0.874569  6.049010
H    -2.357235  -0.099294  7.388455
H    -3.367289  2.118050  7.480035
H    -4.636631  0.961825  7.068772
H    -3.279866  2.412722  4.883583
H    -4.413756  1.848291  2.979543
H    -6.077549  2.205295  3.009940
H    -6.379734  1.750258  6.375779
N    -0.346074  -2.081718  5.984065
C    0.415472  -3.096038  6.690388
H    -0.227889  -1.111068  6.248865
H    0.180349  -3.091884  7.763662
H    1.495464  -2.942080  6.561144
H    0.142861  -4.068746  6.268993
