35
Energy: -21190.1547613 eV PBE+vdW (tier 2 basis)
C    -0.125399  0.245503  0.435144
C    -0.217121  0.547328  1.918717
O    0.743648  1.006224  2.529606
H    0.422756  1.065670  -0.040365
H    -1.079331  0.096997  -0.077503
H    0.475426  -0.666167  0.311430
N    -1.371001  0.220899  2.612771
C    -2.736440  -0.049501  2.146355
C    -2.823331  -1.208696  1.122165
O    -3.636153  -1.200662  0.200944
H    -1.291016  0.507783  3.585931
H    -3.247988  -0.459797  3.033770
C    -3.554868  1.187872  1.738261
C    -3.030269  2.029428  0.574300
C    -3.914209  3.246103  0.285982
N    -3.900483  4.176060  1.401667
C    -4.737835  5.268717  1.547128
N    -5.950165  5.185277  0.855521
N    -4.382662  6.206054  2.361121
H    -3.655987  1.825869  2.628528
H    -4.565573  0.830933  1.491769
H    -2.983655  1.421694  -0.339545
H    -2.006587  2.383897  0.777807
H    -4.945487  2.892059  0.128737
H    -3.579070  3.716997  -0.659500
H    -2.992681  4.366293  1.816720
H    -6.444003  6.067768  0.794183
H    -5.947650  4.683295  -0.026489
H    -5.100036  6.930597  2.435231
N    -1.989206  -2.251255  1.388433
C    -1.915018  -3.431048  0.550176
H    -1.310353  -2.122559  2.131104
H    -2.761396  -3.401694  -0.143969
H    -1.977736  -4.344011  1.156605
H    -0.981861  -3.456154  -0.032603
