35
Energy: -21190.4436059 eV PBE+vdW (tier 2 basis)
C    -0.259371  1.790422  0.034746
C    -0.322790  0.335796  0.439273
O    0.609379  -0.453540  0.216517
H    -1.209999  2.155401  -0.375613
H    0.538932  1.914546  -0.701705
H    -0.027962  2.413225  0.911154
N    -1.433042  -0.101323  1.091492
C    -2.634903  0.601969  1.499989
C    -2.427606  1.827175  2.417892
O    -3.125367  2.826573  2.242240
H    -1.430636  -1.111225  1.277167
H    -3.155002  1.025677  0.625119
C    -3.595187  -0.389127  2.197217
C    -3.952170  -1.656031  1.383399
C    -3.235650  -2.949942  1.817768
N    -1.788268  -2.927312  1.646093
C    -0.856347  -2.911157  2.698714
N    0.438772  -2.838554  2.214766
N    -1.092065  -2.918761  3.966764
H    -4.508140  0.176075  2.423796
H    -3.167868  -0.682713  3.168314
H    -3.773274  -1.483100  0.310552
H    -5.031558  -1.847184  1.477773
H    -3.647306  -3.796970  1.249659
H    -3.466397  -3.155194  2.873521
H    -1.432420  -3.341247  0.790146
H    1.115160  -2.749369  2.966069
H    0.600661  -2.179323  1.442309
H    -2.073242  -3.118448  4.173920
N    -1.504741  1.778495  3.422890
C    -0.593799  0.720211  3.848945
H    -1.477110  2.649393  3.944383
H    -0.245567  0.966651  4.858302
H    0.285680  0.632310  3.195125
H    -1.076874  -0.262024  3.905557
