35
Energy: -21190.3346192 eV PBE+vdW (tier 2 basis)
C    -3.112031  -1.061155  1.378288
C    -1.657472  -0.912621  1.777351
O    -0.819553  -1.779369  1.539034
H    -3.438614  -0.250891  0.712537
H    -3.789719  -1.060455  2.244166
H    -3.213621  -2.013769  0.851995
N    -1.283859  0.245666  2.422135
C    -2.115729  1.348265  2.893437
C    -1.382965  2.647107  2.502156
O    -0.514372  3.134376  3.225668
H    -0.305832  0.256797  2.704815
H    -3.073892  1.284555  2.365205
C    -2.360656  1.275940  4.409914
C    -3.119826  2.464067  5.016672
C    -4.492191  2.777633  4.403462
N    -5.439430  1.661583  4.471523
C    -5.715685  0.801036  3.420096
N    -5.697829  1.406208  2.154522
N    -5.981399  -0.459911  3.493324
H    -1.386199  1.200161  4.912316
H    -2.892587  0.332150  4.603518
H    -2.499608  3.369914  4.944709
H    -3.249796  2.275778  6.095137
H    -4.386182  3.063562  3.349682
H    -4.923969  3.648622  4.920386
H    -5.462663  1.191318  5.371579
H    -6.065619  0.755328  1.465217
H    -6.173187  2.304828  2.113758
H    -5.824423  -0.821873  4.438289
N    -1.723016  3.220118  1.309159
C    -2.557026  2.654867  0.258573
H    -1.123197  4.002627  1.063181
H    -2.720764  3.423809  -0.504227
H    -3.539872  2.357369  0.647587
H    -2.089546  1.782783  -0.224434
