35
Energy: -21190.5724396 eV PBE+vdW (tier 2 basis)
C    -0.205587  -0.777508  -0.329204
C    -0.188895  0.063668  0.932752
O    0.291657  1.196736  0.963820
H    0.824050  -0.890500  -0.690211
H    -0.766266  -0.239526  -1.103769
H    -0.650277  -1.770533  -0.191293
N    -0.751677  -0.518533  2.032825
C    -0.752216  0.127783  3.328492
C    -0.820979  -0.987404  4.377564
O    -1.300117  -2.096845  4.107604
H    -1.064840  -1.486106  2.027127
H    0.190301  0.689741  3.425185
C    -1.919374  1.144001  3.475656
C    -3.322516  0.518270  3.482095
C    -3.853913  0.217879  4.894644
N    -5.050675  -0.604271  4.906854
C    -5.157118  -1.883846  5.434050
N    -3.945653  -2.527764  5.673866
N    -6.259104  -2.491194  5.731722
H    -1.805737  1.844997  2.638803
H    -1.760813  1.738064  4.391295
H    -3.327293  -0.412596  2.896179
H    -4.029330  1.192047  2.975848
H    -4.052843  1.170422  5.416056
H    -3.095866  -0.296804  5.496506
H    -5.937086  -0.133539  4.777193
H    -3.208063  -2.435152  4.974243
H    -4.115382  -3.494846  5.932745
H    -7.065651  -1.867523  5.638178
N    -0.372671  -0.668916  5.613027
C    -0.472069  -1.587105  6.739560
H    0.015345  0.254144  5.763733
H    -1.520251  -1.760376  7.021877
H    0.066475  -1.158635  7.590452
H    -0.023566  -2.554232  6.480528
