35
Energy: -21190.5835941 eV PBE+vdW (tier 2 basis)
C    -1.353201  0.309882  -0.399249
C    -0.695438  0.327475  0.965242
O    0.499355  0.625750  1.096054
H    -1.204120  1.286364  -0.875596
H    -2.425150  0.080013  -0.375949
H    -0.843971  -0.437679  -1.020756
N    -1.502609  0.004773  2.013417
C    -1.112173  -0.183585  3.420453
C    -0.701544  1.105369  4.169982
O    -1.177645  1.329226  5.292669
H    -2.473697  -0.183303  1.798181
H    -2.034370  -0.482264  3.934338
C    -0.088530  -1.331550  3.592571
C    0.264587  -1.624646  5.060901
C    1.500127  -0.859922  5.571208
N    1.664005  -0.944755  7.009388
C    1.640101  0.125171  7.888298
N    0.992846  1.266045  7.419672
N    2.240264  -0.015823  9.026472
H    0.818524  -1.103968  3.013926
H    -0.537959  -2.220254  3.126440
H    0.447738  -2.702398  5.181707
H    -0.585963  -1.385638  5.716134
H    1.443914  0.198897  5.292006
H    2.400715  -1.251863  5.068233
H    2.226033  -1.703383  7.378607
H    0.839941  1.963539  8.138236
H    0.183059  1.160998  6.802785
H    2.066168  0.786491  9.636040
N    0.208676  1.893482  3.567376
C    0.714058  3.104383  4.191061
H    0.573892  1.577486  2.659351
H    1.219078  3.707791  3.429761
H    1.422939  2.878631  5.001692
H    -0.114488  3.681117  4.620677
