35
Energy: -21190.6460357 eV PBE+vdW (tier 2 basis)
C    -1.073763  0.057781  -0.089865
C    -1.299681  0.589049  1.310414
O    -0.840641  1.685177  1.660097
H    0.006531  -0.023318  -0.263529
H    -1.466685  0.784404  -0.811661
H    -1.541166  -0.917343  -0.269652
N    -2.039235  -0.204332  2.124127
C    -2.238986  0.028704  3.545311
C    -2.134888  -1.352307  4.216944
O    -2.406446  -2.373423  3.576181
H    -2.282846  -1.151788  1.835388
H    -1.446389  0.703461  3.890551
C    -3.626281  0.651191  3.841020
C    -3.759940  2.116547  3.396025
C    -3.470849  3.141003  4.504884
N    -2.252069  2.893347  5.288860
C    -1.046425  3.560886  5.041506
N    -0.765583  3.773741  3.703685
N    -0.350770  3.920291  6.071790
H    -3.835325  0.564746  4.918603
H    -4.371923  0.023503  3.332064
H    -3.114436  2.304490  2.527583
H    -4.787483  2.303572  3.049158
H    -4.304451  3.117489  5.221874
H    -3.450367  4.152495  4.069161
H    -2.406232  2.914906  6.292798
H    0.145970  4.185345  3.538646
H    -0.966472  3.016713  3.039929
H    0.567790  4.272472  5.789642
N    -1.788709  -1.403784  5.528339
C    -1.327023  -0.331383  6.396838
H    -1.763222  -2.352548  5.892423
H    -1.841708  -0.386352  7.365405
H    -0.243267  -0.394491  6.573996
H    -1.546398  0.647158  5.958039
