35
Energy: -21189.9644597 eV PBE+vdW (tier 2 basis)
C    -0.112352  -0.319728  -0.538370
C    0.192714  -0.529545  0.928065
O    1.332087  -0.767605  1.323103
H    -0.526352  0.679620  -0.728587
H    -0.836131  -1.066822  -0.886318
H    0.825547  -0.433202  -1.088638
N    -0.823101  -0.415629  1.859045
C    -2.272547  -0.304079  1.754818
C    -2.927347  -1.618203  1.264675
O    -2.346325  -2.414526  0.534413
H    -0.473557  -0.644587  2.784685
H    -2.590692  -0.159122  2.796129
C    -2.785038  0.944876  0.966894
C    -3.442264  0.698211  -0.396100
C    -3.611912  1.985347  -1.215335
N    -2.350785  2.612634  -1.574256
C    -1.837715  3.744121  -0.950194
N    -0.646774  4.171608  -1.545148
N    -2.319012  4.403059  0.046567
H    -1.926950  1.619022  0.852835
H    -3.496211  1.488183  1.606862
H    -4.436720  0.240897  -0.269672
H    -2.853532  -0.016443  -0.986717
H    -4.236903  2.709459  -0.667160
H    -4.160006  1.756221  -2.140363
H    -2.037426  2.473394  -2.527659
H    -0.224229  4.920388  -1.003961
H    0.017537  3.430249  -1.752942
H    -3.249892  4.073377  0.310628
N    -4.208381  -1.854809  1.689539
C    -5.073190  -1.010872  2.495611
H    -4.607340  -2.698753  1.289581
H    -5.918861  -1.611688  2.847068
H    -5.476492  -0.151079  1.936974
H    -4.551927  -0.631322  3.384314
