35
Energy: -21190.2418557 eV PBE+vdW (tier 2 basis)
C    -0.225676  -1.160882  1.227006
C    -0.685146  -0.533878  2.527705
O    -0.057186  -0.668238  3.574067
H    0.395065  -2.027898  1.470808
H    0.396940  -0.439985  0.678996
H    -1.043636  -1.463478  0.563237
N    -1.856057  0.202998  2.516490
C    -2.656931  0.639001  1.367759
C    -3.420456  -0.531567  0.690440
O    -3.764302  -0.476043  -0.487310
H    -2.010455  0.681258  3.399593
H    -3.459253  1.248857  1.815686
C    -1.906807  1.533770  0.348684
C    -2.609653  2.853811  0.005978
C    -3.859274  2.714808  -0.875736
N    -4.482849  3.988468  -1.213779
C    -3.932150  4.814963  -2.175509
N    -4.610490  6.045026  -2.263591
N    -2.899902  4.448897  -2.856265
H    -1.725628  0.965647  -0.573985
H    -0.927865  1.774331  0.784110
H    -1.900982  3.498942  -0.531660
H    -2.872891  3.381885  0.940187
H    -4.624285  2.086880  -0.398989
H    -3.588389  2.221444  -1.816563
H    -4.947058  4.474243  -0.453515
H    -4.324836  6.604241  -3.060502
H    -5.623766  5.970837  -2.207428
H    -2.699587  5.112786  -3.607705
N    -3.722523  -1.566838  1.520468
C    -4.451919  -2.738816  1.079717
H    -3.324021  -1.540223  2.452934
H    -5.338882  -2.909012  1.705117
H    -3.820884  -3.638793  1.109197
H    -4.770561  -2.563748  0.046577
