35
Energy: -21189.9070965 eV PBE+vdW (tier 2 basis)
C    -0.277634  0.931521  -0.223453
C    -0.121800  -0.239963  0.726115
O    0.912023  -0.907980  0.724341
H    -1.142218  0.819645  -0.888833
H    0.631757  0.975249  -0.828324
H    -0.392839  1.878736  0.317455
N    -1.117493  -0.569325  1.622559
C    -2.497741  -0.161896  1.918125
C    -3.495149  -1.325523  1.699484
O    -4.268238  -1.627133  2.611471
H    -0.809658  -1.360596  2.184992
H    -2.547616  -0.030469  3.009643
C    -2.979451  1.169152  1.315339
C    -4.361183  1.616783  1.827430
C    -5.546741  1.093911  0.994508
N    -6.846154  1.552356  1.444211
C    -7.503697  0.954932  2.523353
N    -8.650697  1.679826  2.885518
N    -7.195337  -0.107372  3.173369
H    -2.997801  1.131851  0.216478
H    -2.236911  1.931591  1.586452
H    -4.394941  2.716792  1.805407
H    -4.495903  1.324474  2.878955
H    -5.570535  -0.003410  0.986557
H    -5.419932  1.409538  -0.053723
H    -6.999795  2.554526  1.375937
H    -9.182704  1.162487  3.580098
H    -9.233072  1.960018  2.099805
H    -6.277400  -0.492568  2.934196
N    -3.521633  -2.000481  0.514331
C    -2.748086  -1.803646  -0.701818
H    -4.201433  -2.754888  0.520907
H    -3.205983  -2.404036  -1.495114
H    -1.701091  -2.116754  -0.592389
H    -2.770747  -0.757639  -1.032788
