35
Energy: -21190.5673724 eV PBE+vdW (tier 2 basis)
C    0.143508  0.141837  0.147922
C    -0.042227  -0.188593  1.613674
O    0.920514  -0.431518  2.353473
H    0.786271  1.027314  0.067096
H    -0.796057  0.333734  -0.384184
H    0.669001  -0.688876  -0.339063
N    -1.325320  -0.192008  2.068275
C    -1.674709  -0.453669  3.470425
C    -1.715314  -1.991444  3.689660
O    -2.761704  -2.631535  3.699919
H    -2.083799  -0.075766  1.405490
H    -0.850433  -0.035324  4.065305
C    -3.005285  0.221752  3.817463
C    -3.193043  0.648467  5.281992
C    -3.262401  -0.464820  6.328608
N    -1.960953  -1.081248  6.524643
C    -1.846655  -2.306094  7.160119
N    -0.501924  -2.710844  7.242303
N    -2.886181  -2.919374  7.608366
H    -3.819006  -0.459786  3.524797
H    -3.090088  1.127211  3.197063
H    -4.133994  1.215661  5.343184
H    -2.400191  1.366005  5.560216
H    -3.948909  -1.261623  6.014582
H    -3.664967  -0.058284  7.273908
H    -1.188945  -0.445708  6.701914
H    -0.387134  -3.654409  7.597210
H    0.010405  -2.569598  6.372956
H    -2.648806  -3.864103  7.921456
N    -0.475974  -2.552349  3.811200
C    -0.315605  -3.996572  3.806180
H    0.308850  -1.959349  3.525362
H    0.689079  -4.250090  4.164009
H    -0.454420  -4.430939  2.803378
H    -1.062082  -4.445083  4.471743
