35
Energy: -21190.1938749 eV PBE+vdW (tier 2 basis)
C    -0.081710  -0.668072  -0.552209
C    0.272118  -1.143047  0.845594
O    1.086121  -2.037180  1.047854
H    0.235386  0.373420  -0.706043
H    -1.162514  -0.722758  -0.745441
H    0.442163  -1.306912  -1.267518
N    -0.385104  -0.540938  1.897019
C    -1.224855  0.638905  1.834685
C    -0.405910  1.931846  1.594013
O    0.727039  2.081860  2.038942
H    0.002407  -0.802464  2.798702
H    -1.918136  0.504715  0.989031
C    -2.099219  0.787383  3.105511
C    -1.457183  1.404167  4.357178
C    -0.337823  0.590605  5.010128
N    0.048187  1.200149  6.272381
C    0.884037  0.528688  7.164308
N    1.244335  1.336400  8.248487
N    1.326522  -0.677684  7.095036
H    -2.507641  -0.208657  3.337790
H    -2.961564  1.414625  2.836726
H    -2.252226  1.544644  5.105085
H    -1.076280  2.409689  4.115943
H    0.526065  0.507629  4.324834
H    -0.701526  -0.426560  5.227498
H    0.240404  2.197243  6.213134
H    1.750689  0.796976  8.944767
H    0.477806  1.866186  8.654916
H    1.127086  -1.107382  6.189208
N    -1.074033  2.890267  0.886797
C    -0.512511  4.199438  0.608603
H    -1.990224  2.664428  0.518028
H    -0.410620  4.367938  -0.472301
H    0.481371  4.233019  1.067269
H    -1.132908  4.998997  1.036631
