35
Energy: -21190.4080413 eV PBE+vdW (tier 2 basis)
C    -0.221799  1.576182  0.107822
C    0.113772  0.519628  1.141835
O    1.251590  0.348629  1.570150
H    -0.539739  1.113108  -0.837399
H    0.678291  2.168071  -0.075669
H    -1.034274  2.236886  0.439669
N    -0.930529  -0.252739  1.607216
C    -2.319017  -0.251053  1.165468
C    -3.229754  0.769958  1.890597
O    -4.389878  0.933152  1.518103
H    -0.627664  -0.993976  2.233726
H    -2.354543  0.043117  0.106916
C    -2.939774  -1.657067  1.263938
C    -3.085888  -2.192280  2.691375
C    -3.687271  -3.605174  2.774303
N    -2.882857  -4.656468  2.181515
C    -3.043771  -5.131516  0.886190
N    -2.050725  -6.059273  0.544577
N    -3.939682  -4.824491  0.013366
H    -2.337864  -2.342344  0.650385
H    -3.932612  -1.594532  0.798162
H    -3.730075  -1.516636  3.276549
H    -2.112054  -2.208011  3.212086
H    -4.676074  -3.625391  2.293858
H    -3.859613  -3.855458  3.832423
H    -1.954536  -4.781734  2.571715
H    -2.260664  -6.483759  -0.354566
H    -1.861710  -6.760145  1.256875
H    -4.528728  -4.047611  0.318937
N    -2.659527  1.428335  2.933430
C    -3.367298  2.419701  3.718561
H    -1.689217  1.213699  3.137929
H    -2.878485  3.401696  3.653638
H    -3.424322  2.122987  4.775066
H    -4.382505  2.498738  3.314680
