35
Energy: -21190.2019908 eV PBE+vdW (tier 2 basis)
C    0.068269  -0.750597  0.122117
C    0.274584  -0.821097  1.622035
O    1.202622  -1.453799  2.133387
H    -0.493678  0.136675  -0.196314
H    -0.483350  -1.643599  -0.206515
H    1.045767  -0.756802  -0.370741
N    -0.639970  -0.129112  2.360742
C    -0.806243  -0.150249  3.816177
C    0.519902  -0.262437  4.605453
O    0.681186  -1.114137  5.474422
H    -1.401923  0.295991  1.844456
H    -1.181158  0.859746  4.062450
C    -1.923056  -1.113346  4.293832
C    -1.668525  -2.615754  4.530578
C    -0.929864  -3.418348  3.465281
N    -1.592462  -3.345661  2.160970
C    -1.101152  -3.969182  1.016230
N    0.262357  -4.216823  1.027633
N    -1.798905  -4.303414  -0.023696
H    -2.746151  -0.986545  3.571844
H    -2.301734  -0.706781  5.243737
H    -2.657705  -3.073541  4.707592
H    -1.100037  -2.732729  5.459416
H    -0.842409  -4.463432  3.813028
H    0.089828  -3.026808  3.371550
H    -2.606503  -3.382733  2.206209
H    0.589219  -4.505910  0.111661
H    0.850791  -3.511077  1.469476
H    -2.800347  -4.175547  0.147599
N    1.451233  0.720794  4.410341
C    1.497002  1.768750  3.408423
H    2.301256  0.542787  4.936627
H    2.173677  2.556962  3.759330
H    0.508788  2.223136  3.268201
H    1.856864  1.409265  2.431698
