35
Energy: -21190.4332852 eV PBE+vdW (tier 2 basis)
C    -1.441806  -0.433299  3.258141
C    -2.767630  -0.702421  3.936847
O    -2.878071  -0.699842  5.162468
H    -0.652109  -0.639809  3.986602
H    -1.377564  0.630912  2.987106
H    -1.298753  -1.049240  2.363496
N    -3.897086  -0.916010  3.169609
C    -4.123013  -1.108318  1.736558
C    -3.560252  -2.435080  1.179757
O    -2.374090  -2.758818  1.265376
H    -4.693608  -1.121487  3.765169
H    -5.214155  -1.187640  1.660659
C    -3.683919  0.088117  0.857375
C    -4.728172  1.216269  0.808727
C    -5.690955  1.119408  -0.389613
N    -6.356139  -0.171936  -0.582046
C    -7.275980  -0.714272  0.291163
N    -8.116478  0.200876  0.903412
N    -7.259127  -1.997461  0.497451
H    -3.475613  -0.279268  -0.160418
H    -2.725057  0.470151  1.222140
H    -4.230769  2.195751  0.739429
H    -5.298104  1.233134  1.750466
H    -5.137061  1.311537  -1.319700
H    -6.446946  1.915460  -0.324328
H    -5.769916  -0.901556  -0.977675
H    -8.893104  -0.195208  1.418461
H    -8.358726  1.033301  0.376119
H    -8.067975  -2.310733  1.037931
N    -4.497555  -3.177090  0.534652
C    -4.155926  -4.432952  -0.106068
H    -5.485304  -2.875751  0.545180
H    -4.965678  -4.714099  -0.788630
H    -4.012419  -5.241214  0.627133
H    -3.220472  -4.328676  -0.670224
