35
Energy: -21190.117974 eV PBE+vdW (tier 2 basis)
C    0.720531  0.189642  1.624656
C    -0.041878  -0.334639  2.822954
O    0.488697  -0.473695  3.923188
H    1.633487  0.663972  1.994266
H    0.149842  0.898679  1.014747
H    1.003825  -0.643430  0.965658
N    -1.360984  -0.702352  2.659108
C    -2.261652  -0.578032  1.510325
C    -1.649832  -1.170030  0.215568
O    -1.462804  -0.484676  -0.786129
H    -1.770869  -1.026785  3.530177
H    -3.123911  -1.218586  1.762081
C    -2.793828  0.846480  1.289971
C    -4.082604  0.900013  0.465755
C    -4.669038  2.318228  0.352834
N    -3.891241  3.265929  -0.423943
C    -3.927059  3.292778  -1.813980
N    -3.001323  4.199081  -2.344109
N    -4.677735  2.616298  -2.612711
H    -2.012229  1.443431  0.799017
H    -2.970072  1.283690  2.285400
H    -4.846339  0.257323  0.936713
H    -3.896689  0.498088  -0.540233
H    -4.801988  2.743839  1.360154
H    -5.673629  2.270500  -0.092201
H    -3.006083  3.554945  -0.020882
H    -3.124862  4.285686  -3.348859
H    -2.983991  5.105210  -1.883059
H    -5.199572  1.887425  -2.121864
N    -1.335515  -2.499503  0.235756
C    -1.476650  -3.459082  1.318617
H    -0.917453  -2.819406  -0.632292
H    -0.693140  -3.353387  2.082579
H    -2.453790  -3.365184  1.811331
H    -1.420735  -4.468399  0.896126
