35
Energy: -21190.3913112 eV PBE+vdW (tier 2 basis)
C    -0.654376  -0.167222  -0.356973
C    -0.721608  0.481196  1.011683
O    -0.014709  1.442530  1.314823
H    -0.822670  0.602628  -1.119750
H    -1.379534  -0.977828  -0.498712
H    0.357858  -0.562421  -0.509544
N    -1.634086  -0.066213  1.874537
C    -1.746299  0.366337  3.261886
C    -1.106134  -0.714305  4.153248
O    -1.630265  -1.824710  4.258182
H    -2.071840  -0.949578  1.632765
H    -1.192858  1.311211  3.312060
C    -3.204864  0.596617  3.678007
C    -3.875753  1.724711  2.894714
C    -5.351242  1.884388  3.252852
N    -5.943463  2.986153  2.514076
C    -7.265106  3.363632  2.727039
N    -7.688260  4.342147  1.819892
N    -8.084893  2.923237  3.617517
H    -3.219402  0.825803  4.755372
H    -3.757978  -0.348601  3.564014
H    -3.780636  1.523168  1.814900
H    -3.354113  2.676451  3.080960
H    -5.450214  2.099235  4.328901
H    -5.883552  0.930208  3.068277
H    -5.639871  3.064639  1.547249
H    -8.607437  4.691791  2.075297
H    -7.021771  5.095196  1.670125
H    -7.701562  2.118427  4.118116
N    0.056713  -0.400006  4.786322
C    0.822395  0.839428  4.717395
H    0.419643  -1.155630  5.359978
H    1.842297  0.632398  5.059602
H    0.402128  1.625908  5.362996
H    0.882599  1.213445  3.687635
