35
Energy: -21190.2181622 eV PBE+vdW (tier 2 basis)
C    0.279684  -0.181668  0.484837
C    0.202016  0.128128  1.972121
O    1.211027  0.276962  2.655455
H    1.335949  -0.247697  0.212018
H    -0.192474  0.608280  -0.117324
H    -0.213012  -1.131217  0.234749
N    -1.047835  0.243504  2.524114
C    -2.335453  0.136480  1.871148
C    -3.314236  1.031247  2.653553
O    -3.139531  1.273903  3.846403
H    -1.082582  0.511640  3.507448
H    -2.250565  0.510073  0.840299
C    -2.882126  -1.317517  1.808063
C    -2.990758  -2.018841  3.162100
C    -3.636044  -3.407166  3.029736
N    -3.688451  -4.180444  4.256099
C    -2.587438  -4.893204  4.724370
N    -2.816299  -5.433247  5.994614
N    -1.454191  -5.095508  4.147119
H    -2.217328  -1.895138  1.146870
H    -3.866888  -1.303519  1.312176
H    -3.584829  -1.410624  3.861601
H    -1.992338  -2.118828  3.611435
H    -3.100290  -4.008662  2.278813
H    -4.665968  -3.303281  2.653287
H    -4.275147  -3.793854  4.989659
H    -2.052596  -6.046580  6.264487
H    -3.723312  -5.877815  6.110235
H    -1.347600  -4.533971  3.299718
N    -4.411182  1.491801  1.984023
C    -4.668426  1.457718  0.552240
H    -5.013408  2.070957  2.560925
H    -4.712297  0.430997  0.164784
H    -3.917000  2.019506  -0.023309
H    -5.644495  1.918428  0.368347
