35
Energy: -21190.6481722 eV PBE+vdW (tier 2 basis)
C    -2.592193  -0.667031  1.694717
C    -1.619987  -0.088258  2.697334
O    -0.833088  0.822864  2.397915
H    -2.020616  -1.066002  0.846911
H    -3.222653  0.145071  1.312764
H    -3.227883  -1.457269  2.110774
N    -1.646578  -0.641388  3.939443
C    -0.781808  -0.196904  5.034710
C    0.630515  -0.852662  4.923117
O    1.049149  -1.664426  5.747399
H    -2.312922  -1.388776  4.119727
H    -0.642110  0.888243  4.896181
C    -1.407530  -0.481146  6.401371
C    -2.334413  0.608383  6.956168
C    -3.620848  0.891208  6.170805
N    -4.448882  -0.314073  6.022948
C    -4.774861  -0.845135  4.782429
N    -5.110526  0.110109  3.832327
N    -4.774673  -2.096425  4.444451
H    -0.581981  -0.640201  7.106802
H    -1.923708  -1.454728  6.364127
H    -1.778465  1.555579  7.041440
H    -2.607675  0.334234  7.989187
H    -3.385959  1.264648  5.165374
H    -4.186160  1.683830  6.687751
H    -4.260197  -1.033816  6.713446
H    -5.496604  -0.308621  2.992825
H    -5.644333  0.903508  4.171706
H    -4.391551  -2.681062  5.193163
N    1.326209  -0.419996  3.841609
C    2.626703  -0.951090  3.485984
H    0.833518  0.209752  3.199447
H    3.005233  -1.529405  4.335421
H    3.327083  -0.135356  3.262971
H    2.568794  -1.612663  2.608256
