35
Energy: -21190.9178766 eV PBE+vdW (tier 2 basis)
C    -0.944017  2.569204  1.921449
C    -1.484041  1.586345  2.938539
O    -2.398954  1.898025  3.714577
H    -0.549214  3.443573  2.453995
H    -1.770566  2.917759  1.290193
H    -0.155634  2.151246  1.284309
N    -0.912796  0.352178  2.932348
C    -1.226807  -0.642078  3.942681
C    0.081921  -1.232262  4.477621
O    1.018239  -1.504671  3.719745
H    -0.092015  0.162958  2.362385
H    -1.717181  -0.100369  4.752939
C    -2.160224  -1.757278  3.419077
C    -3.559483  -1.269364  3.012451
C    -4.561781  -1.071797  4.166886
N    -4.100441  -0.194164  5.247147
C    -3.428850  -0.656993  6.360781
N    -3.746467  -1.949265  6.775441
N    -2.508951  -0.017585  7.023344
H    -2.240673  -2.533650  4.195497
H    -1.666033  -2.226662  2.555455
H    -4.009461  -2.001769  2.323738
H    -3.471985  -0.335062  2.438024
H    -4.812662  -2.049803  4.595449
H    -5.496723  -0.658487  3.759400
H    -3.718704  0.690474  4.899618
H    -3.380519  -2.124017  7.706382
H    -4.722937  -2.212266  6.687584
H    -2.310212  0.886742  6.584644
N    0.076258  -1.429056  5.818554
C    1.192842  -2.023328  6.526080
H    -0.725877  -1.075427  6.354836
H    1.603602  -1.325554  7.268994
H    1.970837  -2.263629  5.793648
H    0.888508  -2.944967  7.042193
