35
Energy: -21190.5063403 eV PBE+vdW (tier 2 basis)
C    -0.976713  -0.128197  0.207178
C    -1.212643  0.625704  1.503031
O    -0.939964  1.821477  1.625796
H    -1.269830  -1.184056  0.253210
H    0.087925  -0.061286  -0.049130
H    -1.537439  0.365198  -0.596451
N    -1.757265  -0.108066  2.514597
C    -1.951341  0.434681  3.843032
C    -1.969427  -0.770409  4.801424
O    -2.092390  -1.918848  4.361395
H    -1.867334  -1.119666  2.456267
H    -1.097857  1.094564  4.068461
C    -3.240985  1.283935  3.949804
C    -4.534912  0.475856  3.859737
C    -5.798436  1.334907  4.016833
N    -5.848889  2.162403  5.230563
C    -5.674769  1.643576  6.511154
N    -6.204709  0.371812  6.695614
N    -5.078571  2.222709  7.502039
H    -3.188596  2.037490  3.149808
H    -3.213678  1.835330  4.899781
H    -4.545368  -0.305922  4.633254
H    -4.590309  -0.044873  2.891356
H    -6.688548  0.688891  3.974139
H    -5.895422  2.032481  3.172620
H    -5.395726  3.063898  5.127819
H    -6.237549  0.121875  7.678604
H    -7.067949  0.171488  6.200946
H    -4.636856  3.097567  7.205519
N    -1.874486  -0.535938  6.135542
C    -1.725366  0.722537  6.851611
H    -1.975380  -1.381355  6.689636
H    -1.210540  1.460419  6.226297
H    -1.102772  0.554588  7.739099
H    -2.693128  1.136390  7.175612
