35
Energy: -21189.9632568 eV PBE+vdW (tier 2 basis)
C    -0.345260  0.793013  -0.555360
C    -0.518568  -0.420552  0.335523
O    0.170620  -1.425014  0.161698
H    -0.092759  1.692964  0.017534
H    -1.250821  1.008230  -1.136531
H    0.469873  0.566842  -1.247641
N    -1.436784  -0.423989  1.366451
C    -2.501240  0.446633  1.878962
C    -3.885736  -0.240308  1.810725
O    -4.586781  -0.268379  2.830567
H    -1.378160  -1.313150  1.859558
H    -2.342901  0.518722  2.965730
C    -2.539204  1.899728  1.367380
C    -3.663888  2.729541  2.015914
C    -4.963206  2.747982  1.189210
N    -6.093351  3.297352  1.913721
C    -7.272312  2.615706  2.177686
N    -7.153555  1.226934  2.222192
N    -8.352428  3.311114  2.322680
H    -2.645458  1.939613  0.274305
H    -1.564372  2.349015  1.598910
H    -3.317675  3.764370  2.149747
H    -3.893272  2.350376  3.021390
H    -5.229367  1.734407  0.863500
H    -4.793708  3.326520  0.264045
H    -6.270480  4.291607  1.820209
H    -7.984373  0.768250  2.577443
H    -6.295674  0.825244  2.609460
H    -9.130284  2.726192  2.636725
N    -4.329108  -0.792984  0.650309
C    -3.730309  -0.795292  -0.676813
H    -5.256863  -1.195607  0.745014
H    -4.487386  -1.142525  -1.387438
H    -2.861982  -1.463497  -0.741656
H    -3.427792  0.212467  -0.988660
