35
Energy: -21190.1933596 eV PBE+vdW (tier 2 basis)
C    -0.448303  0.664024  -0.488896
C    -0.122632  0.845183  0.978353
O    0.823063  1.546779  1.332787
H    0.341100  0.040104  -0.930959
H    -0.397569  1.648716  -0.969107
H    -1.414524  0.201632  -0.706465
N    -0.844472  0.163199  1.945938
C    -2.189725  -0.421137  1.917973
C    -2.388555  -1.448678  0.773748
O    -3.447162  -1.542462  0.159233
H    -0.503215  0.414537  2.871672
H    -2.234695  -1.045762  2.826701
C    -3.362371  0.570815  2.035704
C    -3.413020  1.760835  1.063596
C    -2.769046  3.047252  1.610117
N    -2.929082  4.191013  0.727577
C    -1.987041  4.529850  -0.243539
N    -2.532403  5.364651  -1.231236
N    -0.752299  4.184668  -0.336408
H    -3.370567  0.953463  3.069514
H    -4.272537  -0.031941  1.921050
H    -4.471206  1.981645  0.853706
H    -2.972903  1.507166  0.090858
H    -1.696874  2.913323  1.803714
H    -3.222410  3.290801  2.585117
H    -3.887264  4.333457  0.419011
H    -1.790154  5.761686  -1.800894
H    -3.154802  6.086515  -0.876266
H    -0.452653  3.536080  0.394182
N    -1.325501  -2.278712  0.585237
C    -1.294575  -3.281610  -0.461054
H    -0.467932  -2.048303  1.075761
H    -0.870319  -4.219447  -0.081080
H    -0.702562  -2.948699  -1.327547
H    -2.323765  -3.457734  -0.790404
