35
Energy: -21190.3967425 eV PBE+vdW (tier 2 basis)
C    -1.643039  -1.250339  0.500709
C    -1.091884  -0.284885  1.535004
O    -0.270441  0.582782  1.252558
H    -0.809152  -1.744839  -0.011907
H    -2.195049  -0.675102  -0.253544
H    -2.313027  -2.010323  0.922736
N    -1.568350  -0.469908  2.811492
C    -1.359191  0.523173  3.860232
C    -0.188964  0.218141  4.818052
O    0.030137  0.944277  5.786546
H    -2.374518  -1.085139  2.947399
H    -1.056587  1.450581  3.347909
C    -2.663970  0.790650  4.638201
C    -3.043960  -0.183386  5.765061
C    -3.101443  -1.689557  5.449341
N    -3.707941  -2.076915  4.163563
C    -5.066031  -1.941866  3.819085
N    -5.823545  -1.153330  4.669245
N    -5.604221  -2.417325  2.749424
H    -3.480740  0.858306  3.904913
H    -2.575389  1.783402  5.097271
H    -4.010231  0.157075  6.161385
H    -2.325626  -0.072874  6.590525
H    -3.581609  -2.209664  6.299931
H    -2.074204  -2.077153  5.404062
H    -3.346344  -2.961064  3.819463
H    -5.656783  -1.245563  5.665238
H    -6.806269  -1.170129  4.415765
H    -4.910130  -2.863228  2.143494
N    0.547032  -0.883982  4.511008
C    1.755997  -1.238451  5.226189
H    0.318929  -1.348387  3.638496
H    1.744684  -2.297786  5.516436
H    1.802036  -0.618079  6.127955
H    2.653824  -1.046116  4.620763
