35
Energy: -21190.2033259 eV PBE+vdW (tier 2 basis)
C    1.022795  -1.468012  0.137631
C    0.761089  -0.898573  1.520878
O    1.630726  -0.934335  2.396146
H    0.208411  -1.306978  -0.579248
H    1.200790  -2.546843  0.233800
H    1.942927  -1.020371  -0.256557
N    -0.482654  -0.365435  1.693621
C    -1.127608  0.221335  2.879683
C    -1.310381  1.758186  2.789753
O    -2.438480  2.225524  2.954021
H    -1.081790  -0.392779  0.876726
H    -2.169726  -0.126927  2.835955
C    -0.575123  -0.192543  4.252543
C    -0.653393  -1.693205  4.527463
C    -0.148970  -2.076584  5.926707
N    1.155194  -1.511745  6.303226
C    2.372562  -2.143423  6.021630
N    2.440690  -2.709100  4.756046
N    3.385090  -2.226149  6.820592
H    -1.189902  0.349774  4.989026
H    0.455796  0.148882  4.392902
H    -0.081612  -2.247732  3.772603
H    -1.696167  -2.041208  4.443393
H    -0.136188  -3.175952  6.010764
H    -0.865408  -1.704519  6.673607
H    1.160544  -1.108096  7.232563
H    3.371040  -3.080257  4.587254
H    2.115248  -2.119434  3.987579
H    3.137070  -1.914309  7.764185
N    -0.239196  2.569435  2.564103
C    1.161483  2.251426  2.341112
H    -0.509738  3.547673  2.516703
H    1.400639  2.166597  1.268990
H    1.444117  1.311469  2.824615
H    1.779907  3.049150  2.770123
