35
Energy: -21190.6448719 eV PBE+vdW (tier 2 basis)
C    -5.587623  0.004996  2.459155
C    -4.110564  -0.197374  2.200162
O    -3.681167  -1.197328  1.611424
H    -6.112929  0.018975  1.495979
H    -5.817590  0.928693  3.003571
H    -5.969206  -0.852299  3.027012
N    -3.283337  0.789897  2.645815
C    -1.836120  0.769704  2.419775
C    -1.169471  -0.107701  3.509660
O    -0.617901  0.357732  4.513577
H    -3.667653  1.556172  3.187509
H    -1.692482  0.264376  1.452551
C    -1.299291  2.198015  2.332106
C    0.175678  2.310269  1.898208
C    1.166007  2.593118  3.039300
N    0.875445  3.844987  3.727033
C    0.751448  3.985380  5.106537
N    0.074925  2.966761  5.752906
N    1.192790  5.080847  5.638427
H    -1.438648  2.720350  3.291465
H    -1.935596  2.720713  1.603802
H    0.265125  3.122740  1.162333
H    0.493950  1.394781  1.372734
H    2.187573  2.620762  2.623499
H    1.149862  1.770904  3.763415
H    1.335962  4.668758  3.352002
H    -0.140657  2.089645  5.275939
H    0.252527  2.881489  6.744333
H    0.908253  5.149786  6.619047
N    -1.278969  -1.433378  3.260233
C    -0.850402  -2.442257  4.210937
H    -1.915691  -1.694468  2.501662
H    -1.664189  -2.736765  4.891508
H    -0.031078  -2.034982  4.812070
H    -0.500980  -3.331297  3.673314
