35
Energy: -21190.5708175 eV PBE+vdW (tier 2 basis)
C    1.278165  1.802807  0.412649
C    0.858497  1.520625  1.839575
O    1.448484  2.024137  2.801679
H    1.219054  2.883805  0.234853
H    0.668683  1.282234  -0.335313
H    2.328178  1.509324  0.291028
N    -0.212327  0.693776  1.986050
C    -0.658378  0.201609  3.275349
C    -0.972018  -1.290541  3.105518
O    -1.320963  -1.741255  2.012508
H    -0.579276  0.175377  1.189833
H    0.171786  0.354697  3.979109
C    -1.924023  0.940949  3.778492
C    -1.675468  2.405543  4.149175
C    -0.890857  2.573898  5.457748
N    -0.530894  3.953128  5.735744
C    0.766154  4.437887  5.880103
N    1.755235  3.632577  5.339355
N    1.093197  5.539916  6.475017
H    -2.337734  0.400287  4.645735
H    -2.682480  0.868546  2.985352
H    -2.644265  2.920745  4.241642
H    -1.132082  2.916735  3.342155
H    0.039366  1.992440  5.425900
H    -1.483734  2.162133  6.295132
H    -1.232291  4.524135  6.190361
H    2.653504  4.103078  5.364077
H    1.569153  3.162131  4.452155
H    0.285779  5.962741  6.941535
N    -0.893074  -2.070158  4.218208
C    -0.381167  -1.696783  5.529256
H    -1.140394  -3.041058  4.055667
H    -0.429483  -2.576056  6.179442
H    -0.979157  -0.902602  5.998087
H    0.666533  -1.366005  5.486409
