35
Energy: -21190.2364701 eV PBE+vdW (tier 2 basis)
C    -2.193293  0.702588  0.350798
C    -1.510923  0.921403  1.678970
O    -1.058705  2.024451  2.010995
H    -1.623987  -0.005056  -0.267404
H    -2.254730  1.666008  -0.160825
H    -3.201994  0.287028  0.466040
N    -1.356045  -0.149440  2.527498
C    -2.190729  -1.356962  2.631695
C    -2.121190  -2.219753  1.345995
O    -3.125489  -2.538122  0.715880
H    -0.873105  0.123830  3.379230
H    -1.711370  -1.959757  3.422483
C    -3.640655  -1.079664  3.055917
C    -3.860116  -0.690681  4.522994
C    -3.240659  0.631843  5.031698
N    -3.342785  1.776977  4.146320
C    -4.547536  2.315698  3.766833
N    -4.436933  3.199715  2.681982
N    -5.641894  1.957369  4.354556
H    -4.220659  -1.987482  2.843880
H    -4.069685  -0.306620  2.403176
H    -3.500968  -1.497711  5.184327
H    -4.944989  -0.621033  4.674674
H    -2.169435  0.506072  5.248568
H    -3.722948  0.877017  5.989771
H    -2.529973  2.011804  3.585651
H    -5.179116  3.888917  2.635532
H    -3.519361  3.613277  2.533756
H    -6.446904  2.448787  3.960669
N    -0.878886  -2.630040  0.946040
C    0.412912  -2.413989  1.576578
H    -0.905072  -3.183158  0.095263
H    1.114887  -3.163265  1.193483
H    0.354899  -2.546284  2.665296
H    0.819989  -1.413353  1.373590
