35
Energy: -21190.232603 eV PBE+vdW (tier 2 basis)
C    0.290480  -0.589017  1.721938
C    -0.873766  -0.982733  2.612161
O    -0.914430  -2.076736  3.169670
H    1.136743  -1.229309  1.985720
H    0.591551  0.461418  1.814275
H    0.040509  -0.774225  0.667263
N    -1.906326  -0.086779  2.780574
C    -2.140443  1.214765  2.159912
C    -2.595936  2.178205  3.280048
O    -3.786740  2.384114  3.504300
H    -2.662425  -0.458050  3.353145
H    -1.181413  1.561137  1.754550
C    -3.193976  1.169237  1.039640
C    -2.814958  0.258314  -0.130068
C    -1.714345  0.836308  -1.022844
N    -1.155839  -0.185872  -1.888789
C    -0.025224  0.064058  -2.660954
N    0.283046  -1.002893  -3.508824
N    0.715198  1.118601  -2.665704
H    -3.368108  2.198315  0.687490
H    -4.145110  0.846270  1.483149
H    -3.712013  0.067674  -0.739207
H    -2.493112  -0.722198  0.252845
H    -0.890739  1.226973  -0.405309
H    -2.111920  1.698272  -1.593234
H    -1.834384  -0.804525  -2.324474
H    1.176705  -0.853993  -3.968228
H    0.216743  -1.922861  -3.081650
H    0.295956  1.876051  -2.122088
N    -1.615254  2.760335  4.031392
C    -0.181724  2.523935  3.979128
H    -1.978560  3.315536  4.799937
H    0.302823  3.187376  4.702890
H    0.236273  2.761616  2.990508
H    0.081570  1.487353  4.235873
