35
Energy: -21190.4746412 eV PBE+vdW (tier 2 basis)
C    -3.103717  0.421734  -0.363868
C    -2.468201  -0.103330  0.905653
O    -1.889439  -1.195859  0.943215
H    -3.836648  -0.310704  -0.723613
H    -2.326247  0.510973  -1.132991
H    -3.596232  1.394136  -0.242288
N    -2.564927  0.702337  2.000354
C    -1.966411  0.364391  3.292521
C    -2.918629  -0.552266  4.110084
O    -3.545330  -0.148369  5.087735
H    -3.131065  1.541686  1.945458
H    -1.061100  -0.216746  3.056979
C    -1.591405  1.622222  4.070475
C    -0.505120  2.462479  3.397462
C    -0.117457  3.689167  4.233634
N    0.890840  4.534044  3.601100
C    2.219799  4.578886  3.988282
N    2.701130  3.378849  4.525080
N    2.867591  5.687584  3.860578
H    -1.262451  1.306226  5.071059
H    -2.498774  2.222542  4.248142
H    -0.826796  2.802272  2.401041
H    0.387540  1.838196  3.222255
H    0.238740  3.368698  5.224980
H    -1.014307  4.302352  4.409724
H    0.585570  5.449235  3.289252
H    2.370566  2.527570  4.078786
H    3.704619  3.370569  4.667804
H    3.865675  5.562194  4.045566
N    -2.972968  -1.820002  3.622035
C    -3.867924  -2.825844  4.159218
H    -2.482365  -1.993084  2.741335
H    -3.329856  -3.766373  4.336546
H    -4.709130  -3.025567  3.478371
H    -4.266573  -2.454198  5.109035
