35
Energy: -21190.5744217 eV PBE+vdW (tier 2 basis)
C    -1.063214  0.391337  -0.924843
C    -0.405861  0.490593  0.438131
O    0.745077  0.914200  0.583414
H    -2.090339  0.008821  -0.889465
H    -0.456868  -0.265424  -1.561127
H    -1.065806  1.384961  -1.389862
N    -1.167969  0.090740  1.491481
C    -0.641203  0.040983  2.837526
C    -1.511184  -0.966570  3.613260
O    -2.623084  -1.306878  3.198787
H    -2.081797  -0.347286  1.378853
H    0.386302  -0.346364  2.776773
C    -0.605555  1.441122  3.530461
C    0.792783  1.990189  3.847089
C    1.444494  1.461811  5.127464
N    1.795518  0.041343  5.024558
C    2.234355  -0.735671  6.106655
N    1.935803  -0.214604  7.360041
N    2.757182  -1.910693  6.022085
H    -1.212194  1.418509  4.449289
H    -1.109546  2.138217  2.849068
H    0.720756  3.082138  3.961642
H    1.450299  1.821473  2.979254
H    0.734525  1.573069  5.960853
H    2.332278  2.080253  5.360616
H    2.292326  -0.189247  4.167783
H    2.344323  -0.781269  8.096798
H    2.076674  0.781048  7.493839
H    2.812759  -2.230725  5.051409
N    -0.949312  -1.408394  4.761221
C    -1.612895  -2.314995  5.677725
H    -0.017360  -1.056954  4.987558
H    -2.489426  -2.734441  5.173127
H    -1.944691  -1.796233  6.589394
H    -0.932150  -3.126058  5.965145
