35
Energy: -21190.2082193 eV PBE+vdW (tier 2 basis)
C    -1.060992  1.562207  -0.534903
C    -0.597569  0.475936  0.411860
O    0.241001  -0.355379  0.061957
H    -1.903413  2.168490  -0.189502
H    -1.316375  1.092950  -1.492169
H    -0.196365  2.216738  -0.710916
N    -1.116894  0.420593  1.684530
C    -2.037333  1.324551  2.381727
C    -3.377821  1.506309  1.630899
O    -3.809535  2.617749  1.327357
H    -0.635167  -0.272130  2.250322
H    -2.291056  0.795336  3.316770
C    -1.406491  2.671571  2.764920
C    -0.242700  2.505471  3.753333
C    0.931457  3.475221  3.533004
N    1.518629  3.433048  2.196981
C    2.071166  2.266402  1.694879
N    2.334454  2.367201  0.316360
N    2.248096  1.234915  2.446118
H    -2.190253  3.325250  3.168893
H    -1.067263  3.156905  1.838680
H    0.182932  1.496301  3.679333
H    -0.600904  2.628459  4.786981
H    1.721709  3.242391  4.259804
H    0.621971  4.516079  3.706512
H    1.048947  3.995703  1.496859
H    2.743004  1.526732  -0.079175
H    2.832938  3.207895  0.035387
H    2.733636  0.493935  1.936229
N    -4.079294  0.373017  1.331260
C    -3.773141  -1.012810  1.647800
H    -4.935224  0.565351  0.820761
H    -4.696154  -1.597645  1.563449
H    -3.412460  -1.117136  2.679812
H    -3.019005  -1.443827  0.974596
