35
Energy: -21190.0063625 eV PBE+vdW (tier 2 basis)
C    -1.365118  -0.227819  0.356453
C    -1.028200  -0.296689  1.837271
O    -0.069841  -0.936073  2.259806
H    -0.458552  0.039286  -0.199000
H    -2.160790  0.487207  0.112036
H    -1.672643  -1.227153  0.021859
N    -1.864696  0.420238  2.655418
C    -1.833448  0.315065  4.120757
C    -3.042261  1.053932  4.712637
O    -3.806642  0.490390  5.489482
H    -2.722176  0.772489  2.243925
H    -1.984225  -0.738178  4.401239
C    -0.495056  0.801288  4.759743
C    0.247726  -0.321117  5.487914
C    -0.453238  -0.765713  6.780242
N    0.105161  -1.975550  7.365890
C    -0.267381  -3.212718  6.868666
N    0.406331  -4.286412  7.469951
N    -1.216860  -3.309861  6.001829
H    -0.695518  1.626930  5.462605
H    0.141904  1.214669  3.967822
H    1.270155  0.016735  5.723610
H    0.336629  -1.177957  4.806625
H    -1.513343  -0.977314  6.590596
H    -0.408737  0.033225  7.537098
H    1.056539  -1.902176  7.709428
H    0.497330  -5.102237  6.875477
H    1.268490  -4.070933  7.961789
H    -1.456338  -4.287775  5.825620
N    -3.267163  2.359622  4.332315
C    -2.335207  3.317364  3.752385
H    -4.068334  2.749372  4.822879
H    -1.637828  2.812583  3.077292
H    -1.749510  3.848155  4.520047
H    -2.894180  4.059012  3.167614
