35
Energy: -21190.1220648 eV PBE+vdW (tier 2 basis)
C    0.370997  -0.654674  0.909238
C    0.108343  -0.518589  2.396129
O    1.011873  -0.509091  3.230328
H    1.443826  -0.805057  0.766327
H    0.057236  0.246818  0.363428
H    -0.176477  -1.502505  0.474601
N    -1.202970  -0.391713  2.785396
C    -2.379704  -0.292866  1.939516
C    -2.566931  1.010766  1.123584
O    -3.259051  0.957190  0.106588
H    -1.317171  -0.313342  3.791705
H    -2.312406  -1.056321  1.150928
C    -3.663119  -0.605518  2.733415
C    -4.038619  0.413447  3.814607
C    -5.376276  0.105265  4.508712
N    -5.407449  -1.141553  5.269427
C    -5.641627  -2.389045  4.701123
N    -6.629520  -2.393311  3.712887
N    -4.942119  -3.394653  5.105668
H    -3.545331  -1.605289  3.176127
H    -4.481740  -0.675700  2.004460
H    -4.117705  1.420519  3.372885
H    -3.256224  0.476099  4.591074
H    -6.175775  0.077496  3.756742
H    -5.622373  0.927799  5.196586
H    -4.671862  -1.229357  5.967242
H    -6.909118  -3.321400  3.416305
H    -7.426542  -1.786167  3.883933
H    -5.306350  -4.278321  4.740017
N    -1.990014  2.190270  1.505984
C    -1.212224  2.567608  2.681011
H    -2.206789  2.930358  0.845045
H    -1.160031  3.662013  2.704685
H    -0.186236  2.177477  2.658996
H    -1.687373  2.242974  3.614125
