35
Energy: -21190.0586331 eV PBE+vdW (tier 2 basis)
C    0.809619  0.304273  0.367876
C    0.266075  0.469437  1.776577
O    0.903735  1.018339  2.669000
H    0.085615  -0.107650  -0.346365
H    1.684490  -0.357432  0.405029
H    1.155176  1.280501  0.007702
N    -0.995212  -0.028770  1.980065
C    -1.655302  -0.046139  3.284436
C    -1.640454  1.327482  4.009616
O    -1.359319  1.408288  5.200129
H    -1.456636  -0.493032  1.208234
H    -2.716399  -0.268085  3.073858
C    -1.106132  -1.135854  4.215937
C    -1.272725  -2.548620  3.655458
C    -0.681489  -3.642326  4.548883
N    -1.374396  -3.732482  5.824190
C    -1.366413  -4.833985  6.668117
N    -0.756070  -5.974968  6.141225
N    -1.928689  -4.909138  7.827781
H    -1.625946  -1.017382  5.176401
H    -0.046840  -0.918582  4.415019
H    -0.771449  -2.619376  2.677167
H    -2.339874  -2.771215  3.487938
H    0.404459  -3.452439  4.674751
H    -0.789104  -4.610870  4.042179
H    -1.556049  -2.855327  6.297257
H    -0.723970  -6.705567  6.846539
H    0.144112  -5.832468  5.692355
H    -2.460143  -4.060137  8.039564
N    -2.046462  2.430258  3.309082
C    -2.477249  2.564074  1.930601
H    -1.969046  3.278974  3.860263
H    -3.078637  3.476930  1.843078
H    -3.115914  1.724784  1.627616
H    -1.636976  2.635424  1.222570
