35
Energy: -21190.0599651 eV PBE+vdW (tier 2 basis)
C    0.211851  0.478222  0.345332
C    0.199216  0.743275  1.835981
O    1.185563  1.171437  2.431194
H    1.083152  0.986363  -0.076024
H    -0.697796  0.810268  -0.167696
H    0.311536  -0.600211  0.156601
N    -0.946728  0.453104  2.546501
C    -2.268300  0.014584  2.095291
C    -2.214752  -1.239026  1.187343
O    -2.709773  -1.246415  0.063069
H    -0.839671  0.661556  3.535027
H    -2.780338  -0.310645  3.015739
C    -3.114955  1.122058  1.442861
C    -3.187118  2.421822  2.248281
C    -3.868070  2.284501  3.608747
N    -3.947358  3.588855  4.265089
C    -4.357533  3.741817  5.588767
N    -5.274265  2.781396  6.015476
N    -3.974356  4.654104  6.414921
H    -4.123787  0.718476  1.272125
H    -2.717652  1.333633  0.441871
H    -3.736311  3.169838  1.657042
H    -2.169950  2.823163  2.390300
H    -3.333118  1.556171  4.247192
H    -4.882413  1.881013  3.457811
H    -3.180212  4.210763  4.027948
H    -5.669328  3.039808  6.914850
H    -5.983434  2.516502  5.338166
H    -3.207022  5.211444  6.029796
N    -1.605181  -2.348771  1.701486
C    -1.006036  -2.548174  3.011526
H    -1.593002  -3.127429  1.050316
H    -0.000197  -2.111546  3.088416
H    -0.935130  -3.625495  3.198601
H    -1.630223  -2.119279  3.806872
