35
Energy: -21190.3440512 eV PBE+vdW (tier 2 basis)
C    -0.057799  -2.288786  1.028097
C    -0.024546  -0.975194  1.781803
O    0.918749  -0.190213  1.685959
H    -0.023874  -2.073744  -0.047286
H    -0.943577  -2.899982  1.241132
H    0.844186  -2.861004  1.276768
N    -1.116625  -0.707455  2.563757
C    -1.144055  0.479365  3.422349
C    -2.093634  0.277829  4.608230
O    -1.749561  0.514493  5.761141
H    -1.775875  -1.455000  2.746556
H    -0.144353  0.587164  3.862068
C    -1.486764  1.767546  2.630040
C    -0.871782  3.037874  3.226774
C    0.663446  3.102874  3.089860
N    1.167957  2.898221  1.734137
C    0.819271  3.728029  0.682027
N    0.757416  5.087823  1.023766
N    0.562504  3.218750  -0.477145
H    -2.579732  1.881394  2.560467
H    -1.127344  1.640055  1.600247
H    -1.136215  3.136540  4.291994
H    -1.304260  3.908908  2.713204
H    1.143696  2.337091  3.713509
H    1.012149  4.068129  3.485631
H    1.180239  1.917698  1.448213
H    0.703041  5.704819  0.221022
H    1.456644  5.395945  1.694694
H    0.471031  3.949625  -1.188764
N    -3.346400  -0.180941  4.282878
C    -4.390353  -0.323209  5.283858
H    -3.627705  -0.144192  3.308721
H    -5.053710  -1.154846  5.018130
H    -4.989255  0.594155  5.391297
H    -3.912434  -0.531447  6.246407
