35
Energy: -21190.3184459 eV PBE+vdW (tier 2 basis)
C    0.154700  0.751368  -0.081544
C    0.224459  1.509049  1.228939
O    1.147534  2.300662  1.445466
H    0.682062  -0.206870  0.026191
H    0.685381  1.343535  -0.832917
H    -0.859653  0.533897  -0.430993
N    -0.711553  1.282129  2.215674
C    -2.097960  0.804894  2.112522
C    -2.232981  -0.513156  1.314932
O    -3.107683  -0.689624  0.471113
H    -0.596209  1.976235  2.962298
H    -2.362577  0.512411  3.143350
C    -3.138201  1.868350  1.709466
C    -2.873975  2.735760  0.471575
C    -1.939270  3.949166  0.662355
N    -2.338620  4.870779  1.720253
C    -1.949350  4.831696  3.051038
N    -0.759329  4.145035  3.318045
N    -2.579248  5.361493  4.046553
H    -3.295970  2.526536  2.576778
H    -4.079689  1.323127  1.559336
H    -3.848288  3.121426  0.131005
H    -2.500181  2.127716  -0.365564
H    -1.910666  4.513615  -0.282488
H    -0.905947  3.640223  0.846450
H    -3.241014  5.315173  1.589089
H    -0.432886  4.381172  4.251096
H    -0.017090  4.207920  2.622840
H    -3.485341  5.740360  3.758321
N    -1.343924  -1.474191  1.694177
C    -1.269911  -2.770637  1.050740
H    -0.610635  -1.198207  2.338739
H    -1.189594  -3.569378  1.799004
H    -0.410569  -2.838816  0.365677
H    -2.188505  -2.910304  0.471565
