35
Energy: -21190.4548192 eV PBE+vdW (tier 2 basis)
C    -0.307555  1.521176  4.543535
C    -0.660045  0.087115  4.906437
O    0.185679  -0.718667  5.279820
H    0.231843  1.529147  3.586906
H    0.370191  1.921740  5.305473
H    -1.184160  2.176995  4.456686
N    -1.984419  -0.242764  4.740599
C    -2.525887  -1.503322  5.236013
C    -2.449563  -2.680401  4.240451
O    -2.756254  -3.813592  4.605372
H    -2.655001  0.524905  4.657909
H    -1.914927  -1.823291  6.094983
C    -3.989082  -1.318671  5.669416
C    -4.203417  -0.247365  6.760404
C    -4.957567  1.004174  6.294491
N    -4.288098  1.753070  5.222457
C    -4.864096  1.906918  3.948396
N    -4.234560  2.915469  3.215849
N    -5.838026  1.259772  3.420014
H    -4.336679  -2.299043  6.014600
H    -4.588238  -1.082079  4.774985
H    -3.235801  0.054758  7.190492
H    -4.778358  -0.676396  7.594233
H    -5.107231  1.681881  7.147795
H    -5.965050  0.723740  5.952673
H    -3.852990  2.611948  5.548363
H    -3.223546  2.966274  3.305313
H    -4.538287  2.909990  2.246658
H    -6.293650  0.626997  4.080150
N    -2.067104  -2.356655  2.979249
C    -1.912977  -3.340525  1.928230
H    -1.799612  -1.392115  2.817893
H    -2.507200  -3.070150  1.044522
H    -2.268493  -4.300204  2.318970
H    -0.859838  -3.447829  1.630667
