35
Energy: -21190.2287442 eV PBE+vdW (tier 2 basis)
C    -0.432191  0.686843  0.046391
C    -0.294045  0.848192  1.547029
O    0.539771  1.601782  2.046113
H    -0.035849  1.590228  -0.425624
H    -1.457841  0.505868  -0.294420
H    0.176073  -0.167865  -0.282847
N    -1.107030  0.091498  2.359898
C    -2.165611  -0.856920  2.016376
C    -1.727344  -1.943507  1.003693
O    -2.390414  -2.212302  -0.002057
H    -0.917686  0.244447  3.345583
H    -2.336562  -1.435085  2.938020
C    -3.487166  -0.174685  1.606591
C    -4.409353  0.185234  2.782990
C    -5.396321  -0.914757  3.218478
N    -4.823973  -2.146550  3.754756
C    -4.215812  -3.140873  3.002689
N    -4.847779  -3.492694  1.816812
N    -3.150549  -3.703052  3.481236
H    -4.006713  -0.822632  0.888358
H    -3.237211  0.741411  1.055365
H    -5.020515  1.058808  2.506520
H    -3.812431  0.509801  3.652252
H    -6.052280  -1.163956  2.370562
H    -6.064672  -0.509004  3.992060
H    -4.342818  -2.046302  4.644764
H    -4.215218  -3.685181  1.045707
H    -5.632157  -2.917422  1.530310
H    -2.904504  -4.529899  2.930523
N    -0.581148  -2.621751  1.289479
C    0.161754  -2.652491  2.543576
H    -0.375450  -3.340668  0.603239
H    0.795084  -3.546242  2.540724
H    -0.521608  -2.732277  3.400929
H    0.807256  -1.772991  2.666011
