35
Energy: -21190.1439214 eV PBE+vdW (tier 2 basis)
C    -0.251662  -0.241157  -0.033222
C    -0.174382  -0.163551  1.481275
O    0.892941  -0.164218  2.087656
H    0.298659  -1.128331  -0.369864
H    0.254319  0.635642  -0.456528
H    -1.275416  -0.283912  -0.426195
N    -1.380239  -0.101014  2.128596
C    -1.482783  0.045066  3.570412
C    -1.218221  -1.198161  4.455606
O    -0.971817  -0.998897  5.644472
H    -2.229702  -0.114027  1.577915
H    -0.677924  0.726336  3.880579
C    -2.832863  0.668395  3.965071
C    -4.059453  -0.190380  3.643497
C    -5.358452  0.427547  4.179560
N    -6.567142  -0.339867  3.886649
C    -6.752572  -1.636060  4.361766
N    -6.317865  -1.830967  5.673065
N    -7.269440  -2.517172  3.574209
H    -2.914440  1.653482  3.478285
H    -2.787646  0.850182  5.048009
H    -3.942629  -1.191516  4.085532
H    -4.174619  -0.337845  2.555658
H    -5.506346  1.432698  3.757838
H    -5.268457  0.571190  5.266635
H    -6.855814  -0.308119  2.911668
H    -6.615757  -2.706488  6.087010
H    -6.426197  -1.042340  6.304216
H    -7.494224  -3.381676  4.074064
N    -1.283240  -2.471960  3.968030
C    -1.603435  -3.002371  2.651570
H    -1.051371  -3.147796  4.689599
H    -2.538070  -2.587739  2.255144
H    -1.747909  -4.083773  2.755492
H    -0.798356  -2.835856  1.922151
