35
Energy: -21190.4292862 eV PBE+vdW (tier 2 basis)
C    0.177985  0.777306  0.530125
C    -0.665871  1.274885  1.692557
O    -0.549282  2.419178  2.125988
H    1.029836  0.192501  0.905225
H    0.570506  1.649941  0.000984
H    -0.378834  0.142172  -0.171822
N    -1.554234  0.395990  2.253645
C    -1.861133  -0.966382  1.873927
C    -3.230547  -1.304467  2.514334
O    -3.757585  -0.556981  3.339001
H    -2.163743  0.773186  2.981492
H    -1.979237  -1.041778  0.779169
C    -0.802023  -2.001613  2.318840
C    -0.540632  -2.015469  3.834056
C    -0.242921  -3.411423  4.397389
N    -1.389527  -4.308520  4.379529
C    -1.662485  -5.223389  3.377815
N    -2.919511  -5.829038  3.542546
N    -0.948349  -5.558746  2.356879
H    0.133868  -1.811966  1.774992
H    -1.140657  -2.992642  1.985112
H    -1.412765  -1.611618  4.373214
H    0.291810  -1.341961  4.083661
H    0.101537  -3.319671  5.438501
H    0.578155  -3.896059  3.849435
H    -2.205373  -3.971426  4.881333
H    -3.010379  -6.614525  2.903245
H    -3.125972  -6.106712  4.499435
H    -0.103131  -4.989893  2.276175
N    -3.770038  -2.486114  2.120942
C    -5.006654  -3.014037  2.670482
H    -3.245684  -3.072787  1.481788
H    -5.799415  -3.043249  1.909547
H    -5.324147  -2.349480  3.480489
H    -4.840021  -4.026932  3.059896
