35
Energy: -21190.4770795 eV PBE+vdW (tier 2 basis)
C    -0.700746  -1.647668  0.776313
C    -0.579226  -0.698649  1.956851
O    0.409159  -0.703135  2.687982
H    -1.145833  -1.178684  -0.111654
H    -1.326850  -2.509125  1.049032
H    0.299875  -2.015056  0.532961
N    -1.621604  0.159074  2.185551
C    -2.873393  0.300065  1.473125
C    -3.477892  1.651815  1.913874
O    -3.122999  2.209802  2.957319
H    -1.509550  0.809169  2.965200
H    -2.682001  0.374402  0.388846
C    -3.881372  -0.872168  1.682076
C    -3.941063  -1.510163  3.075273
C    -4.346386  -0.597801  4.251297
N    -5.450810  0.326443  4.011128
C    -6.682067  -0.013414  3.494776
N    -7.116130  -1.296007  3.839541
N    -7.306151  0.828827  2.732781
H    -3.624739  -1.666084  0.966373
H    -4.884260  -0.523402  1.392608
H    -2.965421  -1.952259  3.328860
H    -4.651914  -2.345871  3.007724
H    -3.500573  0.034232  4.546238
H    -4.559674  -1.234601  5.126188
H    -5.170982  1.267411  3.755349
H    -8.093310  -1.473621  3.638304
H    -6.841424  -1.624015  4.761376
H    -8.261757  0.517244  2.541962
N    -4.421798  2.152680  1.082759
C    -5.248195  3.301355  1.426381
H    -4.731671  1.568001  0.314906
H    -5.417025  3.916450  0.534187
H    -4.711082  3.893982  2.173461
H    -6.210789  2.967608  1.842647
