35
Energy: -21190.4489783 eV PBE+vdW (tier 2 basis)
C    -1.878380  -0.592803  -0.827238
C    -1.240951  -0.641718  0.548353
O    -0.268584  0.051437  0.848821
H    -2.222330  0.431027  -1.020408
H    -2.723460  -1.281779  -0.945603
H    -1.113567  -0.827398  -1.577756
N    -1.828398  -1.497215  1.436107
C    -1.278435  -1.734132  2.753010
C    -1.740641  -3.137149  3.179005
O    -2.645187  -3.728552  2.583666
H    -2.539937  -2.165944  1.146946
H    -0.178535  -1.723234  2.670426
C    -1.661849  -0.620694  3.765514
C    -3.160518  -0.403284  4.003262
C    -3.826883  -1.422954  4.942227
N    -5.211064  -1.093220  5.267289
C    -5.635807  -0.511837  6.451582
N    -4.637720  0.177384  7.146811
N    -6.822169  -0.566992  6.957843
H    -1.216085  0.301293  3.368811
H    -1.152377  -0.817169  4.723893
H    -3.693779  -0.390455  3.040388
H    -3.298841  0.603725  4.427102
H    -3.252080  -1.499460  5.878080
H    -3.824256  -2.419561  4.482218
H    -5.924811  -1.631414  4.793417
H    -5.045265  0.678262  7.931185
H    -4.040499  0.773408  6.580135
H    -7.419210  -1.219260  6.441872
N    -1.098884  -3.649797  4.260353
C    -1.466197  -4.912854  4.873976
H    -0.369428  -3.094029  4.691126
H    -0.585327  -5.555894  4.996717
H    -2.182588  -5.409135  4.211743
H    -1.937311  -4.759893  5.855904
