35
Energy: -21190.8095511 eV PBE+vdW (tier 2 basis)
C    0.104481  0.331013  -0.577102
C    0.322627  0.565948  0.902874
O    1.361610  1.103577  1.316906
H    0.175327  1.291311  -1.102641
H    -0.859081  -0.136987  -0.809519
H    0.914201  -0.306733  -0.953349
N    -0.687509  0.166124  1.713379
C    -0.619967  0.142834  3.164895
C    -1.283651  -1.174302  3.603282
O    -2.138782  -1.707368  2.887473
H    -1.454596  -0.392427  1.338325
H    0.436548  0.160829  3.454933
C    -1.392116  1.321966  3.814175
C    -0.912978  2.735674  3.452722
C    0.337848  3.228375  4.194818
N    1.526270  2.450278  3.895017
C    2.166819  1.664518  4.832577
N    2.883679  0.609791  4.253674
N    2.149351  1.748243  6.123324
H    -1.366103  1.195723  4.907605
H    -2.445633  1.213707  3.514236
H    -1.726944  3.441161  3.681294
H    -0.754120  2.811159  2.365645
H    0.157194  3.188087  5.279701
H    0.504624  4.290142  3.947904
H    1.556931  2.087402  2.935275
H    3.144736  0.726317  3.279056
H    3.642701  0.290924  4.846481
H    1.592634  2.544651  6.438677
N    -0.923752  -1.687284  4.805370
C    0.087387  -1.191853  5.732997
H    -1.455371  -2.511842  5.067323
H    0.999510  -0.885138  5.208134
H    0.352656  -2.002806  6.419388
H    -0.264514  -0.338842  6.330327
