35
Energy: -21190.0682162 eV PBE+vdW (tier 2 basis)
C    -0.068885  1.692728  2.032920
C    -0.277481  0.507067  2.952353
O    0.465594  0.258420  3.899448
H    0.843486  2.207484  2.343675
H    -0.914112  2.393777  2.079527
H    0.029609  1.379373  0.984055
N    -1.348889  -0.313019  2.679784
C    -2.403192  -0.105645  1.698902
C    -3.383486  1.056978  1.997628
O    -3.767177  1.761176  1.064444
H    -1.453208  -1.068378  3.351669
H    -1.947995  0.207911  0.748022
C    -3.188781  -1.404174  1.431984
C    -2.479781  -2.432885  0.540214
C    -1.245540  -3.099826  1.147528
N    -0.731437  -4.115684  0.233363
C    0.314829  -4.976784  0.565947
N    1.183649  -4.481335  1.532184
N    0.524573  -6.151077  0.075221
H    -3.475659  -1.865624  2.392364
H    -4.128182  -1.117576  0.939651
H    -3.213432  -3.218794  0.293244
H    -2.203648  -1.958576  -0.414596
H    -1.498730  -3.530467  2.136150
H    -0.469299  -2.341733  1.322972
H    -1.447432  -4.578642  -0.318122
H    1.375519  -3.485022  1.512053
H    2.021631  -5.050097  1.599378
H    -0.244914  -6.447583  -0.530854
N    -3.814342  1.281156  3.273598
C    -3.572103  0.538051  4.502923
H    -4.442725  2.076890  3.327599
H    -4.307881  0.866128  5.245453
H    -3.716264  -0.541582  4.364390
H    -2.568424  0.712546  4.914249
