35
Energy: -21190.4069426 eV PBE+vdW (tier 2 basis)
C    -0.089773  0.946088  0.250326
C    0.058420  0.159513  1.538119
O    1.145911  -0.041945  2.070618
H    0.896828  1.321245  -0.032502
H    -0.784264  1.790178  0.361047
H    -0.473840  0.309574  -0.559780
N    -1.100429  -0.325424  2.109358
C    -2.461655  -0.237916  1.596180
C    -3.185537  1.087744  1.915072
O    -4.247626  1.360432  1.350481
H    -0.936328  -0.911563  2.923950
H    -2.422646  -0.269107  0.497213
C    -3.318860  -1.435227  2.092966
C    -3.868312  -2.331068  0.976387
C    -4.895544  -1.648422  0.053272
N    -6.022258  -1.024501  0.740548
C    -6.864479  -1.735124  1.580288
N    -7.199685  -3.010867  1.103010
N    -7.241294  -1.210655  2.698573
H    -4.153862  -1.067344  2.705023
H    -2.698808  -2.049733  2.762034
H    -4.344735  -3.207366  1.440272
H    -3.039058  -2.715806  0.359015
H    -5.252203  -2.384162  -0.683199
H    -4.420098  -0.846332  -0.528738
H    -5.785437  -0.111566  1.131974
H    -7.957522  -3.450517  1.613389
H    -7.329303  -3.074366  0.096488
H    -7.974956  -1.770784  3.142209
N    -2.591561  1.880112  2.838518
C    -3.159401  3.138225  3.282872
H    -1.703780  1.562678  3.213996
H    -4.129532  3.258572  2.789399
H    -2.512526  3.984654  3.012954
H    -3.307874  3.137231  4.370902
