35
Energy: -21190.0690696 eV PBE+vdW (tier 2 basis)
C    -0.658859  0.372161  -0.370538
C    -0.605269  0.706333  1.111257
O    -0.281529  1.814451  1.525141
H    0.314811  0.604430  -0.818949
H    -1.401788  1.021800  -0.850149
H    -0.912289  -0.673985  -0.584813
N    -0.940552  -0.319244  1.955683
C    -0.984642  -0.172021  3.404723
C    0.367102  0.148642  4.084736
O    0.392880  0.972075  4.993377
H    -1.195361  -1.215604  1.557990
H    -1.581108  0.721083  3.638164
C    -1.660206  -1.425365  3.996606
C    -1.757329  -1.505631  5.523961
C    -2.537971  -0.348190  6.174775
N    -3.109918  -0.651820  7.479889
C    -2.310177  -0.772704  8.603077
N    -3.059788  -1.138332  9.738297
N    -1.037739  -0.588369  8.536844
H    -1.124010  -2.319824  3.636595
H    -2.673429  -1.476941  3.561819
H    -0.760645  -1.556547  5.982178
H    -2.261030  -2.454089  5.769619
H    -3.376645  -0.046639  5.526755
H    -1.877309  0.519926  6.290788
H    -3.922783  -1.259415  7.476444
H    -2.523950  -1.102836  10.599167
H    -3.944811  -0.644824  9.831559
H    -0.615955  -0.572626  9.468432
N    1.501537  -0.524143  3.717186
C    1.725979  -1.511674  2.677011
H    2.314152  -0.193654  4.228118
H    1.767373  -1.071398  1.668993
H    0.956953  -2.294250  2.684574
H    2.685752  -2.003464  2.874744
