35
Energy: -21190.4163275 eV PBE+vdW (tier 2 basis)
C    0.487134  0.355304  0.234731
C    0.287975  0.246744  1.736076
O    1.230331  0.211773  2.518656
H    1.409566  -0.164311  -0.042703
H    0.605344  1.418847  -0.016456
H    -0.350797  -0.047993  -0.348559
N    -1.030061  0.186250  2.132772
C    -1.482082  0.467710  3.494651
C    -0.941561  1.854582  3.966686
O    -0.616412  2.705189  3.139320
H    -1.699202  0.414092  1.407152
H    -2.566457  0.638545  3.390556
C    -1.354060  -0.717718  4.471047
C    0.057120  -1.177683  4.871838
C    0.103638  -1.835843  6.254930
N    -0.134651  -0.861082  7.334077
C    -1.403565  -0.566476  7.802969
N    -2.162039  -1.677314  8.143748
N    -1.782519  0.674339  7.858995
H    -1.903134  -1.563803  4.030208
H    -1.925894  -0.444435  5.369719
H    0.751494  -0.326188  4.862068
H    0.458343  -1.873591  4.122046
H    1.089990  -2.294248  6.416255
H    -0.642230  -2.637619  6.342790
H    0.372382  0.009420  7.181698
H    -3.046399  -1.483926  8.597303
H    -1.658125  -2.464502  8.539234
H    -2.655713  0.785091  8.380552
N    -0.931617  2.091504  5.302195
C    -0.548191  3.396942  5.810760
H    -1.309561  1.442576  6.000913
H    -0.585129  3.354949  6.904588
H    -1.224151  4.187530  5.452585
H    0.467851  3.658326  5.486452
