35
Energy: -21190.2927185 eV PBE+vdW (tier 2 basis)
C    -0.593075  -0.736272  0.942937
C    -0.545800  -0.322437  2.399599
O    0.281499  -0.783208  3.179746
H    0.037018  -0.053383  0.356125
H    -1.597944  -0.725470  0.505365
H    -0.165468  -1.740059  0.864007
N    -1.476134  0.598486  2.850411
C    -2.426200  1.410392  2.085232
C    -3.585648  0.574370  1.476342
O    -4.175606  0.938505  0.461405
H    -1.280491  0.893154  3.803134
H    -2.917149  2.043025  2.843461
C    -1.785474  2.354591  1.047166
C    -2.583679  3.641205  0.821418
C    -1.926553  4.548039  -0.216254
N    -2.704347  5.760580  -0.404863
C    -2.237659  6.789891  -1.216941
N    -3.190260  7.800447  -1.388623
N    -1.089603  6.893327  -1.791780
H    -1.669498  1.827603  0.089903
H    -0.776307  2.605044  1.407754
H    -2.680958  4.195283  1.769388
H    -3.598622  3.375610  0.490143
H    -1.795221  3.990256  -1.164433
H    -0.920188  4.837074  0.126460
H    -3.708827  5.613887  -0.460847
H    -2.785013  8.595835  -1.873748
H    -3.672817  8.075951  -0.537330
H    -0.547063  6.030967  -1.707887
N    -3.913016  -0.537437  2.187022
C    -4.982426  -1.434401  1.795606
H    -3.306254  -0.783292  2.962053
H    -5.699144  -1.571746  2.616440
H    -4.591773  -2.418285  1.498609
H    -5.498269  -0.985585  0.940166
