35
Energy: -21190.1787275 eV PBE+vdW (tier 2 basis)
C    -0.442516  -0.377720  0.502967
C    -0.398658  -0.121660  1.992465
O    0.468089  -0.599464  2.720277
H    0.579834  -0.442121  0.117301
H    -1.003898  0.380289  -0.058732
H    -0.930876  -1.356556  0.375693
N    -1.418401  0.663137  2.475052
C    -1.799763  0.796053  3.880721
C    -0.629009  0.586052  4.878797
O    -0.676966  -0.277349  5.749949
H    -2.126291  0.942352  1.804461
H    -2.090517  1.852517  4.020919
C    -3.039655  -0.054966  4.253134
C    -3.186990  -1.442813  3.614793
C    -2.111289  -2.482296  3.965899
N    -2.443961  -3.830005  3.515750
C    -2.373565  -4.214657  2.197464
N    -2.803398  -5.543130  2.013530
N    -1.982239  -3.406020  1.266453
H    -3.929995  0.529322  3.971941
H    -3.050847  -0.140434  5.348572
H    -3.241649  -1.362300  2.519542
H    -4.164751  -1.837316  3.937221
H    -1.959328  -2.522479  5.052019
H    -1.144009  -2.214402  3.527274
H    -3.126831  -4.333235  4.071086
H    -2.628784  -5.896012  1.078559
H    -2.471374  -6.192889  2.722559
H    -1.867200  -3.911931  0.384593
N    0.359744  1.534300  4.883990
C    0.679621  2.503025  3.851927
H    1.105734  1.289623  5.528558
H    1.316590  3.282205  4.287491
H    -0.229639  2.990400  3.480551
H    1.206417  2.052124  2.996421
