35
Energy: -21189.9500734 eV PBE+vdW (tier 2 basis)
C    0.375481  0.346033  0.662401
C    -0.203758  -0.291496  1.912477
O    0.541802  -0.795450  2.752339
H    0.045542  -0.163973  -0.251706
H    1.462720  0.263309  0.739523
H    0.101108  1.404414  0.577524
N    -1.563628  -0.309849  2.139614
C    -2.790078  0.090390  1.435198
C    -3.732187  -1.125573  1.223521
O    -4.850883  -1.106333  1.740333
H    -1.749296  -0.763641  3.032131
H    -3.370892  0.698608  2.145511
C    -2.620254  0.927311  0.162340
C    -3.959483  1.252527  -0.504718
C    -3.802475  2.097434  -1.778992
N    -2.856228  1.573021  -2.773129
C    -2.911466  0.268058  -3.260444
N    -4.197965  -0.230236  -3.424032
N    -1.904055  -0.488255  -3.550566
H    -1.987979  0.401896  -0.562032
H    -2.099065  1.861239  0.425435
H    -4.619254  1.792153  0.192179
H    -4.482644  0.321257  -0.762077
H    -3.446472  3.107228  -1.529008
H    -4.789988  2.236885  -2.244141
H    -1.899537  1.876333  -2.627388
H    -4.198333  -1.097067  -3.951744
H    -4.899035  0.432922  -3.738328
H    -1.020139  -0.051235  -3.274451
N    -3.319209  -2.194237  0.484698
C    -2.093579  -2.408863  -0.273720
H    -4.040282  -2.905768  0.415171
H    -1.206650  -2.221912  0.341925
H    -2.045833  -1.802365  -1.190821
H    -2.064943  -3.461343  -0.575494
