35
Energy: -21190.3578063 eV PBE+vdW (tier 2 basis)
C    1.408813  1.778395  0.331742
C    0.227249  1.840698  1.277888
O    -0.237038  2.909900  1.680225
H    1.394906  2.655769  -0.321952
H    1.429813  0.866579  -0.278627
H    2.327582  1.807428  0.936846
N    -0.260745  0.624361  1.661513
C    -1.131468  0.341514  2.804257
C    -1.801931  1.600639  3.409733
O    -1.466986  2.057989  4.502279
H    0.237613  -0.183670  1.303286
H    -1.970047  -0.265510  2.421015
C    -0.420132  -0.541628  3.864947
C    1.076090  -0.337458  4.159456
C    1.487467  0.866731  5.019736
N    1.434940  2.147423  4.353070
C    2.512502  2.694750  3.713447
N    2.245970  3.967956  3.182129
N    3.649774  2.067602  3.675525
H    -0.542949  -1.581992  3.523314
H    -0.997291  -0.458141  4.797209
H    1.664391  -0.311117  3.229106
H    1.411212  -1.242931  4.690545
H    2.524629  0.716609  5.347187
H    0.846994  0.920754  5.912301
H    0.543972  2.631263  4.357597
H    2.958420  4.272292  2.527007
H    1.315091  4.053874  2.770850
H    4.350080  2.627207  3.183966
N    -2.920002  2.058395  2.771310
C    -3.285645  1.844444  1.381623
H    -3.279479  2.902424  3.209350
H    -4.334367  2.131724  1.244637
H    -3.196578  0.784553  1.114016
H    -2.659160  2.432053  0.693295
