35
Energy: -21190.4760243 eV PBE+vdW (tier 2 basis)
C    -0.015829  0.042901  -0.000902
C    -0.018214  0.058250  1.514958
O    1.039000  0.144756  2.153823
H    -1.016188  0.011831  -0.449224
H    0.551069  -0.833855  -0.338999
H    0.513135  0.933239  -0.361850
N    -1.243744  -0.026125  2.101711
C    -1.540075  -0.131616  3.540949
C    -1.287865  1.176792  4.336981
O    -2.205052  1.694117  4.976548
H    -2.044945  -0.044771  1.483502
H    -2.628574  -0.254556  3.600773
C    -0.880058  -1.362952  4.190209
C    -1.314945  -1.567410  5.641471
C    -0.651751  -2.800700  6.266899
N    -1.076320  -3.076999  7.630366
C    -2.258873  -3.750924  7.872821
N    -2.560071  -3.885880  9.235183
N    -2.931018  -4.265795  6.898687
H    0.213495  -1.272888  4.124961
H    -1.160850  -2.244248  3.591982
H    -2.406469  -1.691740  5.695965
H    -1.066200  -0.675547  6.238749
H    0.443308  -2.686129  6.268225
H    -0.895561  -3.694180  5.677667
H    -0.789417  -2.402658  8.330669
H    -3.550240  -3.968397  9.434865
H    -2.089514  -3.254609  9.876722
H    -3.707163  -4.831302  7.249118
N    -0.013005  1.638259  4.303475
C    0.390974  2.851296  4.984825
H    0.639024  1.155604  3.673736
H    1.271142  2.667619  5.616252
H    -0.441541  3.183327  5.614272
H    0.635582  3.652068  4.271063
