35
Energy: -21190.0725793 eV PBE+vdW (tier 2 basis)
C    0.308892  0.019908  -0.035711
C    0.042397  0.328535  1.428719
O    0.827275  0.973291  2.115377
H    1.180234  -0.644640  -0.099114
H    0.571087  0.952155  -0.549614
H    -0.534040  -0.453086  -0.555315
N    -1.145553  -0.151055  1.917183
C    -1.548753  -0.094118  3.324099
C    -1.224990  1.270331  3.991512
O    -0.593806  1.333476  5.038408
H    -1.710863  -0.723505  1.301778
H    -2.650300  -0.177974  3.318461
C    -0.978598  -1.264991  4.140319
C    -1.758314  -1.575256  5.419975
C    -1.283706  -2.880917  6.070943
N    -2.033984  -3.269980  7.257110
C    -1.690993  -2.761569  8.500351
N    -2.643921  -3.092822  9.482527
N    -0.625913  -2.056813  8.658611
H    0.070716  -1.042787  4.378589
H    -0.987072  -2.151043  3.483810
H    -2.834508  -1.663674  5.182251
H    -1.645670  -0.753128  6.138360
H    -0.236334  -2.780471  6.381938
H    -1.343030  -3.708334  5.345139
H    -3.032595  -3.393017  7.120453
H    -2.333560  -2.884298  10.425808
H    -3.002582  -4.042804  9.414342
H    -0.455612  -1.853905  9.645923
N    -1.778299  2.393525  3.433365
C    -2.486679  2.548564  2.177997
H    -1.467468  3.239308  3.901106
H    -3.065476  3.479451  2.216147
H    -3.198353  1.728366  2.022174
H    -1.814070  2.593170  1.306362
