35
Energy: -21190.2776389 eV PBE+vdW (tier 2 basis)
C    0.263132  -0.502392  0.512855
C    0.172877  -0.243959  2.009792
O    1.177208  -0.205477  2.716241
H    1.316832  -0.661947  0.270040
H    -0.104679  0.356152  -0.067656
H    -0.313360  -1.386135  0.209838
N    -1.073675  -0.055744  2.547946
C    -2.358009  0.025146  1.879119
C    -3.074061  1.294769  2.378187
O    -3.008723  1.639448  3.555081
H    -1.082249  0.200353  3.534455
H    -2.182308  0.099540  0.796308
C    -3.263022  -1.197339  2.160701
C    -2.700494  -2.517800  1.638738
C    -3.628975  -3.701356  1.945447
N    -3.110600  -4.993665  1.528707
C    -2.187324  -5.661159  2.315717
N    -1.736939  -6.864035  1.756801
N    -1.885015  -5.208256  3.484032
H    -4.253882  -1.003301  1.716118
H    -3.417183  -1.260283  3.249154
H    -1.724485  -2.717089  2.103109
H    -2.542303  -2.453839  0.547798
H    -4.608733  -3.556834  1.463871
H    -3.792842  -3.764910  3.029006
H    -3.061835  -5.159109  0.530177
H    -0.817272  -7.151278  2.070826
H    -1.861013  -6.988055  0.756645
H    -1.282399  -5.859589  3.990970
N    -3.802083  1.957737  1.434582
C    -4.603741  3.129311  1.738185
H    -3.779575  1.613723  0.482463
H    -4.475579  3.346118  2.803822
H    -5.668559  2.948384  1.535379
H    -4.271504  3.999132  1.155214
