35
Energy: -21190.1132425 eV PBE+vdW (tier 2 basis)
C    -1.107024  -0.061212  -0.236468
C    -0.964460  -0.587067  1.180640
O    -0.092575  -1.390841  1.491090
H    -0.871868  -0.867409  -0.938812
H    -0.366813  0.737885  -0.381508
H    -2.103100  0.341257  -0.461150
N    -1.904685  -0.096635  2.063660
C    -1.826482  -0.216253  3.512189
C    -0.745715  0.751564  4.071078
O    0.184203  1.175205  3.384433
H    -2.469749  0.669531  1.717024
H    -2.786946  0.169020  3.886969
C    -1.725999  -1.713840  3.970965
C    -0.759772  -2.047605  5.113673
C    0.733159  -1.928659  4.734134
N    1.519032  -1.363296  5.828844
C    2.698797  -0.631488  5.665926
N    2.830556  0.025370  4.457978
N    3.632295  -0.517480  6.557027
H    -1.434452  -2.299561  3.093363
H    -2.739124  -2.038020  4.247457
H    -0.980562  -3.073358  5.444926
H    -0.943557  -1.409308  5.990777
H    0.850335  -1.295131  3.850944
H    1.116574  -2.917952  4.427782
H    1.556587  -1.943013  6.661718
H    1.995372  0.410045  4.015466
H    3.621767  0.659336  4.468003
H    3.473107  -1.154585  7.342647
N    -0.940125  1.125550  5.363658
C    0.032650  1.902541  6.115606
H    -1.698633  0.692200  5.876716
H    -0.484784  2.588754  6.796525
H    0.629067  2.482350  5.404529
H    0.709296  1.253070  6.689470
