35
Energy: -21190.2179875 eV PBE+vdW (tier 2 basis)
C    0.446325  1.107688  0.236062
C    0.196345  0.234774  1.450574
O    1.024265  -0.584219  1.860000
H    1.522079  1.283458  0.139599
H    -0.076760  2.071327  0.285589
H    0.098996  0.576098  -0.661721
N    -1.009518  0.432823  2.055023
C    -1.624568  -0.386531  3.102727
C    -0.622171  -0.954681  4.134916
O    -0.590971  -2.149867  4.412220
H    -1.642882  1.068739  1.582870
H    -2.234116  0.328007  3.685213
C    -2.641618  -1.417866  2.551462
C    -2.210537  -2.806915  2.039434
C    -1.019572  -2.914306  1.093541
N    -1.190797  -2.102942  -0.111889
C    -0.250164  -2.078519  -1.134722
N    1.060235  -2.295608  -0.722760
N    -0.666997  -1.870128  -2.343448
H    -3.193688  -0.887977  1.758413
H    -3.375645  -1.592992  3.352466
H    -3.098473  -3.246435  1.552884
H    -1.979712  -3.441859  2.901634
H    -0.873883  -3.981105  0.842631
H    -0.117334  -2.587013  1.624208
H    -2.122471  -2.130258  -0.519976
H    1.753788  -2.073631  -1.427226
H    1.306536  -1.940666  0.202683
H    0.118689  -1.775294  -2.992136
N    0.124821  -0.053849  4.844408
C    0.294972  1.372254  4.640949
H    0.780534  -0.516751  5.466464
H    1.007175  1.605563  3.834070
H    0.667350  1.815273  5.572299
H    -0.662384  1.853730  4.408102
