35
Energy: -21189.9891271 eV PBE+vdW (tier 2 basis)
C    -0.193267  0.981720  -0.284734
C    -0.263662  1.024100  1.227541
O    0.630811  1.544097  1.890499
H    0.304018  1.895860  -0.623688
H    -1.157479  0.879187  -0.792237
H    0.425963  0.121057  -0.570304
N    -1.331688  0.441801  1.875803
C    -2.541122  -0.206017  1.387820
C    -2.243053  -1.216781  0.246276
O    -1.254712  -1.939581  0.292461
H    -1.209627  0.469581  2.883542
H    -2.845128  -0.884626  2.202606
C    -3.721165  0.781902  1.214874
C    -3.542856  1.931369  0.219937
C    -4.753142  2.863302  0.206639
N    -4.558182  3.938547  -0.763923
C    -5.479112  4.974961  -0.907733
N    -5.959254  5.484565  0.301099
N    -5.808454  5.346939  -2.096736
H    -3.904763  1.215195  2.211129
H    -4.638285  0.210787  0.987529
H    -3.375681  1.546541  -0.800040
H    -2.649831  2.518147  0.477002
H    -4.885160  3.297806  1.207330
H    -5.675477  2.285395  -0.003856
H    -4.312273  3.604317  -1.694061
H    -6.479091  6.349643  0.204619
H    -5.283397  5.524554  1.059416
H    -6.368614  6.203616  -2.082398
N    -3.176736  -1.291744  -0.746275
C    -3.082483  -2.251072  -1.831280
H    -3.968231  -0.662534  -0.722552
H    -3.034453  -1.743623  -2.804583
H    -3.939360  -2.938966  -1.830495
H    -2.162837  -2.826222  -1.682678
