35
Energy: -21190.3288149 eV PBE+vdW (tier 2 basis)
C    -0.567534  -0.815012  0.023964
C    -0.330696  -0.582942  1.505518
O    0.354622  -1.337933  2.189248
H    0.398877  -0.788641  -0.494957
H    -1.239999  -0.082443  -0.440023
H    -0.983045  -1.820895  -0.113917
N    -0.942435  0.525290  2.030320
C    -0.763758  0.933641  3.412230
C    -1.614550  0.216861  4.482903
O    -1.298419  0.379195  5.669600
H    -1.496669  1.113753  1.420112
H    0.256716  0.632354  3.693553
C    -0.869572  2.463838  3.538819
C    -2.250972  3.081918  3.216215
C    -2.990209  3.652725  4.438099
N    -3.323866  2.688617  5.469575
C    -4.455091  1.907488  5.368766
N    -4.605051  1.025013  6.443839
N    -5.295656  2.079235  4.398849
H    -0.100412  2.887275  2.877712
H    -0.563771  2.725359  4.561375
H    -2.920771  2.353082  2.733931
H    -2.129278  3.902425  2.493463
H    -3.932480  4.107710  4.109491
H    -2.376127  4.440418  4.901758
H    -2.544110  2.271760  5.971501
H    -5.221411  0.241469  6.264198
H    -3.752585  0.757568  6.930420
H    -6.132614  1.508240  4.537222
N    -2.658868  -0.591933  4.163045
C    -3.425191  -0.763855  2.935508
H    -3.063531  -0.997662  5.001073
H    -3.730433  0.198300  2.505717
H    -4.344126  -1.300274  3.197114
H    -2.887061  -1.358335  2.187008
