35
Energy: -21190.2215296 eV PBE+vdW (tier 2 basis)
C    1.019135  0.842842  2.307605
C    0.118072  -0.227568  2.905722
O    0.582341  -1.213083  3.475061
H    1.724794  1.175493  3.078231
H    0.476273  1.712815  1.919476
H    1.613671  0.394273  1.500316
N    -1.221248  0.017770  2.777265
C    -2.289065  -0.920082  3.132212
C    -1.917375  -1.906919  4.270419
O    -1.978977  -3.121567  4.105904
H    -1.487353  0.732467  2.096962
H    -3.107013  -0.302096  3.544787
C    -2.874181  -1.665208  1.919359
C    -1.885049  -2.407609  1.006596
C    -1.204336  -1.563638  -0.085457
N    -2.130995  -0.843844  -0.964912
C    -2.603931  0.440383  -0.753936
N    -1.707551  1.300412  -0.084558
N    -3.744595  0.923592  -1.111611
H    -3.461109  -0.946311  1.327033
H    -3.592416  -2.391367  2.321205
H    -2.433842  -3.221567  0.506179
H    -1.109872  -2.900377  1.609843
H    -0.586668  -2.224819  -0.711535
H    -0.518073  -0.833627  0.353239
H    -2.818052  -1.437165  -1.420581
H    -2.055690  2.253048  -0.174991
H    -0.749415  1.231764  -0.424365
H    -4.367266  0.193226  -1.468268
N    -1.701331  -1.373742  5.513065
C    -1.454601  0.010082  5.871272
H    -1.411692  -2.082385  6.180639
H    -1.660391  0.139772  6.940609
H    -2.126640  0.679727  5.322052
H    -0.416667  0.322022  5.673094
