35
Energy: -21190.4768762 eV PBE+vdW (tier 2 basis)
C    -1.325955  -1.233629  1.040188
C    -0.290215  -0.149060  1.276922
O    -0.140085  0.796155  0.502389
H    -1.369846  -1.983576  1.839402
H    -1.098240  -1.734977  0.090994
H    -2.311406  -0.764189  0.932206
N    0.455860  -0.293491  2.409971
C    1.554310  0.590197  2.740281
C    2.470269  -0.192242  3.698467
O    2.096573  -1.230154  4.248601
H    0.399891  -1.129688  2.988861
H    2.102270  0.823227  1.812061
C    1.085766  1.933085  3.352457
C    0.257296  1.778285  4.627781
C    -0.179803  3.114220  5.244739
N    -0.990214  3.951119  4.358300
C    -0.468001  4.954258  3.543723
N    0.603248  5.652975  4.110264
N    -0.876905  5.288566  2.368114
H    0.508881  2.450917  2.574570
H    1.965661  2.566328  3.548923
H    0.821719  1.220381  5.393238
H    -0.634684  1.168472  4.410712
H    0.705296  3.695342  5.532174
H    -0.747985  2.918162  6.167471
H    -1.758904  3.459661  3.911299
H    0.840567  6.449759  3.525799
H    0.472343  5.918671  5.083162
H    -1.541869  4.606511  1.992331
N    3.692995  0.364599  3.904413
C    4.676993  -0.197804  4.810532
H    3.928277  1.204967  3.389630
H    4.943230  0.517999  5.600510
H    5.589650  -0.491254  4.273676
H    4.234017  -1.087794  5.268837
