35
Energy: -21190.5453079 eV PBE+vdW (tier 2 basis)
C    -0.493668  -0.351887  0.120222
C    0.088542  0.047658  1.458758
O    1.210210  -0.345066  1.816807
H    0.124116  -1.148352  -0.302578
H    -0.487183  0.508112  -0.563829
H    -1.532169  -0.700939  0.206081
N    -0.642607  0.863265  2.262652
C    -1.994072  1.352631  2.102614
C    -2.166387  2.202521  0.822465
O    -1.340608  3.037729  0.471378
H    -0.205351  1.063322  3.176534
H    -2.707989  0.505380  2.069969
C    -2.365079  2.249249  3.305267
C    -2.323573  1.589829  4.702145
C    -1.058348  1.842095  5.539284
N    0.139484  1.183782  5.011376
C    0.377365  -0.163594  5.346431
N    1.547383  -0.630158  4.758218
N    -0.450848  -0.781739  6.115680
H    -3.380859  2.623956  3.114672
H    -1.705902  3.131234  3.274174
H    -2.488983  0.504389  4.633066
H    -3.166090  1.980521  5.291874
H    -1.245026  1.498609  6.567280
H    -0.847809  2.920662  5.568832
H    0.987388  1.742980  5.032618
H    1.715623  -1.616431  4.929361
H    1.638427  -0.404445  3.755161
H    -0.212981  -1.774578  6.181471
N    -3.335162  1.966986  0.155537
C    -3.729147  2.709856  -1.025845
H    -3.942468  1.233097  0.499921
H    -4.678769  3.239712  -0.867084
H    -3.832182  2.048461  -1.897551
H    -2.940981  3.443052  -1.228197
