35
Energy: -21190.12879 eV PBE+vdW (tier 2 basis)
C    -0.144027  0.543886  -0.311349
C    0.306053  -0.376891  0.806288
O    1.489283  -0.529393  1.101613
H    -0.763280  0.017450  -1.050822
H    0.747416  0.940755  -0.803077
H    -0.743750  1.379968  0.076300
N    -0.679163  -1.039888  1.498911
C    -2.116531  -0.901119  1.345565
C    -2.766939  0.426214  1.810951
O    -3.845647  0.741685  1.307357
H    -0.320635  -1.647321  2.230910
H    -2.360817  -0.918821  0.273411
C    -2.856939  -2.093217  1.982517
C    -2.796338  -2.164989  3.510690
C    -3.510891  -3.396851  4.088590
N    -2.972960  -4.690948  3.660709
C    -1.639513  -5.054850  3.858182
N    -1.092539  -4.586061  5.053170
N    -0.904463  -5.754927  3.064441
H    -2.434424  -3.008802  1.540851
H    -3.905921  -2.029201  1.659201
H    -3.263546  -1.267018  3.945186
H    -1.755135  -2.185065  3.868525
H    -4.572153  -3.388615  3.800443
H    -3.497255  -3.339756  5.186550
H    -3.322900  -5.010939  2.764140
H    -0.185160  -5.010784  5.221183
H    -1.704099  -4.638393  5.862922
H    -1.368625  -5.915508  2.166166
N    -2.176329  1.228248  2.746332
C    -0.979560  1.063910  3.565027
H    -2.734284  2.060008  2.915076
H    -0.945214  0.084719  4.056308
H    -1.012525  1.824497  4.353222
H    -0.050531  1.201744  2.996643
