35
Energy: -21190.2332255 eV PBE+vdW (tier 2 basis)
C    -0.481989  -0.462441  -0.580075
C    0.181890  0.305049  0.539193
O    1.406560  0.455705  0.551035
H    -0.271716  0.064351  -1.520526
H    -1.561658  -0.599968  -0.485653
H    0.003940  -1.444484  -0.638558
N    -0.561544  0.816739  1.586130
C    -1.983489  1.186501  1.668332
C    -2.944286  -0.004767  1.414660
O    -4.019961  0.140527  0.841830
H    0.047915  1.330715  2.220019
H    -2.138960  1.411074  2.737140
C    -2.403362  2.461385  0.907351
C    -2.085722  2.527545  -0.593524
C    -0.689095  3.085296  -0.906476
N    -0.259439  2.709785  -2.252903
C    1.068654  2.831964  -2.687608
N    2.026029  2.590436  -1.716073
N    1.440607  3.128472  -3.888784
H    -1.946802  3.324585  1.417941
H    -3.487295  2.548775  1.056869
H    -2.841051  3.161388  -1.081932
H    -2.199024  1.537158  -1.052335
H    0.050830  2.701069  -0.198403
H    -0.691508  4.183757  -0.765833
H    -0.908391  2.999501  -2.979681
H    2.954065  2.547225  -2.123887
H    1.850503  1.850084  -1.036233
H    0.643782  3.416268  -4.463681
N    -2.525543  -1.181336  1.957631
C    -3.276690  -2.414733  1.829072
H    -1.584573  -1.208563  2.335453
H    -3.363958  -2.917985  2.800608
H    -2.804577  -3.104359  1.113190
H    -4.277240  -2.161237  1.463658
