35
Energy: -21190.317894 eV PBE+vdW (tier 2 basis)
C    -0.092745  -0.337206  0.042450
C    -0.132486  0.111819  1.495875
O    0.887534  0.442124  2.096144
H    0.951532  -0.336055  -0.280228
H    -0.662739  0.348097  -0.602027
H    -0.509164  -1.344418  -0.095336
N    -1.356449  0.141541  2.110390
C    -2.655095  -0.157238  1.544449
C    -3.682365  0.686784  2.334898
O    -3.374593  1.194586  3.414267
H    -1.390054  0.564202  3.039412
H    -2.677458  0.151895  0.487536
C    -3.020674  -1.663277  1.615156
C    -3.310622  -2.172746  3.026042
C    -3.821791  -3.626062  3.060891
N    -4.913885  -3.942385  2.147305
C    -6.162746  -3.345539  2.224456
N    -6.946249  -3.593236  1.086119
N    -6.648215  -2.608994  3.164003
H    -2.190089  -2.231896  1.168669
H    -3.895765  -1.840992  0.974218
H    -4.047833  -1.513404  3.505271
H    -2.405277  -2.113002  3.648044
H    -4.134081  -3.878682  4.085679
H    -3.004559  -4.317462  2.811581
H    -4.629574  -4.198972  1.208286
H    -7.906101  -3.303699  1.254956
H    -6.904203  -4.550994  0.745782
H    -5.956560  -2.408822  3.888333
N    -4.936680  0.818677  1.825235
C    -5.513277  0.260048  0.613385
H    -5.568050  1.294920  2.463339
H    -6.277123  0.949255  0.233386
H    -5.983966  -0.719311  0.786980
H    -4.750606  0.156625  -0.166809
