35
Energy: -21190.2300489 eV PBE+vdW (tier 2 basis)
C    0.591692  0.253021  0.304642
C    0.288766  0.281067  1.790077
O    1.087844  0.718567  2.614753
H    1.598712  -0.153040  0.157838
H    0.590693  1.285796  -0.068474
H    -0.124249  -0.335333  -0.282573
N    -0.938641  -0.209338  2.148473
C    -1.467557  -0.114728  3.507804
C    -1.205772  1.309638  4.070928
O    -1.664551  2.283842  3.482428
H    -1.589313  -0.440920  1.409136
H    -2.562023  -0.115665  3.393213
C    -1.120409  -1.336481  4.387771
C    0.344809  -1.778477  4.458132
C    0.580121  -2.941592  5.434289
N    -0.167120  -4.163095  5.160735
C    0.192866  -5.000104  4.121240
N    -0.729365  -6.048279  3.944033
N    1.248905  -4.768458  3.419210
H    -1.710618  -2.179284  3.993178
H    -1.519022  -1.141968  5.398774
H    1.008604  -0.951371  4.753288
H    0.690518  -2.085822  3.462889
H    0.327609  -2.635394  6.461820
H    1.644584  -3.206919  5.418001
H    -1.158329  -4.144033  5.372063
H    -0.407418  -6.759645  3.296118
H    -1.067945  -6.463123  4.809333
H    1.443259  -5.541000  2.778202
N    -0.566808  1.393243  5.271741
C    -0.188895  2.686573  5.814771
H    -0.004991  0.595232  5.543878
H    0.002460  2.589811  6.889743
H    -1.012095  3.390451  5.654893
H    0.707410  3.091915  5.319745
