35
Energy: -21190.6004697 eV PBE+vdW (tier 2 basis)
C    -1.125303  0.150114  0.226823
C    -0.647001  0.084011  1.661070
O    0.551828  -0.109170  1.928173
H    -0.484403  0.842851  -0.330566
H    -2.172401  0.457631  0.120396
H    -1.003716  -0.844889  -0.222999
N    -1.604091  0.213442  2.611871
C    -1.445280  0.104031  4.074203
C    -0.762740  1.338953  4.718602
O    -1.308363  1.927009  5.651802
H    -2.541194  0.416841  2.287133
H    -2.468844  0.140309  4.467699
C    -0.788579  -1.196192  4.582424
C    -1.476554  -2.515896  4.208766
C    -1.210979  -3.056883  2.788521
N    0.190690  -3.129400  2.406381
C    0.999124  -4.132084  2.902501
N    2.355252  -3.921928  2.607595
N    0.502166  -5.110502  3.583333
H    -0.787748  -1.100009  5.678317
H    0.268444  -1.228074  4.286434
H    -2.567336  -2.431397  4.348987
H    -1.132218  -3.285006  4.913997
H    -1.727400  -2.451739  2.031140
H    -1.617018  -4.074655  2.727384
H    0.643535  -2.235163  2.227012
H    2.933672  -4.745045  2.734835
H    2.537800  -3.464890  1.717644
H    1.215393  -5.811749  3.794806
N    0.451777  1.660982  4.205097
C    1.244770  2.762604  4.712900
H    0.809477  1.080442  3.441856
H    2.184259  2.404305  5.158129
H    0.660441  3.273612  5.485355
H    1.486135  3.475883  3.912417
