35
Energy: -21190.6155086 eV PBE+vdW (tier 2 basis)
C    -1.510513  -4.923749  0.979461
C    -1.423349  -3.415749  1.124985
O    -1.356241  -2.643612  0.166572
H    -0.528556  -5.377784  1.175510
H    -1.801952  -5.162318  -0.047195
H    -2.236499  -5.354136  1.682845
N    -1.434913  -2.973498  2.414959
C    -1.358653  -1.577437  2.772427
C    -0.959248  -1.512723  4.258085
O    -0.612646  -2.513700  4.893745
H    -1.402073  -3.630599  3.189102
H    -0.514853  -1.125176  2.217346
C    -2.624280  -0.768824  2.351602
C    -3.985032  -1.459083  2.495517
C    -4.553673  -1.615433  3.912157
N    -3.769541  -2.465281  4.788525
C    -3.741727  -3.849172  4.698778
N    -2.884833  -4.411507  5.645781
N    -4.387034  -4.605523  3.874654
H    -2.487652  -0.538800  1.287335
H    -2.638832  0.200989  2.875888
H    -3.938889  -2.441870  2.006427
H    -4.716299  -0.873118  1.917378
H    -5.594677  -1.982051  3.838668
H    -4.611017  -0.630120  4.397098
H    -3.507739  -2.085863  5.689614
H    -2.805236  -5.415189  5.513576
H    -1.979077  -3.944633  5.712254
H    -5.070557  -4.073368  3.331160
N    -0.959985  -0.276632  4.818880
C    -0.499323  -0.047000  6.177231
H    -1.174807  0.522926  4.236832
H    0.598274  -0.068567  6.248709
H    -0.892695  -0.829067  6.836984
H    -0.860873  0.928666  6.519111
