35
Energy: -21190.1262153 eV PBE+vdW (tier 2 basis)
C    -0.657442  -0.771137  -0.075656
C    -0.618974  -0.139092  1.306924
O    0.446761  0.125544  1.859849
H    -0.172830  -1.754243  -0.021346
H    -0.063818  -0.152670  -0.759513
H    -1.665924  -0.896940  -0.488860
N    -1.852652  0.101002  1.854587
C    -2.214181  0.603587  3.186326
C    -2.779185  2.048661  3.169509
O    -3.912218  2.243260  3.615911
H    -2.647045  -0.143685  1.275266
H    -3.104429  0.028212  3.478603
C    -1.163227  0.379557  4.288015
C    -1.737230  0.662219  5.678916
C    -0.698487  0.441008  6.775549
N    -1.274734  0.694482  8.084635
C    -0.533542  0.496752  9.244164
N    -1.211955  0.934595  10.387690
N    0.644124  -0.012785  9.358637
H    -0.269220  0.989318  4.114865
H    -0.828555  -0.666677  4.227889
H    -2.610151  0.019048  5.870591
H    -2.104333  1.700334  5.729737
H    0.186346  1.079804  6.583814
H    -0.347400  -0.602897  6.748958
H    -1.910412  1.486547  8.125718
H    -0.710272  0.659660  11.227341
H    -2.192633  0.668896  10.424443
H    1.081887  -0.158470  8.446281
N    -2.023638  3.083294  2.705682
C    -0.723187  3.092904  2.056171
H    -2.533943  3.961962  2.735408
H    -0.814633  3.104010  0.958370
H    -0.128626  2.216702  2.331881
H    -0.172504  3.989772  2.366516
