35
Energy: -21190.6241305 eV PBE+vdW (tier 2 basis)
C    -2.013496  -1.352563  0.775533
C    -1.175789  -0.598823  1.785933
O    0.004022  -0.287202  1.555390
H    -1.500839  -2.288087  0.519741
H    -2.076557  -0.755173  -0.143052
H    -3.026387  -1.583131  1.126650
N    -1.797102  -0.297595  2.953601
C    -1.211176  0.549163  3.996660
C    -0.211731  -0.225500  4.904926
O    -0.388563  -0.374550  6.116878
H    -2.783972  -0.541742  3.067667
H    -0.611522  1.311573  3.471383
C    -2.317132  1.282181  4.773030
C    -3.196008  0.503872  5.778855
C    -3.736103  -0.861451  5.351883
N    -4.499183  -0.785383  4.100610
C    -5.006797  -1.902022  3.421465
N    -4.393005  -3.103654  3.741394
N    -5.877543  -1.872305  2.470823
H    -2.951306  1.771792  4.017505
H    -1.838920  2.096822  5.334250
H    -4.042912  1.155981  6.051387
H    -2.617632  0.333953  6.693535
H    -4.347113  -1.268918  6.178713
H    -2.891578  -1.549239  5.201525
H    -5.129880  0.009675  4.049395
H    -4.141543  -3.264267  4.710093
H    -4.854596  -3.890806  3.298058
H    -6.167124  -0.914979  2.254312
N    0.867630  -0.681995  4.225302
C    1.911184  -1.468192  4.850196
H    0.870409  -0.526618  3.208340
H    2.898007  -1.022270  4.664922
H    1.918173  -2.500142  4.468840
H    1.725083  -1.490404  5.929258
