35
Energy: -21190.588544 eV PBE+vdW (tier 2 basis)
C    -2.171868  -1.187724  0.147332
C    -1.740940  -0.624390  1.486747
O    -0.978849  0.348109  1.556939
H    -1.279308  -1.543079  -0.383260
H    -2.607279  -0.379001  -0.451760
H    -2.892115  -2.011593  0.218939
N    -2.251745  -1.253288  2.581653
C    -1.916816  -1.011568  3.994495
C    -2.429662  0.323033  4.585003
O    -2.967011  0.315526  5.704489
H    -2.905444  -2.006498  2.408835
H    -2.478166  -1.771788  4.552362
C    -0.412224  -1.210796  4.291168
C    -0.091939  -1.235988  5.800826
C    0.921366  -0.173302  6.248498
N    0.559935  1.204611  5.899034
C    -0.024181  2.083383  6.807026
N    -0.994415  1.502459  7.620595
N    0.387867  3.310358  6.816976
H    0.152113  -0.412234  3.792526
H    -0.110637  -2.155103  3.815950
H    0.313234  -2.219732  6.081167
H    -1.014120  -1.117356  6.385804
H    1.890150  -0.377559  5.769215
H    1.075103  -0.261642  7.335295
H    1.265701  1.705681  5.369313
H    -1.440197  2.173244  8.237840
H    -1.690602  0.941493  7.117003
H    -0.214397  3.891383  7.406788
N    -2.205055  1.427964  3.852201
C    -2.492340  2.764519  4.338498
H    -1.650718  1.306507  2.995448
H    -2.902876  3.376932  3.526099
H    -1.585442  3.249300  4.730738
H    -3.227695  2.693248  5.146614
