35
Energy: -21190.0846321 eV PBE+vdW (tier 2 basis)
C    -0.680999  0.125663  -0.159352
C    -0.375326  0.341389  1.313038
O    0.726867  0.704242  1.709123
H    -0.095095  -0.731771  -0.515220
H    -0.346045  1.005441  -0.721000
H    -1.741111  -0.058073  -0.374699
N    -1.425502  0.116641  2.166112
C    -1.314305  0.125080  3.625869
C    -0.458242  1.311619  4.150112
O    0.477148  1.131851  4.921415
H    -2.286652  -0.243674  1.772762
H    -2.340593  0.302183  3.994821
C    -0.816766  -1.221917  4.189160
C    -1.460824  -1.661268  5.510998
C    -1.115532  -0.818609  6.751815
N    -1.627693  -1.374193  7.995703
C    -1.012355  -2.445769  8.631900
N    -1.787817  -2.948903  9.687573
N    0.123449  -2.994053  8.370408
H    0.275837  -1.169820  4.289413
H    -1.037690  -1.988943  3.433405
H    -1.158617  -2.700418  5.709859
H    -2.559321  -1.686053  5.394012
H    -1.511165  0.202257  6.660155
H    -0.027910  -0.697464  6.841519
H    -2.638461  -1.361761  8.094135
H    -1.251626  -3.628983  10.219749
H    -2.183777  -2.231913  10.290857
H    0.538643  -2.620827  7.513925
N    -0.863675  2.577421  3.822819
C    -1.888887  3.009921  2.892574
H    -0.214730  3.281540  4.160458
H    -2.169631  4.041198  3.138222
H    -2.791918  2.394388  2.985513
H    -1.556201  2.980407  1.842943
