35
Energy: -21190.204063 eV PBE+vdW (tier 2 basis)
C    0.125144  -1.607856  1.328517
C    -0.356560  -0.469922  2.211456
O    0.261000  -0.108975  3.208456
H    0.057592  -2.543291  1.899147
H    1.182936  -1.446649  1.090759
H    -0.441455  -1.722239  0.395964
N    -1.520269  0.129636  1.804468
C    -2.256268  1.143947  2.564452
C    -1.340042  2.126852  3.338456
O    -1.497795  2.344159  4.539710
H    -1.995803  -0.265028  1.001471
H    -2.763475  1.769236  1.808346
C    -3.345551  0.547600  3.466816
C    -2.860222  -0.469385  4.501401
C    -3.919921  -0.792247  5.564326
N    -4.550517  0.375750  6.198102
C    -3.980392  1.061467  7.281401
N    -2.616910  1.266416  7.173492
N    -4.622365  1.496011  8.317037
H    -4.110274  0.088155  2.817561
H    -3.841394  1.378418  3.987873
H    -1.948464  -0.105614  4.987163
H    -2.584371  -1.417657  4.013837
H    -3.467352  -1.455842  6.320907
H    -4.741404  -1.353412  5.093864
H    -5.547565  0.256637  6.335735
H    -2.275723  1.841696  7.936954
H    -2.266888  1.565701  6.260574
H    -5.580153  1.133586  8.334315
N    -0.454790  2.871506  2.615463
C    -0.069057  2.747792  1.223028
H    0.125945  3.454975  3.210118
H    0.378849  3.694896  0.899952
H    -0.943404  2.563593  0.587430
H    0.661248  1.940900  1.054589
