35
Energy: -21190.2596511 eV PBE+vdW (tier 2 basis)
C    0.376575  0.850475  0.511005
C    0.115257  0.001212  1.741510
O    0.817506  -0.962599  2.033879
H    1.195164  0.390689  -0.048195
H    0.670419  1.871016  0.796587
H    -0.505113  0.932265  -0.138423
N    -0.946129  0.360494  2.542695
C    -1.799776  1.542435  2.412406
C    -2.313228  1.981686  3.794760
O    -2.275115  3.163286  4.138104
H    -0.965239  -0.148972  3.421651
H    -1.189639  2.391585  2.073560
C    -2.957186  1.335505  1.392341
C    -3.393574  2.606739  0.650942
C    -4.344325  3.552117  1.401426
N    -5.645501  2.958268  1.654909
C    -6.121387  2.590225  2.903576
N    -7.295177  1.823580  2.813594
N    -5.630292  2.840194  4.066649
H    -3.822036  0.865852  1.887082
H    -2.602912  0.601984  0.655631
H    -3.882247  2.310195  -0.292040
H    -2.501008  3.180769  0.352617
H    -4.470246  4.470654  0.805792
H    -3.906241  3.864458  2.357375
H    -6.047690  2.444588  0.877468
H    -7.717077  1.728108  3.733371
H    -7.969890  2.166663  2.133882
H    -4.729252  3.322081  4.021646
N    -2.800059  0.987023  4.586770
C    -3.384875  1.249337  5.895211
H    -3.001587  0.089807  4.158151
H    -3.255733  0.366610  6.531996
H    -4.450957  1.505726  5.807780
H    -2.859695  2.099223  6.342698
