35
Energy: -21190.252407 eV PBE+vdW (tier 2 basis)
C    -1.538849  1.169933  0.579758
C    -1.191218  -0.101170  1.328768
O    -0.041486  -0.532173  1.392183
H    -0.993536  2.005624  1.035867
H    -2.610526  1.404450  0.576568
H    -1.187887  1.077935  -0.455295
N    -2.249828  -0.744659  1.917023
C    -2.083455  -1.933401  2.744715
C    -3.012961  -3.067151  2.258424
O    -3.916815  -3.520182  2.961920
H    -3.170079  -0.325779  1.852981
H    -1.040244  -2.240253  2.571782
C    -2.240957  -1.645136  4.246543
C    -3.528752  -0.925220  4.654799
C    -3.618863  -0.730468  6.167687
N    -4.858760  -0.057879  6.522369
C    -5.134009  0.531127  7.748091
N    -4.040053  0.632025  8.608502
N    -6.260717  1.048519  8.110176
H    -1.369484  -1.046173  4.553547
H    -2.174493  -2.606547  4.776433
H    -4.392978  -1.512394  4.309887
H    -3.584874  0.067927  4.181709
H    -2.779747  -0.106360  6.509691
H    -3.520258  -1.717601  6.663462
H    -5.682518  -0.363669  6.017193
H    -4.336447  0.988639  9.512129
H    -3.450382  -0.190975  8.687205
H    -6.939576  1.034102  7.344096
N    -2.783126  -3.559855  1.005884
C    -1.775430  -3.175345  0.031350
H    -3.453956  -4.273884  0.737803
H    -1.507921  -4.052839  -0.569375
H    -0.864753  -2.812984  0.521102
H    -2.131648  -2.383787  -0.646393
