35
Energy: -21190.2409603 eV PBE+vdW (tier 2 basis)
C    -1.039644  0.040809  -1.093998
C    -0.588798  -0.126776  0.342569
O    0.601951  0.004473  0.654392
H    -1.840287  -0.654883  -1.379211
H    -0.170534  -0.120651  -1.738093
H    -1.408514  1.063289  -1.250770
N    -1.516967  -0.432124  1.297297
C    -2.961127  -0.550171  1.206738
C    -3.590692  0.585880  0.374649
O    -3.244989  1.756457  0.513129
H    -1.086461  -0.711113  2.186529
H    -3.237128  -1.532866  0.786459
C    -3.604564  -0.410887  2.611449
C    -3.033795  -1.315883  3.723215
C    -2.427202  -0.543623  4.917979
N    -1.431953  0.470634  4.589163
C    -0.229601  0.112619  4.007676
N    0.572867  1.165220  3.579097
N    0.070180  -1.144297  3.894706
H    -4.683261  -0.587906  2.491316
H    -3.501108  0.648539  2.890027
H    -2.262315  -1.991937  3.332472
H    -3.828101  -1.962489  4.123301
H    -1.958638  -1.267559  5.597697
H    -3.223602  -0.030726  5.476369
H    -1.795054  1.377573  4.320804
H    1.014011  0.955321  2.680491
H    0.133889  2.081967  3.569069
H    1.012564  -1.245827  3.510491
N    -4.604388  0.239382  -0.473804
C    -5.137017  -1.082588  -0.764067
H    -5.025095  1.037303  -0.939019
H    -5.931479  -0.974860  -1.510248
H    -5.576295  -1.562773  0.122602
H    -4.374637  -1.753904  -1.185388
