35
Energy: -21190.2792696 eV PBE+vdW (tier 2 basis)
C    -1.321443  0.102885  0.895750
C    -0.570398  0.210246  2.207044
O    0.656102  0.153433  2.277282
H    -1.492415  -0.966446  0.695365
H    -0.698505  0.511551  0.094094
H    -2.292607  0.614258  0.905788
N    -1.369671  0.355353  3.314983
C    -0.932986  0.303847  4.714575
C    0.268318  1.228906  5.036062
O    1.059745  0.946460  5.930972
H    -2.369783  0.296725  3.159507
H    -1.766514  0.768414  5.268803
C    -0.782611  -1.102491  5.327518
C    0.399687  -1.997719  4.923850
C    0.271511  -2.773225  3.608662
N    -0.955075  -3.556991  3.548863
C    -1.624340  -3.951265  2.406391
N    -1.117740  -3.429230  1.210106
N    -2.690135  -4.681188  2.351520
H    -1.728998  -1.636647  5.148538
H    -0.717610  -0.939608  6.411647
H    0.544229  -2.726161  5.739288
H    1.323804  -1.407354  4.887015
H    1.168815  -3.412271  3.500599
H    0.280817  -2.073532  2.767811
H    -1.186407  -4.099828  4.372904
H    -1.571666  -3.883119  0.422275
H    -0.105315  -3.424176  1.122356
H    -3.038055  -4.902158  3.288639
N    0.283640  2.413102  4.363607
C    1.390055  3.342873  4.488960
H    -0.307514  2.481317  3.543519
H    1.031086  4.371769  4.364618
H    2.177258  3.143176  3.745381
H    1.822545  3.229004  5.488191
