35
Energy: -21190.017457 eV PBE+vdW (tier 2 basis)
C    0.213803  -1.032852  0.057175
C    0.365145  -0.756126  1.532558
O    1.468458  -0.565449  2.052210
H    1.033507  -0.530429  -0.465148
H    -0.746863  -0.709310  -0.360603
H    0.328345  -2.117750  -0.107545
N    -0.761540  -0.740183  2.326152
C    -2.058973  -1.332427  2.013189
C    -3.267773  -0.722777  2.752632
O    -4.347716  -0.697371  2.163630
H    -0.502041  -0.642393  3.301828
H    -2.286088  -1.070370  0.972904
C    -2.100553  -2.880820  2.076706
C    -1.728315  -3.584536  3.389229
C    -0.235113  -3.586862  3.801294
N    0.739489  -3.795954  2.734455
C    0.654018  -4.796488  1.784031
N    0.168423  -6.010764  2.278243
N    0.979205  -4.534427  0.560497
H    -1.454819  -3.259573  1.271944
H    -3.125124  -3.171929  1.803655
H    -2.044059  -4.631401  3.279518
H    -2.317159  -3.186850  4.232562
H    -0.105066  -4.342714  4.594346
H    0.052652  -2.635256  4.267034
H    1.160131  -2.951804  2.355342
H    0.464315  -6.251979  3.220232
H    0.253834  -6.787442  1.632702
H    1.023395  -5.385222  -0.006359
N    -3.190057  -0.260273  4.040611
C    -2.094027  -0.190637  4.993526
H    -4.085010  0.111206  4.344996
H    -2.517478  0.003867  5.984948
H    -1.383096  0.620123  4.771246
H    -1.550675  -1.142131  5.067980
