35
Energy: -21190.3203074 eV PBE+vdW (tier 2 basis)
C    -0.165297  0.931360  -1.664857
C    0.072277  1.181192  -0.191153
O    1.112964  1.708383  0.219099
H    -0.973415  1.563740  -2.058256
H    -0.417804  -0.118808  -1.855845
H    0.754966  1.183583  -2.197975
N    -0.883025  0.779802  0.705339
C    -2.301963  0.502709  0.483670
C    -2.489161  -0.710835  -0.466248
O    -1.959023  -1.786158  -0.207722
H    -0.595824  0.946387  1.664553
H    -2.666742  0.110612  1.445763
C    -3.100949  1.781847  0.156703
C    -3.017147  2.858360  1.261742
C    -2.580547  4.241375  0.753569
N    -1.251278  4.259023  0.186432
C    -0.941751  4.352235  -1.159511
N    0.428581  4.310208  -1.390453
N    -1.753778  4.488234  -2.160171
H    -4.155585  1.512341  -0.001657
H    -2.730376  2.208378  -0.788213
H    -2.305721  2.546881  2.042035
H    -3.989071  2.961821  1.766940
H    -2.633350  4.967055  1.580594
H    -3.288055  4.603147  -0.006660
H    -0.467099  4.243640  0.827656
H    0.630047  4.278140  -2.384465
H    0.948845  3.613008  -0.854524
H    -2.715378  4.648277  -1.852196
N    -3.290978  -0.510071  -1.549468
C    -3.529477  -1.546716  -2.536553
H    -3.605556  0.430932  -1.751155
H    -4.589744  -1.571874  -2.817682
H    -3.246781  -2.505805  -2.090865
H    -2.924338  -1.390542  -3.442350
