35
Energy: -21190.3184106 eV PBE+vdW (tier 2 basis)
C    -0.099748  -1.276829  1.829805
C    -0.336824  0.086769  2.438274
O    0.603841  0.766252  2.871985
H    0.978710  -1.420164  1.726141
H    -0.584930  -1.397607  0.853046
H    -0.504264  -2.061851  2.484200
N    -1.622033  0.545900  2.564775
C    -2.782434  0.222789  1.727926
C    -3.146758  -1.278847  1.737734
O    -3.238337  -1.934748  0.702053
H    -1.660905  1.520604  2.890653
H    -3.627948  0.737134  2.219333
C    -2.668274  0.770527  0.298122
C    -2.731211  2.299974  0.155124
C    -1.629661  3.144996  0.814157
N    -1.922185  3.420305  2.238161
C    -1.000080  4.187357  3.004890
N    0.298111  3.740009  2.919252
N    -1.308690  5.201444  3.740150
H    -3.479285  0.326851  -0.295116
H    -1.737382  0.395312  -0.153426
H    -3.715232  2.664942  0.500189
H    -2.706819  2.520952  -0.922234
H    -1.522782  4.094155  0.260396
H    -0.659809  2.635884  0.748297
H    -2.849303  3.832183  2.334673
H    0.911320  4.233128  3.559543
H    0.451389  2.723747  2.892722
H    -2.277748  5.493425  3.585279
N    -3.391676  -1.844337  2.956768
C    -3.369680  -1.235539  4.277522
H    -3.613736  -2.832917  2.892765
H    -2.352168  -1.140640  4.682087
H    -3.963399  -1.858881  4.955788
H    -3.823036  -0.236415  4.263807
