35
Energy: -21190.3895596 eV PBE+vdW (tier 2 basis)
C    -0.006362  0.181202  0.081090
C    0.088898  0.012039  1.580034
O    1.168524  -0.212741  2.145337
H    -0.809540  -0.428989  -0.353785
H    0.952579  -0.101161  -0.360495
H    -0.225370  1.226998  -0.176230
N    -1.053493  0.142234  2.317944
C    -2.427975  0.225580  1.847853
C    -2.770009  1.455707  0.975842
O    -3.449129  1.297322  -0.037699
H    -0.941782  -0.132947  3.306800
H    -2.661129  -0.619990  1.179723
C    -3.411332  0.163932  3.035958
C    -3.398308  -1.135623  3.871480
C    -2.568287  -1.100759  5.167036
N    -1.123615  -1.088602  4.949593
C    -0.437030  -2.304581  4.678478
N    0.912249  -2.079498  4.473460
N    -0.941932  -3.485748  4.616728
H    -4.412188  0.297656  2.603673
H    -3.246129  1.029462  3.697721
H    -3.075132  -1.984028  3.249408
H    -4.432775  -1.361550  4.169354
H    -2.867140  -1.949368  5.808745
H    -2.816339  -0.189882  5.730577
H    -0.602544  -0.506307  5.600767
H    1.391447  -2.939645  4.223151
H    1.133198  -1.309863  3.827399
H    -1.915325  -3.504416  4.929614
N    -2.322909  2.699940  1.329701
C    -1.720660  3.166183  2.569902
H    -2.670075  3.411729  0.692136
H    -1.136052  4.070219  2.361409
H    -1.040625  2.411360  2.973238
H    -2.474531  3.413832  3.334911
