35
Energy: -21190.3445483 eV PBE+vdW (tier 2 basis)
C    -0.026568  -0.195758  0.067670
C    0.146137  0.240766  1.515228
O    1.258011  0.464394  1.988948
H    0.970929  -0.289942  -0.369248
H    -0.594562  0.547697  -0.510379
H    -0.548858  -1.157536  -0.018224
N    -0.984045  0.373066  2.279022
C    -2.375508  0.260504  1.884592
C    -3.112611  1.515658  2.393540
O    -2.773728  2.075189  3.432886
H    -0.834784  0.788655  3.198283
H    -2.427545  0.223529  0.786541
C    -3.068366  -0.992471  2.470556
C    -2.445590  -2.308083  2.005329
C    -3.097763  -3.560918  2.606653
N    -4.475959  -3.789961  2.198505
C    -5.548426  -3.401452  2.977629
N    -6.777656  -3.624968  2.328482
N    -5.373035  -2.869558  4.138349
H    -4.135311  -0.962641  2.202414
H    -3.035191  -0.930740  3.568111
H    -1.377566  -2.324592  2.273364
H    -2.486818  -2.374892  0.902999
H    -3.108317  -3.495367  3.701861
H    -2.502637  -4.444167  2.328126
H    -4.654193  -3.838802  1.201486
H    -7.578234  -3.503764  2.940112
H    -6.833009  -4.506955  1.823492
H    -6.260997  -2.746391  4.628934
N    -4.170447  1.913453  1.631117
C    -5.050878  3.001743  2.014696
H    -4.383750  1.385337  0.793715
H    -6.064691  2.639221  2.237191
H    -5.107736  3.760289  1.222507
H    -4.632372  3.458957  2.917322
