35
Energy: -21190.2463173 eV PBE+vdW (tier 2 basis)
C    0.225902  -0.244996  0.159020
C    0.178260  -0.000513  1.659266
O    1.201033  0.128431  2.326537
H    1.276127  -0.288112  -0.140346
H    -0.267748  0.566329  -0.395563
H    -0.264584  -1.186380  -0.123663
N    -1.059762  0.081141  2.244202
C    -2.363260  -0.000742  1.620986
C    -3.330219  0.822303  2.501323
O    -3.067438  1.079382  3.673899
H    -1.075925  0.355339  3.227263
H    -2.326623  0.457953  0.619747
C    -2.878830  -1.456596  1.463862
C    -3.110206  -2.184437  2.787582
C    -3.456582  -3.658695  2.584001
N    -3.704652  -4.307425  3.859125
C    -4.339212  -5.525829  4.040925
N    -4.850832  -6.095138  2.871792
N    -4.552844  -6.117851  5.167833
H    -2.140085  -2.006232  0.860468
H    -3.809515  -1.444685  0.873256
H    -3.920973  -1.703116  3.354644
H    -2.202143  -2.103757  3.406649
H    -2.636171  -4.145753  2.017018
H    -4.367853  -3.745057  1.972690
H    -3.140081  -3.999778  4.641735
H    -5.221462  -7.019943  3.070859
H    -4.231538  -6.093000  2.066312
H    -4.258865  -5.536613  5.957498
N    -4.490110  1.187290  1.891136
C    -5.553203  1.899783  2.578147
H    -4.610293  0.962773  0.910663
H    -5.732328  2.882128  2.120358
H    -5.236342  2.044918  3.615767
H    -6.488120  1.323184  2.565628
