35
Energy: -21190.1673477 eV PBE+vdW (tier 2 basis)
C    0.032105  1.624333  1.344128
C    -0.331148  0.879751  2.612574
O    0.241130  1.071517  3.683305
H    -0.772012  2.312915  1.047795
H    0.198857  0.943577  0.498421
H    0.940544  2.200469  1.536438
N    -1.348778  -0.042774  2.524582
C    -2.233215  -0.296715  1.398807
C    -3.145143  0.885144  0.986620
O    -3.330862  1.103345  -0.212999
H    -1.556011  -0.497569  3.409714
H    -1.629793  -0.454517  0.492452
C    -3.016996  -1.602446  1.652664
C    -4.017665  -1.964506  0.544733
C    -5.417916  -1.386301  0.783682
N    -6.164147  -1.306187  -0.461107
C    -7.546457  -1.213013  -0.427186
N    -8.087249  -0.942070  -1.693471
N    -8.193637  -1.342142  0.680952
H    -3.539291  -1.540144  2.622331
H    -2.265604  -2.397810  1.761033
H    -4.091790  -3.056811  0.454581
H    -3.630636  -1.601692  -0.419411
H    -5.354553  -0.394952  1.266132
H    -5.996134  -2.018323  1.468878
H    -5.723134  -0.720103  -1.166082
H    -9.093886  -1.055244  -1.741840
H    -7.616768  -1.405268  -2.467017
H    -9.202925  -1.364459  0.515981
N    -3.719327  1.674466  1.939794
C    -3.768673  1.518764  3.388127
H    -4.287921  2.410287  1.531972
H    -2.830328  1.813873  3.876321
H    -4.014222  0.489520  3.680267
H    -4.571107  2.160346  3.768033
