35
Energy: -21190.3318085 eV PBE+vdW (tier 2 basis)
C    -0.681828  2.267030  0.925188
C    -0.612879  1.371810  2.140246
O    0.416873  1.247544  2.813286
H    -0.573015  3.307290  1.263626
H    -1.615478  2.169229  0.358291
H    0.167300  2.041653  0.269283
N    -1.768403  0.723725  2.471652
C    -1.902237  -0.093399  3.679694
C    -3.107311  -1.029878  3.465692
O    -4.191917  -0.829817  4.008447
H    -2.610944  0.956608  1.958601
H    -0.981162  -0.692548  3.743179
C    -2.020177  0.701578  4.998368
C    -2.917381  1.958600  4.973830
C    -2.173525  3.253816  5.314328
N    -1.097237  3.494942  4.372680
C    -0.471067  4.722275  4.225717
N    0.615862  4.664732  3.346855
N    -0.820241  5.865475  4.711849
H    -0.997798  0.972361  5.298302
H    -2.380444  -0.001525  5.760179
H    -3.746131  1.833557  5.681777
H    -3.383681  2.079141  3.986388
H    -1.806931  3.218180  6.359714
H    -2.881426  4.093780  5.256618
H    -0.511816  2.690129  4.161784
H    1.137317  3.791972  3.328676
H    1.203329  5.488046  3.424949
H    -1.654605  5.785312  5.295680
N    -2.916131  -2.078580  2.610456
C    -1.674209  -2.510054  1.986026
H    -3.732666  -2.674865  2.516877
H    -1.913118  -3.245236  1.210000
H    -0.984342  -2.982774  2.702213
H    -1.159466  -1.670316  1.503550
