35
Energy: -21189.979977 eV PBE+vdW (tier 2 basis)
C    -0.111824  0.000262  0.005437
C    -0.042892  0.058112  1.524265
O    1.030644  0.180727  2.110303
H    0.447894  -0.880445  -0.334031
H    0.394208  0.884158  -0.401511
H    -1.129357  -0.049600  -0.401927
N    -1.257443  -0.020636  2.150600
C    -1.593382  -0.132219  3.579186
C    -2.193156  1.142514  4.218271
O    -3.123404  1.003266  5.014630
H    -2.057699  -0.104535  1.535135
H    -2.469387  -0.794775  3.589117
C    -0.547214  -0.842291  4.479454
C    0.557064  -0.034420  5.176822
C    0.119679  0.634470  6.488785
N    1.212241  1.288153  7.200531
C    2.092906  0.546280  7.967496
N    3.167978  1.324413  8.435855
N    1.904374  -0.713157  8.169522
H    -0.090702  -1.629725  3.865421
H    -1.130607  -1.361290  5.254982
H    0.993454  0.700388  4.488244
H    1.367962  -0.732973  5.426095
H    -0.291699  -0.122372  7.168652
H    -0.662749  1.386386  6.322928
H    1.636590  2.076971  6.722881
H    2.906738  2.257873  8.745319
H    3.733555  0.849587  9.131559
H    2.570405  -1.080259  8.852990
N    -1.720137  2.386482  3.916674
C    -0.609850  2.820238  3.084068
H    -2.255782  3.108382  4.390237
H    -0.202201  3.748853  3.502233
H    -0.920566  3.018565  2.046090
H    0.195642  2.079495  3.067520
