35
Energy: -21190.4720337 eV PBE+vdW (tier 2 basis)
C    -1.430848  -1.528545  0.782312
C    -0.968243  -0.479645  1.776040
O    -0.008530  0.259480  1.555113
H    -2.290078  -2.115453  1.128970
H    -0.594189  -2.205507  0.570193
H    -1.694293  -1.030532  -0.159129
N    -1.696482  -0.401843  2.927608
C    -1.329272  0.491160  4.006577
C    -1.891089  -0.118894  5.296962
O    -2.795301  -0.962066  5.272262
H    -2.412139  -1.087129  3.159698
H    -0.228714  0.500173  4.063220
C    -1.771801  1.965737  3.769083
C    -3.151193  2.183607  3.141865
C    -4.355407  1.639196  3.931326
N    -4.309312  1.909424  5.358920
C    -4.615151  3.142119  5.908073
N    -4.550407  3.131072  7.308332
N    -4.943628  4.230306  5.300263
H    -1.022684  2.412858  3.102365
H    -1.716858  2.513632  4.719611
H    -3.180785  1.734931  2.137929
H    -3.263903  3.267538  2.994084
H    -4.401745  0.548571  3.831211
H    -5.285989  2.033637  3.484344
H    -4.451684  1.106748  5.961462
H    -4.650397  4.071803  7.678757
H    -3.740427  2.651180  7.691521
H    -5.090888  4.071968  4.300819
N    -1.351193  0.287420  6.478520
C    -0.309569  1.270792  6.720993
H    -1.792313  -0.145566  7.284371
H    0.220845  1.008397  7.643753
H    -0.710217  2.291118  6.825236
H    0.423145  1.273267  5.906203
