35
Energy: -21190.6208297 eV PBE+vdW (tier 2 basis)
C    0.947984  0.479442  0.682972
C    0.389388  0.576200  2.087025
O    1.066947  0.988824  3.033539
H    1.309723  1.469753  0.380192
H    0.222192  0.122189  -0.057683
H    1.812646  -0.195863  0.692383
N    -0.911647  0.190303  2.239270
C    -1.581482  0.220458  3.541044
C    -1.251949  -1.092682  4.295914
O    -2.001656  -2.077142  4.268679
H    -1.391849  -0.250696  1.462799
H    -1.124611  1.059042  4.085855
C    -3.081119  0.471205  3.375948
C    -3.796571  1.007063  4.638985
C    -4.736445  0.018175  5.351850
N    -4.100147  -1.078564  6.072877
C    -3.368898  -0.894495  7.241619
N    -3.732155  0.218553  8.006631
N    -2.408574  -1.649658  7.660271
H    -3.560686  -0.458247  3.029734
H    -3.188912  1.207002  2.566575
H    -4.403821  1.878715  4.351736
H    -3.063365  1.382461  5.369125
H    -5.418490  -0.435084  4.615928
H    -5.379550  0.581540  6.042507
H    -3.640413  -1.747067  5.453233
H    -3.306383  0.160046  8.927299
H    -4.729716  0.403654  8.058661
H    -2.187421  -2.359547  6.956919
N    -0.059998  -1.056494  4.927531
C    0.500096  -2.184367  5.648378
H    0.513502  -0.228082  4.770200
H    0.395675  -2.048320  6.734252
H    1.562099  -2.297997  5.398143
H    -0.039394  -3.091320  5.354612
