35
Energy: -21190.1738319 eV PBE+vdW (tier 2 basis)
C    0.168541  -0.002621  0.779848
C    -0.076963  -0.123006  2.272467
O    0.819527  -0.457456  3.054753
H    -0.346830  0.858625  0.334251
H    -0.182963  -0.907171  0.262548
H    1.245571  0.087696  0.613672
N    -1.327433  0.164293  2.731412
C    -2.574275  0.198760  2.001031
C    -3.621721  0.747605  2.990725
O    -3.461670  0.667439  4.204994
H    -1.472542  -0.016892  3.727715
H    -2.485666  0.906229  1.162784
C    -3.054228  -1.177409  1.409757
C    -2.488035  -2.478290  2.005249
C    -2.757852  -2.797522  3.485112
N    -1.711859  -2.268638  4.340698
C    -1.856592  -2.242125  5.714509
N    -0.678656  -1.835064  6.354740
N    -2.969495  -2.593456  6.263210
H    -2.817952  -1.178724  0.335354
H    -4.152301  -1.216767  1.475078
H    -1.403632  -2.539306  1.818140
H    -2.923838  -3.290881  1.404915
H    -2.850809  -3.892038  3.605512
H    -3.711752  -2.374971  3.829090
H    -0.758792  -2.383525  4.006744
H    -0.094135  -1.189169  5.826714
H    -0.808528  -1.542785  7.316375
H    -2.951389  -2.420625  7.271059
N    -4.753057  1.290447  2.450843
C    -5.027960  1.593142  1.055265
H    -5.414279  1.611903  3.150210
H    -5.050230  0.690910  0.428086
H    -4.298157  2.298349  0.629160
H    -6.016228  2.060428  0.994360
