35
Energy: -21190.2460898 eV PBE+vdW (tier 2 basis)
C    -0.814380  -0.278959  -0.106510
C    -0.434644  -0.075857  1.350313
O    0.703600  -0.264954  1.768505
H    -0.515031  -1.289123  -0.410918
H    -0.243280  0.429382  -0.719916
H    -1.883582  -0.143115  -0.312354
N    -1.451302  0.331453  2.171164
C    -1.264079  0.600269  3.591574
C    -0.678465  -0.581326  4.396505
O    0.187764  -0.358141  5.239698
H    -2.383334  0.432843  1.786773
H    -0.487270  1.370925  3.706664
C    -2.598396  1.135612  4.146917
C    -2.621309  1.647149  5.594545
C    -2.564018  0.579942  6.710816
N    -3.357247  -0.627808  6.475491
C    -4.708521  -0.616370  6.177779
N    -5.442815  0.340761  6.879936
N    -5.163419  -1.437746  5.286638
H    -3.384077  0.374334  4.018616
H    -2.880938  1.978578  3.495848
H    -3.553171  2.219221  5.709811
H    -1.795463  2.356392  5.760661
H    -2.867375  1.051121  7.658650
H    -1.533710  0.239442  6.857527
H    -2.879654  -1.329493  5.915943
H    -5.121517  0.541019  7.822847
H    -6.447699  0.222821  6.824768
H    -6.186638  -1.436499  5.265460
N    -1.181211  -1.847325  4.236450
C    -2.151812  -2.375913  3.285536
H    -0.634920  -2.526548  4.758683
H    -2.439912  -3.377304  3.624570
H    -1.746269  -2.455764  2.266264
H    -3.071683  -1.780160  3.274544
