35
Energy: -21190.2132961 eV PBE+vdW (tier 2 basis)
C    1.629595  0.726908  0.630266
C    1.243516  -0.563629  1.330492
O    1.970302  -1.555352  1.317088
H    1.936637  1.479715  1.370036
H    2.475797  0.516329  -0.028910
H    0.805033  1.151663  0.040647
N    0.037031  -0.589273  1.981497
C    -0.907815  0.491755  2.158605
C    -0.317517  1.687215  2.948988
O    0.484100  1.549713  3.866553
H    -0.154025  -1.472415  2.464565
H    -1.238522  0.863780  1.170962
C    -2.159237  -0.049556  2.884907
C    -1.883172  -0.552679  4.310279
C    -2.806157  -1.695783  4.775205
N    -3.052901  -2.778568  3.822223
C    -2.134803  -3.470395  3.047410
N    -0.798144  -3.315066  3.432328
N    -2.396248  -4.185196  2.006350
H    -2.548838  -0.871445  2.265982
H    -2.932967  0.731730  2.891959
H    -1.982462  0.267851  5.035251
H    -0.837638  -0.872152  4.388286
H    -3.800022  -1.295176  5.018740
H    -2.408812  -2.098546  5.723218
H    -4.003870  -2.867174  3.491380
H    -0.614710  -3.343036  4.431952
H    -0.200676  -3.953712  2.912530
H    -3.383131  -4.121550  1.741852
N    -0.811091  2.898980  2.553559
C    -0.444121  4.146012  3.196195
H    -1.425585  2.925305  1.748594
H    -1.324789  4.659206  3.607240
H    0.066361  4.821933  2.495863
H    0.241357  3.901717  4.014849
