35
Energy: -21190.2222006 eV PBE+vdW (tier 2 basis)
C    0.390088  1.660705  0.445446
C    -0.029363  0.694189  1.541639
O    0.506214  0.683248  2.645301
H    1.443813  1.477122  0.200908
H    0.319309  2.683838  0.834472
H    -0.205529  1.583986  -0.472939
N    -1.050140  -0.155992  1.209219
C    -1.608305  -1.168338  2.104312
C    -1.962137  -0.605689  3.503717
O    -1.557767  -1.127412  4.538973
H    -1.470236  -0.068374  0.292013
H    -2.570947  -1.443064  1.644113
C    -0.705254  -2.409725  2.227278
C    -1.413847  -3.679909  2.726201
C    -2.102323  -4.519016  1.636683
N    -3.120957  -3.840883  0.832357
C    -4.254671  -3.247925  1.358319
N    -4.894831  -3.964973  2.357712
N    -4.658904  -2.126774  0.845790
H    0.115495  -2.157040  2.909417
H    -0.257203  -2.595726  1.237604
H    -0.673169  -4.332968  3.212744
H    -2.128664  -3.413981  3.518322
H    -2.536834  -5.427234  2.086345
H    -1.352247  -4.887169  0.921718
H    -2.765629  -3.283745  0.061824
H    -5.441152  -3.418472  3.011069
H    -4.392310  -4.732539  2.787926
H    -5.584142  -1.870192  1.199743
N    -2.824854  0.455436  3.539021
C    -3.488626  1.135910  2.441479
H    -2.975086  0.805886  4.479308
H    -4.389826  1.626157  2.829601
H    -3.810189  0.419178  1.674289
H    -2.856124  1.904303  1.969665
