35
Energy: -21190.4335608 eV PBE+vdW (tier 2 basis)
C    0.635275  -0.490194  0.901948
C    -0.827429  -0.559446  1.294128
O    -1.380092  -1.626567  1.565576
H    0.788877  -1.105053  0.006469
H    1.235450  -0.930339  1.707747
H    0.993758  0.527165  0.703443
N    -1.479869  0.641468  1.337146
C    -2.892792  0.771480  1.672929
C    -3.683223  1.024252  0.369836
O    -3.691103  2.147591  -0.150648
H    -0.999200  1.478225  1.024758
H    -3.177985  -0.185812  2.125797
C    -3.115862  1.920897  2.657894
C    -4.586872  2.115367  3.028440
C    -4.869644  3.448180  3.736057
N    -4.307283  4.638580  3.079039
C    -4.940110  5.291608  2.009229
N    -5.406875  4.444008  1.015511
N    -5.098794  6.568619  1.893425
H    -2.740440  2.852225  2.208610
H    -2.509571  1.726522  3.555438
H    -4.929571  1.303722  3.689980
H    -5.214733  2.059680  2.128270
H    -4.418319  3.421600  4.738611
H    -5.959900  3.549429  3.875365
H    -3.952704  5.314857  3.746099
H    -4.765612  3.710709  0.703261
H    -5.780966  4.981925  0.239283
H    -4.858275  7.050690  2.764504
N    -4.334276  -0.020824  -0.197002
C    -4.457191  -1.394801  0.278110
H    -4.831315  0.234209  -1.046139
H    -5.283228  -1.508309  0.996971
H    -3.522693  -1.736104  0.739330
H    -4.662725  -2.040987  -0.582781
