35
Energy: -21190.4361277 eV PBE+vdW (tier 2 basis)
C    -0.577503  -0.248741  -0.201451
C    -0.260756  0.268876  1.189139
O    0.884548  0.565708  1.535693
H    -0.233978  0.487035  -0.939059
H    -1.643167  -0.450423  -0.364354
H    -0.008255  -1.171195  -0.371350
N    -1.328101  0.380494  2.029123
C    -1.196324  0.836634  3.398433
C    -2.406593  0.274648  4.159245
O    -3.487452  0.101045  3.595526
H    -2.271799  0.126117  1.746877
H    -0.255056  0.428019  3.801035
C    -1.128593  2.382137  3.466705
C    -0.780570  2.954692  4.841598
C    -0.475359  4.463593  4.832263
N    -1.581664  5.333487  4.461425
C    -2.039184  5.551826  3.166898
N    -1.053572  5.677261  2.190466
N    -3.307052  5.722329  2.993053
H    -2.084707  2.788577  3.106053
H    -0.352589  2.674191  2.744032
H    0.110356  2.440349  5.244252
H    -1.599561  2.769977  5.555060
H    0.384869  4.664102  4.175280
H    -0.144560  4.766892  5.836814
H    -2.379310  5.305029  5.091630
H    -1.360869  5.466097  1.249209
H    -0.131640  5.309417  2.395826
H    -3.515460  6.025399  2.038385
N    -2.195282  0.015427  5.477631
C    -3.242772  -0.445062  6.370461
H    -1.260489  0.147141  5.844633
H    -3.372506  0.244797  7.215572
H    -3.021953  -1.448543  6.759832
H    -4.173100  -0.485383  5.794906
