35
Energy: -21190.2937955 eV PBE+vdW (tier 2 basis)
C    -0.560670  0.257653  -0.495173
C    -0.377283  1.015408  0.804299
O    0.641452  1.690703  1.001868
H    -0.341145  -0.809308  -0.348177
H    0.156536  0.658765  -1.216387
H    -1.577542  0.322645  -0.900378
N    -1.334329  0.916014  1.777288
C    -2.685467  0.354471  1.704134
C    -2.742232  -1.044345  1.052213
O    -3.462609  -1.290451  0.086505
H    -1.201724  1.598129  2.536664
H    -2.969617  0.184333  2.758124
C    -3.731172  1.319040  1.116882
C    -4.115818  2.446676  2.099952
C    -3.763677  3.882995  1.677074
N    -2.390295  4.132938  1.264995
C    -1.304174  4.061388  2.101062
N    -0.108782  4.547532  1.564581
N    -1.423946  3.576269  3.301106
H    -4.611490  0.725883  0.841563
H    -3.342973  1.727472  0.171649
H    -3.648456  2.272497  3.077953
H    -5.202612  2.431180  2.271376
H    -3.998969  4.553674  2.517311
H    -4.395240  4.190097  0.830917
H    -2.203344  4.179484  0.273100
H    0.637879  3.856054  1.644854
H    -0.172829  4.887765  0.608353
H    -0.558380  3.746381  3.819440
N    -1.983591  -2.023455  1.630937
C    -1.095563  -1.944848  2.779758
H    -2.063752  -2.915150  1.152266
H    -1.522521  -1.314347  3.569328
H    -0.104802  -1.542555  2.523284
H    -0.970502  -2.953102  3.191278
