35
Energy: -21190.2311541 eV PBE+vdW (tier 2 basis)
C    -0.695212  0.188421  -0.283394
C    -0.131057  -0.132309  1.088906
O    0.979036  -0.632708  1.243589
H    0.017502  0.829442  -0.815989
H    -1.672805  0.685975  -0.257855
H    -0.784541  -0.745282  -0.852919
N    -0.944868  0.189542  2.147915
C    -0.608435  -0.216999  3.513477
C    -1.848293  -0.333342  4.408850
O    -1.969816  -1.323045  5.140300
H    -1.906356  0.432331  1.942963
H    -0.210805  -1.240840  3.466943
C    0.493670  0.667794  4.151325
C    0.903750  0.198017  5.562074
C    0.731265  1.264392  6.658635
N    -0.561936  1.948330  6.652934
C    -1.691790  1.580528  7.368801
N    -1.720366  0.256792  7.787506
N    -2.683038  2.364906  7.661285
H    0.143875  1.708834  4.184611
H    1.348244  0.635026  3.465165
H    0.333304  -0.699979  5.837497
H    1.957466  -0.115241  5.565783
H    1.495690  2.043859  6.527475
H    0.904234  0.807361  7.644348
H    -0.535555  2.935671  6.435545
H    -2.598809  0.064215  8.260536
H    -1.524268  -0.445021  7.071906
H    -2.455207  3.343221  7.458073
N    -2.802040  0.643273  4.410103
C    -2.738398  2.018764  3.937892
H    -3.529752  0.451129  5.095832
H    -2.794498  2.705938  4.793805
H    -3.576176  2.238642  3.259790
H    -1.803324  2.204546  3.404561
