35
Energy: -21190.1302564 eV PBE+vdW (tier 2 basis)
C    0.365306  -0.308587  0.275829
C    0.126736  -0.413617  1.769038
O    0.962590  -0.888620  2.531407
H    0.633209  -1.300050  -0.108031
H    1.227765  0.350586  0.107827
H    -0.495641  0.074629  -0.287021
N    -1.079169  0.085109  2.206927
C    -1.423150  0.125813  3.621937
C    -2.731613  -0.604467  3.988715
O    -2.753417  -1.362350  4.954263
H    -1.667190  0.549208  1.527178
H    -0.644146  -0.477414  4.105808
C    -1.392157  1.533087  4.257425
C    -0.013941  2.215804  4.245537
C    0.299902  2.983331  2.948757
N    1.543581  3.725456  2.954624
C    2.769818  3.141724  2.646855
N    3.815906  4.070513  2.732666
N    3.029684  1.927473  2.311804
H    -1.723898  1.406025  5.297995
H    -2.139518  2.191162  3.780368
H    0.773803  1.473089  4.438849
H    0.027348  2.934715  5.078804
H    -0.517278  3.695714  2.747122
H    0.333159  2.302997  2.088386
H    1.595330  4.515015  3.590735
H    4.686194  3.653036  2.415336
H    3.630602  4.962076  2.280070
H    2.251920  1.282750  2.469950
N    -3.877604  -0.364826  3.272788
C    -4.112718  0.498832  2.131095
H    -4.659699  -0.918852  3.608324
H    -5.182488  0.732393  2.081324
H    -3.828456  0.032615  1.172870
H    -3.586938  1.457382  2.234218
