35
Energy: -21190.2409708 eV PBE+vdW (tier 2 basis)
C    0.206469  -0.112206  0.318305
C    -0.043286  0.396894  1.721906
O    0.767290  1.108844  2.313882
H    1.066475  -0.795290  0.356493
H    0.489593  0.731927  -0.321158
H    -0.649724  -0.634681  -0.126032
N    -1.227233  0.016040  2.294535
C    -1.561132  0.205516  3.705809
C    -1.055952  1.543497  4.306942
O    -0.424496  1.565688  5.359066
H    -1.812243  -0.626276  1.772371
H    -2.661597  0.289778  3.741048
C    -1.185305  -1.012264  4.582724
C    0.186342  -1.665996  4.367546
C    1.421659  -0.916134  4.896044
N    2.648833  -1.689614  4.737851
C    3.292859  -1.799673  3.508634
N    4.187224  -2.884578  3.474238
N    3.161655  -1.064274  2.461250
H    -1.950037  -1.782510  4.395338
H    -1.298603  -0.703125  5.631223
H    0.336356  -1.889778  3.299726
H    0.152433  -2.647693  4.868196
H    1.297686  -0.685088  5.962584
H    1.545160  0.049871  4.394527
H    2.664808  -2.552377  5.275193
H    4.786963  -2.809245  2.656823
H    4.736990  -2.994603  4.323250
H    2.451550  -0.336971  2.581097
N    -1.490036  2.704350  3.727241
C    -2.162976  2.906637  2.458209
H    -1.076837  3.520644  4.167675
H    -2.635777  3.895925  2.469192
H    -2.957186  2.165061  2.310760
H    -1.476662  2.858093  1.598081
