35
Energy: -21190.5933107 eV PBE+vdW (tier 2 basis)
C    -1.941604  0.871539  0.793647
C    -1.129407  0.180237  1.867622
O    -0.051328  0.646041  2.273789
H    -2.067575  1.923576  1.077230
H    -2.924493  0.411023  0.638625
H    -1.373072  0.855263  -0.145876
N    -1.650534  -0.981951  2.336768
C    -1.107519  -1.700316  3.495986
C    0.134797  -2.579622  3.161392
O    0.170079  -3.785807  3.415885
H    -2.572639  -1.259293  1.977498
H    -0.748652  -0.929902  4.200141
C    -2.210093  -2.514769  4.179390
C    -2.805883  -3.662384  3.334636
C    -4.346882  -3.801628  3.417865
N    -5.010141  -3.772391  2.118753
C    -4.871446  -2.698218  1.272179
N    -5.094363  -2.986392  -0.066248
N    -4.589991  -1.477986  1.623092
H    -3.004943  -1.806825  4.465548
H    -1.800986  -2.912427  5.116799
H    -2.321364  -4.603008  3.616773
H    -2.544946  -3.518550  2.277130
H    -4.768681  -3.007881  4.057535
H    -4.636846  -4.746254  3.893615
H    -5.295998  -4.654560  1.712546
H    -4.954665  -2.177932  -0.663244
H    -4.677133  -3.838080  -0.427971
H    -4.675664  -1.367595  2.637227
N    1.156816  -1.878006  2.615694
C    2.409817  -2.492723  2.230829
H    1.005027  -0.868516  2.485111
H    3.251503  -2.059984  2.790600
H    2.602599  -2.360327  1.156339
H    2.349211  -3.563351  2.454096
