35
Energy: -21189.9457482 eV PBE+vdW (tier 2 basis)
C    -0.791140  -0.208995  0.222866
C    -0.480077  -0.171732  1.702924
O    0.664274  -0.130140  2.144210
H    -1.719517  -0.747779  -0.004136
H    0.043466  -0.678472  -0.306143
H    -0.889034  0.824062  -0.141095
N    -1.583703  -0.197777  2.534827
C    -1.445857  0.155659  3.958540
C    -0.695094  1.519394  4.047265
O    -1.180841  2.444989  3.394842
H    -2.445610  0.118506  2.100391
H    -2.455632  0.479124  4.253553
C    -1.143760  -1.042594  4.883016
C    -0.005761  -2.028364  4.569896
C    -0.356532  -3.154855  3.582252
N    -1.521273  -3.938137  3.972539
C    -2.667977  -4.137653  3.217956
N    -2.849980  -3.230794  2.176720
N    -3.547036  -5.068470  3.394621
H    -2.073597  -1.631352  4.944075
H    -1.011490  -0.631655  5.894663
H    0.297963  -2.496657  5.520246
H    0.876922  -1.513158  4.175211
H    0.521038  -3.815825  3.487631
H    -0.534448  -2.757739  2.578348
H    -1.370734  -4.649258  4.677873
H    -3.782787  -3.319850  1.787039
H    -2.564438  -2.269495  2.353146
H    -3.242266  -5.740394  4.104071
N    0.345768  1.760264  4.899574
C    1.378127  0.865852  5.407843
H    0.622290  2.735625  4.818405
H    2.116683  1.479761  5.934507
H    1.886449  0.326815  4.596983
H    0.981005  0.142247  6.128452
