35
Energy: -21190.624891 eV PBE+vdW (tier 2 basis)
C    -0.747393  2.507658  0.829064
C    -0.609273  1.519856  1.970565
O    0.121710  1.736956  2.941424
H    -0.993873  3.491701  1.245632
H    -1.512878  2.214604  0.101097
H    0.222324  2.602967  0.322603
N    -1.333886  0.370604  1.825224
C    -1.370453  -0.627572  2.887303
C    -0.975789  -2.025836  2.380433
O    -1.736136  -3.002514  2.444281
H    -1.936219  0.284831  0.993108
H    -0.571492  -0.298383  3.574361
C    -2.667110  -0.582441  3.723325
C    -4.007685  -1.117765  3.180986
C    -4.398063  -0.794930  1.735051
N    -3.747574  -1.700952  0.788540
C    -3.129267  -1.266993  -0.353559
N    -2.563228  -2.305782  -1.091460
N    -3.040604  0.000396  -0.636672
H    -2.787012  0.478256  3.990912
H    -2.463296  -1.110140  4.667106
H    -4.795996  -0.710546  3.832128
H    -4.044471  -2.208394  3.312577
H    -4.156531  0.239724  1.458941
H    -5.490636  -0.900621  1.631995
H    -3.327216  -2.526301  1.218767
H    -2.257084  -2.054677  -2.023744
H    -3.052875  -3.194704  -1.055184
H    -2.633935  0.144177  -1.563282
N    0.276073  -2.169298  1.867496
C    1.325983  -1.178196  1.700457
H    0.443939  -3.103739  1.506507
H    1.267716  -0.676864  0.722008
H    2.299660  -1.676121  1.782774
H    1.271622  -0.407219  2.477371
