35
Energy: -21190.9660083 eV PBE+vdW (tier 2 basis)
C    -0.435014  -0.698921  -1.217782
C    -1.073752  -0.306985  0.099764
O    -1.709312  0.750394  0.214495
H    0.106627  -1.651298  -1.176419
H    0.256513  0.096323  -1.522712
H    -1.216496  -0.764217  -1.985199
N    -0.913252  -1.195664  1.114925
C    -1.313963  -0.920017  2.481153
C    -0.231541  -1.471575  3.419732
O    0.556659  -2.350022  3.054187
H    -0.255184  -1.969204  1.024891
H    -1.344191  0.166808  2.594733
C    -2.690526  -1.525562  2.848146
C    -3.903717  -0.786863  2.275201
C    -4.213341  0.565686  2.934263
N    -3.233934  1.618629  2.687038
C    -2.354971  2.045581  3.651580
N    -1.543880  3.082348  3.206172
N    -2.271340  1.475789  4.822668
H    -2.777253  -1.550496  3.944238
H    -2.690746  -2.572014  2.506805
H    -4.793435  -1.420504  2.418279
H    -3.797157  -0.656354  1.187617
H    -4.289391  0.451032  4.023095
H    -5.191070  0.916495  2.566501
H    -2.870627  1.655489  1.730645
H    -0.952388  3.520709  3.900163
H    -1.940328  3.720001  2.524118
H    -1.700330  2.047196  5.451214
N    -0.269333  -0.916984  4.653706
C    0.593816  -1.344238  5.735052
H    -0.970183  -0.180270  4.819922
H    0.008129  -1.732892  6.580567
H    1.219438  -0.514820  6.094991
H    1.245514  -2.139368  5.357305
