35
Energy: -21190.2858502 eV PBE+vdW (tier 2 basis)
C    0.627176  1.813929  0.993007
C    0.035404  2.086325  2.359684
O    0.306552  3.089316  3.014533
H    1.460718  2.504270  0.841099
H    -0.122998  1.987488  0.208604
H    0.974902  0.778722  0.880015
N    -0.847062  1.154257  2.861902
C    -1.326496  -0.076765  2.245014
C    -2.093119  0.145870  0.920310
O    -1.787771  -0.540092  -0.066471
H    -1.188742  1.386956  3.790472
H    -0.469359  -0.694454  1.933393
C    -2.127796  -0.864705  3.303301
C    -2.406079  -2.349729  3.028341
C    -3.282574  -2.685769  1.812986
N    -4.474185  -1.843779  1.762609
C    -5.210698  -1.567850  0.607832
N    -4.524788  -1.715158  -0.585320
N    -6.446475  -1.183785  0.587311
H    -3.075023  -0.344963  3.505263
H    -1.538211  -0.811243  4.232092
H    -2.880277  -2.755271  3.937040
H    -1.456193  -2.895774  2.920590
H    -3.539412  -3.760118  1.846333
H    -2.709148  -2.532219  0.895153
H    -5.073539  -1.914576  2.579445
H    -3.540987  -1.437940  -0.610592
H    -5.072402  -1.369529  -1.366220
H    -6.870347  -1.237240  1.517868
N    -3.052100  1.103815  0.825636
C    -3.782447  1.787738  1.882695
H    -3.497119  1.099745  -0.088790
H    -4.313820  2.636613  1.439540
H    -3.098279  2.181211  2.640092
H    -4.523839  1.126067  2.356398
