35
Energy: -21190.579808 eV PBE+vdW (tier 2 basis)
C    -0.021029  -0.339317  -0.259789
C    -0.148321  0.279901  1.116246
O    0.729765  1.010592  1.587283
H    0.101039  0.465088  -0.995732
H    -0.879624  -0.958321  -0.547251
H    0.889153  -0.950869  -0.290458
N    -1.294106  -0.010272  1.797401
C    -1.573643  0.525882  3.129179
C    -0.876976  -0.349037  4.204893
O    -1.476773  -1.212323  4.845677
H    -1.936359  -0.695710  1.415660
H    -1.118610  1.526989  3.144871
C    -3.082416  0.632232  3.343005
C    -3.499452  1.249920  4.686618
C    -2.823106  2.574869  5.043644
N    -3.017312  3.578009  4.009549
C    -2.331862  4.789380  4.047121
N    -2.754173  5.664633  3.039495
N    -1.411226  5.159239  4.867514
H    -3.525495  -0.373599  3.280241
H    -3.487101  1.224590  2.509059
H    -3.287796  0.536110  5.493805
H    -4.592852  1.388269  4.678657
H    -1.739454  2.421583  5.163563
H    -3.198227  2.914842  6.027537
H    -3.969402  3.656664  3.661620
H    -2.158588  6.487491  3.010500
H    -2.852422  5.234531  2.123386
H    -1.300452  4.494810  5.636479
N    0.443978  -0.059297  4.342944
C    1.324102  -0.829305  5.200186
H    0.845659  0.558277  3.634035
H    1.993596  -0.161604  5.757175
H    1.935524  -1.540263  4.623673
H    0.706087  -1.394680  5.905462
