35
Energy: -21190.0327743 eV PBE+vdW (tier 2 basis)
C    -1.294704  -0.433150  -0.527439
C    -0.866648  0.290889  0.731969
O    -0.078144  1.232914  0.690122
H    -2.256621  -0.949181  -0.460960
H    -0.529937  -1.180470  -0.782083
H    -1.322501  0.303405  -1.336547
N    -1.339616  -0.134840  1.954795
C    -2.291154  -1.176885  2.344390
C    -2.139617  -2.491269  1.543354
O    -3.091377  -3.016955  0.969005
H    -0.976259  0.443919  2.707580
H    -1.989610  -1.452996  3.370878
C    -3.760993  -0.724737  2.464778
C    -4.491002  -0.201113  1.218713
C    -4.237793  1.269475  0.885012
N    -5.049799  1.661613  -0.255348
C    -5.038300  2.969856  -0.727814
N    -5.777206  3.111076  -1.908927
N    -4.448629  3.994962  -0.218645
H    -3.799563  0.041953  3.255788
H    -4.314701  -1.591746  2.850860
H    -5.571954  -0.319315  1.387699
H    -4.256187  -0.841137  0.356167
H    -3.166414  1.464460  0.705180
H    -4.528360  1.892721  1.746623
H    -5.129569  0.957246  -0.983930
H    -5.857478  4.091374  -2.163773
H    -6.680173  2.643801  -1.899665
H    -3.824456  3.730248  0.546742
N    -0.905089  -3.076611  1.539685
C    0.319844  -2.664018  2.205952
H    -0.881745  -3.931382  0.992377
H    0.968604  -3.540977  2.310826
H    0.116117  -2.283173  3.214901
H    0.866642  -1.888373  1.650563
