35
Energy: -21190.1525877 eV PBE+vdW (tier 2 basis)
C    0.062013  -0.792740  0.351027
C    0.003490  0.055466  1.602344
O    1.017205  0.539640  2.102021
H    1.107843  -1.061113  0.179406
H    -0.297776  -0.219113  -0.513945
H    -0.545940  -1.702434  0.428037
N    -1.219237  0.273577  2.209297
C    -2.603023  -0.067889  1.848306
C    -3.044201  -1.491528  2.261561
O    -4.205454  -1.854999  2.080948
H    -1.114066  0.898615  3.003554
H    -3.202873  0.566417  2.516675
C    -3.033207  0.309130  0.397698
C    -3.253022  -0.830697  -0.606132
C    -3.360530  -0.347253  -2.058008
N    -4.462297  0.570824  -2.315347
C    -4.271787  1.938436  -2.362979
N    -5.486147  2.634836  -2.486200
N    -3.093702  2.455848  -2.265961
H    -2.294593  1.020478  0.005541
H    -3.966384  0.882675  0.469193
H    -4.156344  -1.392197  -0.327503
H    -2.431158  -1.561037  -0.569170
H    -3.473872  -1.221046  -2.718474
H    -2.448958  0.184543  -2.359282
H    -5.378488  0.272029  -1.997705
H    -5.367464  3.620243  -2.695390
H    -6.164791  2.201164  -3.107811
H    -3.117845  3.463445  -2.435031
N    -2.089670  -2.262660  2.847380
C    -2.362899  -3.591570  3.356619
H    -1.192949  -1.825450  3.030327
H    -1.644314  -4.319171  2.956168
H    -3.373499  -3.868401  3.037382
H    -2.319642  -3.619538  4.455099
