35
Energy: -21190.3177662 eV PBE+vdW (tier 2 basis)
C    -1.318189  -1.919825  0.669482
C    -1.062437  -0.683678  1.511143
O    -0.822009  0.411408  1.016267
H    -0.468899  -2.070854  -0.007762
H    -2.201824  -1.740871  0.043520
H    -1.477605  -2.833709  1.255905
N    -1.116987  -0.882992  2.874656
C    -1.016364  0.219158  3.826484
C    0.064612  -0.002501  4.904359
O    0.042049  0.620720  5.962929
H    -1.376685  -1.802485  3.212695
H    -0.653610  1.059472  3.210163
C    -2.362807  0.661783  4.431511
C    -3.035580  -0.266688  5.452443
C    -3.478231  -1.652478  4.947511
N    -4.306165  -1.665002  3.752184
C    -5.688150  -1.529299  3.715848
N    -6.319016  -1.545937  4.960719
N    -6.415479  -1.475110  2.650933
H    -3.044871  0.868440  3.593082
H    -2.182693  1.624755  4.926577
H    -3.919439  0.266932  5.838493
H    -2.367729  -0.407865  6.315366
H    -4.028894  -2.176732  5.740303
H    -2.596482  -2.288233  4.760817
H    -3.851849  -1.414491  2.882268
H    -5.909021  -0.959841  5.681863
H    -7.313993  -1.375677  4.846170
H    -5.854738  -1.618429  1.806328
N    1.040014  -0.897709  4.577583
C    2.199533  -1.125942  5.418110
H    1.014011  -1.293361  3.644647
H    1.996122  -0.674732  6.395018
H    3.102924  -0.659233  4.998614
H    2.381482  -2.200995  5.545771
