35
Energy: -21190.1047966 eV PBE+vdW (tier 2 basis)
C    -0.265129  -0.148962  -0.383975
C    -0.102786  -0.294364  1.119729
O    0.943733  -0.716562  1.612323
H    -0.127484  -1.134596  -0.845853
H    0.532050  0.504025  -0.759755
H    -1.236160  0.255523  -0.694435
N    -1.202698  0.055752  1.850657
C    -1.336153  0.059398  3.313577
C    -0.781316  1.393089  3.894987
O    -1.543597  2.363863  3.911208
H    -1.965031  0.491157  1.346329
H    -2.412860  0.201228  3.481497
C    -0.963831  -1.273408  3.975666
C    -1.331875  -1.291657  5.462357
C    -0.950853  -2.596206  6.177771
N    -1.628625  -3.793367  5.680729
C    -1.208216  -4.507249  4.564395
N    0.177222  -4.654320  4.467203
N    -2.095688  -4.943262  3.734530
H    0.092861  -1.519522  3.834509
H    -1.526757  -2.055601  3.445567
H    -0.838508  -0.461095  5.994478
H    -2.415238  -1.118392  5.581891
H    -1.176724  -2.501132  7.250373
H    0.133183  -2.753200  6.099169
H    -2.643775  -3.722293  5.663485
H    0.476031  -5.288707  3.735659
H    0.668021  -4.809459  5.343313
H    -1.684657  -5.583878  3.050420
N    0.494287  1.514818  4.358617
C    1.599567  0.567886  4.428061
H    0.665872  2.453310  4.708298
H    2.532512  1.140898  4.480150
H    1.633988  -0.055638  3.528122
H    1.545233  -0.071166  5.324159
