35
Energy: -21190.4365557 eV PBE+vdW (tier 2 basis)
C    0.164993  0.400217  -0.262228
C    0.038758  0.390595  1.250044
O    0.954867  0.760352  1.987259
H    0.374820  1.425394  -0.592043
H    -0.728939  0.033150  -0.781125
H    1.025419  -0.217778  -0.547367
N    -1.156589  -0.051446  1.733535
C    -1.424755  -0.155038  3.155752
C    -2.405340  -1.324943  3.321745
O    -3.270481  -1.523114  2.463698
H    -1.895243  -0.393166  1.124201
H    -0.459180  -0.336219  3.647718
C    -2.024414  1.160629  3.709400
C    -2.124695  1.234697  5.231958
C    -2.685531  2.583452  5.701288
N    -2.735700  2.750535  7.147112
C    -3.701098  2.106716  7.899600
N    -3.506261  2.293322  9.279228
N    -4.626355  1.408545  7.333878
H    -3.016290  1.303077  3.252534
H    -1.378599  1.971545  3.339788
H    -1.126688  1.084502  5.676996
H    -2.785670  0.449195  5.623149
H    -3.710727  2.703019  5.326505
H    -2.082801  3.409574  5.294505
H    -1.840654  2.866049  7.611036
H    -4.282832  1.966861  9.844511
H    -3.222383  3.233895  9.543498
H    -5.331947  1.111477  8.011700
N    -2.316915  -2.119236  4.423655
C    -1.368719  -2.095468  5.523681
H    -3.058116  -2.814057  4.460257
H    -1.082975  -3.123323  5.782027
H    -1.784396  -1.609785  6.418926
H    -0.459521  -1.559780  5.235216
