35
Energy: -21189.9279022 eV PBE+vdW (tier 2 basis)
C    -0.470847  0.121564  -0.253581
C    -0.184251  0.616073  1.148341
O    0.548582  1.584482  1.333989
H    -0.657125  0.995014  -0.888474
H    -1.300516  -0.584775  -0.339830
H    0.431634  -0.384193  -0.618612
N    -0.732564  -0.030575  2.235530
C    -1.631866  -1.165760  2.367433
C    -1.175865  -2.388301  1.521236
O    -0.006221  -2.538469  1.189654
H    -0.395468  0.376340  3.102758
H    -1.455579  -1.537761  3.391774
C    -3.129093  -0.743610  2.357498
C    -3.688593  -0.013010  1.129607
C    -4.063706  -0.894337  -0.071056
N    -4.622945  -0.135486  -1.184075
C    -5.964701  -0.120691  -1.539634
N    -6.838082  -0.427779  -0.490977
N    -6.452001  0.125917  -2.707663
H    -3.239379  -0.070321  3.220342
H    -3.764985  -1.611117  2.608621
H    -2.987641  0.769721  0.805919
H    -4.593539  0.529074  1.445923
H    -4.800665  -1.652899  0.235434
H    -3.186265  -1.444126  -0.439046
H    -3.992410  0.066467  -1.949744
H    -7.799186  -0.296743  -0.794220
H    -6.648510  0.052071  0.385224
H    -5.717239  0.179695  -3.418607
N    -2.145796  -3.314912  1.268291
C    -1.870817  -4.565415  0.585171
H    -3.091426  -3.131351  1.576862
H    -2.060841  -5.428364  1.238608
H    -0.813537  -4.561116  0.301142
H    -2.486722  -4.662716  -0.319592
