35
Energy: -21190.0821695 eV PBE+vdW (tier 2 basis)
C    0.531250  -0.800204  0.801992
C    0.393635  0.609409  1.348510
O    1.362744  1.349452  1.497820
H    -0.091384  -1.529982  1.338809
H    0.237891  -0.819219  -0.256846
H    1.581695  -1.093028  0.879678
N    -0.868190  1.033910  1.680479
C    -2.127705  0.341379  1.506584
C    -2.417446  -0.001715  0.026865
O    -2.031395  0.705022  -0.900885
H    -0.915531  1.983918  2.046419
H    -2.108991  -0.595005  2.089032
C    -3.281667  1.203811  2.076204
C    -3.812691  2.356003  1.209187
C    -2.812846  3.459405  0.803574
N    -1.954205  3.956343  1.873816
C    -2.333672  4.834898  2.883320
N    -3.714700  4.943075  3.087586
N    -1.407339  5.395058  3.581678
H    -2.946453  1.593324  3.049171
H    -4.128753  0.537215  2.293127
H    -4.657875  2.790353  1.762904
H    -4.236452  1.960348  0.273648
H    -3.375772  4.277468  0.313110
H    -2.143744  3.050557  0.036897
H    -0.981061  4.110383  1.626624
H    -3.969010  5.735205  3.667236
H    -4.298041  4.881532  2.257830
H    -1.795869  5.996300  4.311454
N    -3.174099  -1.117869  -0.201062
C    -3.627133  -2.118361  0.752912
H    -3.348011  -1.286183  -1.186892
H    -2.790439  -2.639947  1.241862
H    -4.215000  -2.867136  0.211555
H    -4.276640  -1.690122  1.529039
