35
Energy: -21190.2796534 eV PBE+vdW (tier 2 basis)
C    -0.430894  0.241830  -0.058395
C    0.044961  0.036124  1.365155
O    1.231004  0.119532  1.669692
H    -1.331013  -0.326709  -0.317924
H    0.387923  -0.032825  -0.730152
H    -0.646174  1.308803  -0.212051
N    -0.893907  -0.264405  2.336449
C    -2.358047  -0.221654  2.270401
C    -2.978525  -1.364431  1.421967
O    -4.100235  -1.255310  0.932952
H    -0.477207  -0.273803  3.263143
H    -2.683763  -0.442872  3.300587
C    -2.970908  1.134867  1.890910
C    -2.458515  2.304620  2.726650
C    -3.177868  3.621806  2.407748
N    -4.592841  3.621491  2.779483
C    -5.646125  3.843365  1.895755
N    -5.410896  3.397887  0.594361
N    -6.774182  4.404534  2.174743
H    -4.056976  1.029339  2.016239
H    -2.802122  1.335195  0.821970
H    -1.379400  2.453134  2.562212
H    -2.578763  2.081359  3.800561
H    -3.110955  3.838692  1.332748
H    -2.667057  4.448742  2.926497
H    -4.791440  3.962237  3.713019
H    -6.254401  3.494098  0.036363
H    -5.006099  2.468206  0.517861
H    -6.760334  4.826423  3.107717
N    -2.209756  -2.481616  1.323969
C    -2.632918  -3.666866  0.604998
H    -1.280146  -2.438813  1.727726
H    -2.637307  -4.546943  1.262525
H    -1.975798  -3.869337  -0.252592
H    -3.650055  -3.489136  0.239897
