35
Energy: -21190.0300236 eV PBE+vdW (tier 2 basis)
C    -0.611802  -0.435197  0.450374
C    -0.026248  0.338462  1.613656
O    1.178476  0.356688  1.859680
H    0.197576  -0.993315  -0.026610
H    -1.067223  0.239726  -0.288552
H    -1.393123  -1.135466  0.776395
N    -0.905370  1.037599  2.409969
C    -2.312187  1.301040  2.150115
C    -2.656228  2.319025  1.032056
O    -3.747625  2.209148  0.474008
H    -0.428610  1.582068  3.120963
H    -2.753184  0.374816  1.757189
C    -3.107390  1.626975  3.430966
C    -2.820938  2.947936  4.161383
C    -1.546567  3.018842  5.028217
N    -1.371023  1.932475  5.992150
C    -2.284909  1.678567  7.018342
N    -2.857682  2.825933  7.565920
N    -2.622363  0.523985  7.479296
H    -2.994596  0.780518  4.125333
H    -4.163143  1.631008  3.129718
H    -3.672601  3.141711  4.829104
H    -2.805958  3.786773  3.446317
H    -1.548256  3.979589  5.562524
H    -0.630983  3.045363  4.417742
H    -1.005650  1.073245  5.593638
H    -2.219812  3.602366  7.716777
H    -3.392960  2.595194  8.397775
H    -2.245914  -0.234605  6.903827
N    -1.782999  3.302597  0.657641
C    -0.504600  3.736900  1.208034
H    -2.171183  3.865143  -0.093680
H    0.307198  3.022134  1.022210
H    -0.561756  3.935513  2.286583
H    -0.239431  4.682297  0.722211
