35
Energy: -21190.3740026 eV PBE+vdW (tier 2 basis)
C    -0.020225  1.777077  1.286284
C    -0.524076  0.735483  2.266854
O    -0.188150  0.743238  3.456906
H    1.042397  1.961011  1.476993
H    -0.562517  2.715933  1.469842
H    -0.162659  1.495371  0.236294
N    -1.393146  -0.170881  1.745858
C    -2.140976  -1.145350  2.518773
C    -3.112316  -1.797375  1.519298
O    -3.370374  -1.255290  0.441735
H    -1.753656  -0.057137  0.797318
H    -1.444525  -1.909117  2.902356
C    -2.883198  -0.542040  3.746264
C    -3.605496  0.779248  3.476061
C    -3.765255  1.619598  4.760728
N    -3.943045  3.040734  4.550853
C    -2.946078  3.899705  4.109882
N    -1.639636  3.498288  4.379094
N    -3.311276  5.025747  3.586869
H    -2.119042  -0.377609  4.516992
H    -3.578714  -1.293591  4.145537
H    -3.023225  1.375055  2.760054
H    -4.583252  0.614846  2.999442
H    -2.880923  1.471942  5.400689
H    -4.617869  1.260162  5.355123
H    -4.854159  3.358200  4.237005
H    -1.391918  2.511078  4.357910
H    -0.934967  4.071569  3.932167
H    -2.502404  5.610100  3.363376
N    -3.685109  -2.982978  1.865089
C    -3.483309  -3.792104  3.054637
H    -4.352466  -3.314146  1.174854
H    -4.201802  -3.554560  3.854095
H    -2.470941  -3.657919  3.451376
H    -3.597457  -4.850350  2.791296
