35
Energy: -21190.2848819 eV PBE+vdW (tier 2 basis)
C    -0.364098  -0.472226  0.483243
C    -0.749940  -0.131420  1.907164
O    0.069482  -0.152691  2.821819
H    0.426598  -1.228258  0.520071
H    0.058380  0.424920  0.009542
H    -1.191257  -0.830424  -0.138834
N    -2.063324  0.208977  2.173286
C    -3.171637  0.489533  1.254642
C    -3.715173  -0.774078  0.530021
O    -4.372405  -0.681179  -0.503107
H    -2.185401  0.492201  3.141436
H    -4.002386  0.787396  1.916450
C    -2.964285  1.650750  0.268064
C    -2.678746  3.014472  0.914240
C    -1.199510  3.281155  1.255762
N    -0.914048  4.641541  1.673118
C    -0.823755  5.694110  0.771216
N    -0.708186  6.932887  1.414348
N    -0.836089  5.651807  -0.516870
H    -3.885595  1.703844  -0.324878
H    -2.172178  1.401045  -0.453636
H    -3.288675  3.139047  1.825240
H    -3.010486  3.803380  0.223816
H    -0.572659  3.061163  0.377138
H    -0.846620  2.613977  2.052767
H    -1.247446  4.899814  2.596220
H    -0.508940  7.664300  0.737572
H    -0.049070  6.945978  2.188726
H    -1.056167  4.717190  -0.867495
N    -3.459373  -1.949790  1.164675
C    -3.923746  -3.228517  0.664915
H    -2.874871  -1.912592  1.992521
H    -4.534549  -3.747104  1.416393
H    -3.082136  -3.877547  0.384000
H    -4.535757  -3.036278  -0.222748
