35
Energy: -21190.2701388 eV PBE+vdW (tier 2 basis)
C    0.974558  -0.610319  1.563933
C    0.153298  0.656438  1.757599
O    0.684018  1.764470  1.779019
H    0.644569  -1.186995  0.688093
H    0.917987  -1.271275  2.438905
H    2.014441  -0.308314  1.415372
N    -1.200918  0.521258  1.920051
C    -2.021025  -0.669402  1.821964
C    -3.185623  -0.371819  0.860364
O    -3.652594  0.761364  0.767237
H    -1.720557  1.398781  1.919334
H    -1.405944  -1.484916  1.422819
C    -2.621512  -1.085274  3.191259
C    -1.601547  -1.598388  4.209078
C    -1.065495  -2.999006  3.880891
N    -0.132523  -3.529375  4.864641
C    -0.616051  -4.105255  6.030120
N    0.410220  -4.388153  6.943485
N    -1.879401  -4.301632  6.193716
H    -3.397247  -1.851811  3.030914
H    -3.144899  -0.204976  3.591990
H    -2.079316  -1.647097  5.197361
H    -0.769386  -0.880606  4.294696
H    -0.559608  -3.014242  2.903029
H    -1.903832  -3.706645  3.833087
H    0.725558  -2.999583  4.984510
H    0.113808  -4.957546  7.728691
H    1.270292  -4.737514  6.527989
H    -2.064670  -4.837784  7.044118
N    -3.705082  -1.427426  0.169143
C    -3.215428  -2.796323  0.131760
H    -4.495162  -1.181216  -0.418645
H    -2.208422  -2.868272  -0.306732
H    -3.892419  -3.387138  -0.493758
H    -3.198302  -3.259426  1.128708
