35
Energy: -21190.5504013 eV PBE+vdW (tier 2 basis)
C    -1.497664  2.083086  2.114012
C    -1.263648  0.989279  3.139388
O    -1.194075  1.222648  4.346898
H    -2.438122  2.595278  2.352459
H    -1.541290  1.716243  1.081336
H    -0.692413  2.823327  2.199136
N    -1.151712  -0.272425  2.631714
C    -0.821625  -1.411116  3.463773
C    -0.208838  -2.468290  2.531018
O    -0.307239  -2.378287  1.303063
H    -1.068303  -0.442910  1.630607
H    -0.075146  -1.083625  4.206092
C    -2.040249  -1.970852  4.251147
C    -2.974607  -2.927393  3.502028
C    -3.696663  -2.357337  2.271641
N    -4.537116  -3.364530  1.640118
C    -4.014467  -4.314825  0.767833
N    -5.010086  -5.167062  0.271428
N    -2.794394  -4.473979  0.390303
H    -2.587304  -1.099339  4.638111
H    -1.657045  -2.495093  5.140723
H    -3.742850  -3.282597  4.205520
H    -2.419368  -3.825644  3.190986
H    -2.975967  -1.949260  1.545572
H    -4.343399  -1.521060  2.570950
H    -5.499068  -3.103186  1.457762
H    -5.657082  -5.516597  0.973436
H    -4.596814  -5.916029  -0.276641
H    -2.183609  -3.703295  0.674792
N    0.389465  -3.522420  3.132336
C    0.861794  -4.668658  2.367833
H    0.434026  -3.551334  4.143179
H    0.046424  -5.099367  1.770523
H    1.239465  -5.423696  3.064434
H    1.668989  -4.376655  1.683491
