35
Energy: -21190.1379478 eV PBE+vdW (tier 2 basis)
C    -0.896654  1.558357  -0.584734
C    -0.508071  0.929902  0.737307
O    0.626801  1.052329  1.193904
H    -0.669121  0.850727  -1.395034
H    -0.269136  2.442934  -0.726809
H    -1.950711  1.836608  -0.670474
N    -1.420959  0.145801  1.412333
C    -2.859972  -0.078177  1.243901
C    -3.295358  -0.284861  -0.223382
O    -4.193223  0.382072  -0.743948
H    -1.020785  -0.209470  2.277225
H    -3.044179  -1.059715  1.716673
C    -3.750309  0.928055  1.989807
C    -3.588052  2.398491  1.606277
C    -4.686815  3.293084  2.197156
N    -6.061958  2.821994  1.971918
C    -6.768978  3.051007  0.782364
N    -6.025936  2.863766  -0.372841
N    -8.010709  3.399301  0.698837
H    -3.553085  0.805515  3.067565
H    -4.797432  0.631544  1.834193
H    -3.596382  2.511464  0.516577
H    -2.618134  2.786716  1.953119
H    -4.550521  4.318279  1.812398
H    -4.562888  3.339746  3.289115
H    -6.661070  2.965178  2.776939
H    -6.614921  2.956023  -1.194804
H    -5.428352  2.035810  -0.406365
H    -8.385043  3.655879  1.616903
N    -2.683217  -1.282345  -0.920408
C    -1.659737  -2.219782  -0.486558
H    -3.021565  -1.357993  -1.874852
H    -1.688534  -3.092546  -1.148441
H    -1.850312  -2.572079  0.534858
H    -0.649179  -1.788166  -0.517326
