35
Energy: -21190.2622701 eV PBE+vdW (tier 2 basis)
C    0.370240  0.058812  1.620478
C    -0.280105  0.869170  2.730261
O    0.381780  1.290406  3.681948
H    1.453819  0.138260  1.741307
H    0.089061  0.416287  0.620442
H    0.093108  -1.002984  1.685928
N    -1.613789  1.139554  2.617394
C    -2.565043  0.436007  1.780099
C    -3.822616  1.314827  1.666693
O    -4.090586  2.154537  2.523770
H    -2.018484  1.697734  3.368319
H    -2.121086  0.321363  0.780133
C    -2.913470  -0.995963  2.290912
C    -3.958870  -1.154764  3.408365
C    -3.757221  -0.375048  4.715851
N    -2.403155  -0.446581  5.220116
C    -1.967527  0.398559  6.238364
N    -0.596122  0.267471  6.470421
N    -2.677001  1.233770  6.918613
H    -1.964126  -1.450654  2.606454
H    -3.255161  -1.594415  1.432721
H    -4.015671  -2.232172  3.634285
H    -4.955414  -0.883190  3.026453
H    -4.503253  -0.748743  5.445360
H    -3.990607  0.686588  4.549820
H    -1.919981  -1.337388  5.170757
H    -0.312706  0.917717  7.199428
H    -0.046094  0.420537  5.620725
H    -3.676777  1.111060  6.738401
N    -4.646849  1.104262  0.599666
C    -4.521381  0.144929  -0.483373
H    -5.487790  1.673050  0.634188
H    -3.474248  0.027967  -0.787733
H    -5.074526  0.517453  -1.352997
H    -4.920696  -0.847140  -0.220688
