35
Energy: -21190.3987162 eV PBE+vdW (tier 2 basis)
C    -1.112624  -1.448704  -0.993246
C    -0.576167  -0.333062  -0.115164
O    0.626640  -0.252880  0.132969
H    -0.528200  -1.453142  -1.921125
H    -2.178345  -1.401742  -1.238450
H    -0.910813  -2.401045  -0.485656
N    -1.449814  0.586821  0.410113
C    -2.901047  0.711944  0.293111
C    -3.198466  2.139145  -0.212957
O    -3.410660  3.072588  0.560821
H    -0.982406  1.279520  0.993144
H    -3.260118  -0.013969  -0.445286
C    -3.628988  0.456613  1.619105
C    -3.430893  -0.947928  2.192709
C    -4.005700  -2.090483  1.341879
N    -5.425558  -1.948371  1.043066
C    -5.886001  -1.647402  -0.217144
N    -7.282120  -1.723948  -0.315659
N    -5.069851  -1.369492  -1.183571
H    -4.700876  0.642124  1.453076
H    -3.306579  1.210427  2.350882
H    -3.889997  -0.981095  3.193269
H    -2.358060  -1.147898  2.344033
H    -3.851181  -3.045868  1.864947
H    -3.487124  -2.166940  0.379316
H    -6.075703  -2.433029  1.648265
H    -7.655705  -1.304792  -1.160141
H    -7.791498  -1.414189  0.508145
H    -5.585758  -1.123982  -2.030687
N    -3.181011  2.327455  -1.566248
C    -2.809746  1.372042  -2.597816
H    -3.271506  3.303280  -1.832681
H    -3.092320  1.786251  -3.572053
H    -3.346917  0.424145  -2.470069
H    -1.728336  1.165223  -2.611978
