35
Energy: -21190.4245792 eV PBE+vdW (tier 2 basis)
C    0.080767  -0.564404  1.852632
C    -0.693441  -1.011272  3.074178
O    -0.223612  -1.788326  3.907490
H    1.143699  -0.745051  2.034543
H    -0.085228  0.492687  1.609696
H    -0.218937  -1.159135  0.976678
N    -1.963175  -0.504524  3.237670
C    -2.861802  -0.054715  2.171007
C    -3.059070  1.477240  2.116246
O    -3.742129  1.980944  1.227020
H    -2.443894  -0.956057  4.016515
H    -2.425656  -0.313659  1.194024
C    -4.222360  -0.762406  2.305197
C    -4.290705  -2.209324  1.797341
C    -3.294863  -3.234207  2.381717
N    -3.137993  -3.231282  3.830506
C    -4.069371  -3.634414  4.776191
N    -5.296267  -4.050998  4.255834
N    -3.916854  -3.589522  6.056859
H    -4.953387  -0.167527  1.742295
H    -4.534774  -0.719828  3.361593
H    -4.151576  -2.218412  0.703920
H    -5.315546  -2.561326  1.978296
H    -2.290635  -3.051409  1.975882
H    -3.573790  -4.236091  2.003469
H    -2.183231  -3.159745  4.171650
H    -5.874360  -4.442372  4.993888
H    -5.249275  -4.655250  3.440199
H    -3.022516  -3.160660  6.310478
N    -2.425419  2.176567  3.092110
C    -2.498841  3.619452  3.200676
H    -1.893511  1.635024  3.766379
H    -1.500949  4.074358  3.131865
H    -2.961356  3.923305  4.150038
H    -3.115466  3.983593  2.371707
