35
Energy: -21190.751407 eV PBE+vdW (tier 2 basis)
C    -1.980707  -1.204631  1.000117
C    -1.480118  -0.183868  2.003040
O    -0.535094  0.572914  1.719858
H    -1.142749  -1.853614  0.715714
H    -2.307738  -0.679464  0.093906
H    -2.803961  -1.819008  1.381052
N    -2.143879  -0.158356  3.183617
C    -1.760073  0.584622  4.389321
C    -1.905923  2.127546  4.341280
O    -2.412015  2.708639  5.304651
H    -2.844103  -0.898168  3.341464
H    -2.517654  0.315930  5.134083
C    -0.356244  0.214472  4.929900
C    -0.060758  -1.279726  5.119774
C    -0.861699  -2.019395  6.204234
N    -2.269165  -2.294658  5.884396
C    -2.652502  -3.070912  4.805839
N    -1.942208  -4.252432  4.663030
N    -3.592098  -2.636318  4.021578
H    -0.235444  0.746486  5.886482
H    0.396601  0.626063  4.243822
H    1.004721  -1.373186  5.383083
H    -0.176090  -1.815171  4.164587
H    -0.863030  -1.443581  7.140931
H    -0.359768  -2.969726  6.435245
H    -2.884296  -1.490846  5.963666
H    -2.288335  -4.892155  3.958792
H    -1.629828  -4.706640  5.515162
H    -3.923870  -3.366200  3.385595
N    -1.411799  2.737748  3.239795
C    -1.438509  4.176123  3.072998
H    -0.958402  2.134586  2.538957
H    -0.423446  4.600427  3.091124
H    -2.014134  4.607193  3.899159
H    -1.912628  4.449073  2.120040
