35
Energy: -21190.492168 eV PBE+vdW (tier 2 basis)
C    -0.096170  0.239389  -0.033374
C    -0.007000  -0.069804  1.449191
O    1.082940  -0.222771  1.998797
H    0.688394  -0.313653  -0.559534
H    0.098520  1.312273  -0.169622
H    -1.071274  0.003562  -0.477703
N    -1.218724  -0.166126  2.080238
C    -1.488993  -0.155348  3.517954
C    -0.940460  1.140098  4.187632
O    -0.481639  2.064965  3.520502
H    -2.008986  0.093078  1.503264
H    -2.580568  -0.007889  3.570519
C    -1.264792  -1.515796  4.227581
C    0.133115  -2.137795  4.375539
C    1.108868  -1.464552  5.344290
N    1.611958  -0.226243  4.801891
C    2.189727  0.738060  5.575925
N    2.575416  1.863992  4.833508
N    2.349848  0.554800  6.852308
H    -1.889925  -2.232791  3.673347
H    -1.734213  -1.454900  5.224953
H    0.606265  -2.233827  3.388170
H    -0.024305  -3.165790  4.736528
H    1.932175  -2.167729  5.568174
H    0.632136  -1.255853  6.316697
H    1.612823  -0.130690  3.784954
H    2.788760  2.670196  5.410191
H    1.936734  2.102631  4.075041
H    2.754488  1.388845  7.284923
N    -1.161115  1.213403  5.527835
C    -0.741504  2.348506  6.333106
H    -1.390560  0.356871  6.016590
H    -1.582341  2.731807  6.927225
H    -0.399782  3.132647  5.650556
H    0.083020  2.064404  7.000542
