35
Energy: -21190.4806882 eV PBE+vdW (tier 2 basis)
C    0.043112  0.713699  -0.166311
C    -0.160171  -0.171964  1.046416
O    0.594442  -1.110278  1.305405
H    1.063841  1.113882  -0.142310
H    -0.667906  1.546239  -0.229694
H    -0.046115  0.097705  -1.070106
N    -1.225736  0.156271  1.842015
C    -1.609096  -0.665690  2.982702
C    -2.690237  -1.654957  2.512077
O    -3.789762  -1.234731  2.127646
H    -1.910917  0.820368  1.497163
H    -0.695294  -1.193104  3.279304
C    -2.100477  0.205701  4.147529
C    -2.306636  -0.551077  5.468531
C    -3.664399  -1.248724  5.633204
N    -4.767118  -0.291633  5.628587
C    -6.046216  -0.575131  5.135929
N    -6.070741  -1.427895  4.044426
N    -7.153356  -0.102178  5.607090
H    -3.039225  0.707469  3.865740
H    -1.343021  0.989399  4.289338
H    -2.187648  0.162946  6.298796
H    -1.507522  -1.297913  5.608710
H    -3.649717  -1.833776  6.571799
H    -3.844108  -1.972896  4.832023
H    -4.810521  0.288695  6.460839
H    -7.005871  -1.481334  3.653987
H    -5.343099  -1.296455  3.336879
H    -6.998462  0.393595  6.489655
N    -2.395409  -2.977204  2.521269
C    -1.134516  -3.620141  2.878107
H    -3.159959  -3.565677  2.202077
H    -0.992437  -3.672636  3.967868
H    -0.285874  -3.095801  2.420640
H    -1.152389  -4.644280  2.490672
