35
Energy: -21190.5215612 eV PBE+vdW (tier 2 basis)
C    -1.647309  0.242004  0.167964
C    -1.694786  0.256463  1.682726
O    -1.310670  1.217402  2.354079
H    -0.609688  0.406829  -0.148631
H    -2.242687  1.079414  -0.216804
H    -2.013981  -0.694594  -0.269731
N    -2.204818  -0.867459  2.261290
C    -2.207853  -1.012603  3.699426
C    -0.765440  -1.153338  4.231882
O    0.113273  -1.751252  3.600870
H    -2.396166  -1.711533  1.719444
H    -2.626811  -0.081716  4.105625
C    -3.137222  -2.174289  4.128041
C    -2.618384  -3.626741  4.187128
C    -1.798983  -4.191857  3.013061
N    -2.259290  -3.776930  1.685500
C    -1.367708  -3.654466  0.604816
N    -0.109635  -3.196283  0.940797
N    -1.820364  -3.953928  -0.568394
H    -4.006565  -2.120765  3.456171
H    -3.525386  -1.940789  5.130455
H    -3.506599  -4.256824  4.353126
H    -1.996194  -3.756639  5.086394
H    -1.788613  -5.293246  3.096164
H    -0.763063  -3.865631  3.120981
H    -3.096952  -4.249239  1.350761
H    0.471079  -2.918510  0.160357
H    0.003183  -2.625941  1.785782
H    -1.143587  -3.717956  -1.298738
N    -0.509097  -0.626144  5.457532
C    -1.348825  0.294214  6.212081
H    0.463904  -0.714131  5.734814
H    -0.822773  0.559440  7.135063
H    -2.302934  -0.167286  6.500323
H    -1.548978  1.218362  5.650120
