35
Energy: -21189.9666451 eV PBE+vdW (tier 2 basis)
C    -0.667629  -0.449444  -0.278615
C    -0.312317  -0.623474  1.184186
O    0.782777  -1.091623  1.501259
H    0.049878  -1.039565  -0.855222
H    -0.555961  0.603686  -0.569561
H    -1.685362  -0.752942  -0.540463
N    -1.170013  -0.223803  2.188843
C    -2.554273  0.252722  2.321630
C    -3.505774  -0.778692  2.980797
O    -4.208819  -0.413840  3.924429
H    -0.721431  -0.391644  3.087216
H    -2.519014  1.035103  3.095470
C    -3.217010  0.885040  1.092938
C    -2.616984  2.240013  0.697002
C    -3.048627  2.699769  -0.699489
N    -4.495909  2.812020  -0.860469
C    -5.212529  1.865096  -1.568034
N    -6.543463  2.254967  -1.781895
N    -4.649456  0.781212  -1.985256
H    -4.274344  1.030496  1.355927
H    -3.227039  0.206918  0.232330
H    -1.517091  2.196938  0.711935
H    -2.902510  2.995208  1.447068
H    -2.689918  1.986855  -1.455473
H    -2.599073  3.678345  -0.921406
H    -4.872989  3.750814  -0.895833
H    -7.139150  1.503177  -2.111640
H    -6.973141  2.755171  -1.007382
H    -5.328407  0.162930  -2.433515
N    -3.568954  -2.063140  2.522539
C    -2.941048  -2.686474  1.367691
H    -4.233869  -2.619535  3.050431
H    -3.132379  -2.125727  0.443243
H    -3.380199  -3.681840  1.241485
H    -1.857187  -2.807366  1.493889
