35
Energy: -21190.4280642 eV PBE+vdW (tier 2 basis)
C    -1.651341  -0.232752  -0.293567
C    -1.169719  -0.164195  1.139101
O    0.043929  -0.058526  1.389431
H    -1.260255  0.634084  -0.839606
H    -2.741977  -0.265512  -0.399573
H    -1.222603  -1.130449  -0.758555
N    -2.132419  -0.231794  2.089520
C    -2.042452  -0.291539  3.565404
C    -1.297375  0.846250  4.312544
O    -1.730511  1.180974  5.416596
H    -3.079951  -0.285974  1.735332
H    -3.077425  -0.122566  3.889166
C    -1.652572  -1.674102  4.140436
C    -0.231994  -2.215755  3.903850
C    -0.105856  -3.133095  2.672019
N    1.168200  -3.810757  2.532380
C    2.365954  -3.210101  2.163606
N    2.256826  -2.114669  1.315632
N    3.461608  -3.777876  2.552715
H    -2.390933  -2.408187  3.776377
H    -1.830451  -1.579287  5.220839
H    0.059884  -2.808619  4.783720
H    0.498654  -1.397422  3.839702
H    -0.318117  -2.581843  1.745806
H    -0.880492  -3.913858  2.731985
H    1.351041  -4.559476  3.193744
H    3.111399  -1.578711  1.228948
H    1.429578  -1.520442  1.358104
H    4.280288  -3.316057  2.149649
N    -0.202577  1.383619  3.734686
C    0.575204  2.409535  4.404990
H    0.135709  0.955754  2.865141
H    1.225378  2.898249  3.671377
H    1.197199  1.990840  5.210785
H    -0.093498  3.154355  4.852650
