35
Energy: -21190.2998001 eV PBE+vdW (tier 2 basis)
C    -1.809015  -0.459798  1.622057
C    -0.617078  0.413632  1.985630
O    0.470637  -0.077803  2.278779
H    -1.483408  -1.501580  1.680311
H    -2.162811  -0.257593  0.600768
H    -2.655788  -0.311419  2.304529
N    -0.795875  1.772934  1.981379
C    -1.950756  2.540542  1.563125
C    -1.466719  3.666440  0.628511
O    -0.314095  4.092158  0.701769
H    0.060866  2.319112  2.075402
H    -2.641807  1.879654  1.022354
C    -2.706233  3.193883  2.742738
C    -3.443739  2.203966  3.643432
C    -4.366736  2.890605  4.661391
N    -5.470519  3.632848  4.043798
C    -5.353447  4.941292  3.592839
N    -4.683490  5.789659  4.470793
N    -5.836770  5.250138  2.432624
H    -3.426394  3.914718  2.332963
H    -1.981791  3.778760  3.329887
H    -2.727100  1.564441  4.182345
H    -4.058264  1.527313  3.024046
H    -3.787906  3.583552  5.285715
H    -4.796249  2.137318  5.337906
H    -5.994604  3.093681  3.357559
H    -4.849119  5.631282  5.460313
H    -4.706965  6.769711  4.215347
H    -5.851129  6.264276  2.293786
N    -2.376189  4.193609  -0.239214
C    -3.784606  3.856574  -0.402732
H    -2.015457  4.987986  -0.758923
H    -4.427666  4.287221  0.382260
H    -3.929928  2.768403  -0.416495
H    -4.120299  4.239026  -1.373081
