35
Energy: -21190.3101092 eV PBE+vdW (tier 2 basis)
C    0.024736  0.532136  0.369455
C    -0.130738  0.012074  1.783449
O    0.840893  -0.396705  2.419781
H    -0.121732  -0.307173  -0.323823
H    1.046859  0.906743  0.261462
H    -0.688150  1.314513  0.090083
N    -1.382438  -0.049085  2.349232
C    -2.691139  0.435407  1.918007
C    -2.979914  0.113860  0.426755
O    -2.733611  -1.003700  -0.025480
H    -1.348975  -0.486704  3.265218
H    -3.414442  -0.222645  2.428120
C    -2.999079  1.863381  2.409007
C    -2.067558  2.980869  1.929113
C    -2.655914  4.381310  2.222460
N    -2.647961  5.302456  1.094053
C    -3.464645  5.091469  0.008687
N    -3.321730  6.070331  -0.976301
N    -4.244294  4.054597  -0.048075
H    -2.993479  1.839021  3.510779
H    -4.033631  2.112293  2.123460
H    -1.913715  2.905760  0.845462
H    -1.075906  2.874193  2.390266
H    -2.118635  4.875255  3.042231
H    -3.703316  4.279270  2.538476
H    -1.785700  5.802197  0.908901
H    -3.979032  5.999883  -1.744463
H    -3.211655  7.022982  -0.640898
H    -4.899453  4.138131  -0.828830
N    -3.563122  1.090880  -0.312601
C    -3.912598  0.842187  -1.698775
H    -3.747470  2.033453  0.049072
H    -4.188630  1.795138  -2.163029
H    -4.756003  0.141544  -1.787016
H    -3.063049  0.405981  -2.240823
