35
Energy: -21190.3053282 eV PBE+vdW (tier 2 basis)
C    -1.899108  0.170133  0.082588
C    -1.319656  -0.631995  1.232138
O    -0.108186  -0.804635  1.343293
H    -1.280278  0.016991  -0.806967
H    -1.847676  1.234375  0.352552
H    -2.942403  -0.079800  -0.148404
N    -2.261350  -1.140821  2.095114
C    -2.018021  -1.632927  3.452477
C    -1.414127  -0.485816  4.319129
O    -1.166054  0.611984  3.814884
H    -3.198929  -0.791703  1.936173
H    -3.030627  -1.769158  3.869999
C    -1.416275  -3.065601  3.488620
C    0.008218  -3.384097  3.008749
C    1.160725  -2.906319  3.894847
N    1.322919  -1.474007  3.847935
C    1.820632  -0.721219  4.883797
N    1.792905  0.646805  4.619818
N    2.284953  -1.140304  6.022120
H    -2.107425  -3.661014  2.872800
H    -1.531739  -3.453282  4.509932
H    0.159186  -3.018308  1.985727
H    0.076553  -4.482278  2.959004
H    2.084299  -3.431032  3.583055
H    0.978073  -3.208070  4.940276
H    1.078537  -1.018678  2.968908
H    2.058006  1.184170  5.438624
H    0.943630  0.984172  4.165242
H    2.393925  -2.156918  6.025784
N    -1.286993  -0.663677  5.663360
C    -1.481778  -1.837183  6.495113
H    -0.812718  0.120366  6.102794
H    -1.606772  -1.502217  7.531001
H    -0.623393  -2.524316  6.465685
H    -2.393357  -2.378905  6.214689
