35
Energy: -21190.185849 eV PBE+vdW (tier 2 basis)
C    -0.081550  -0.071750  -0.131428
C    0.169033  -0.108490  1.367358
O    1.303680  -0.201209  1.829406
H    0.892524  -0.052461  -0.626783
H    -0.656949  0.810726  -0.441393
H    -0.631585  -0.961466  -0.465935
N    -0.919368  -0.037799  2.202229
C    -2.343308  0.020209  1.877431
C    -2.941361  1.146083  2.749094
O    -3.258712  0.936626  3.917424
H    -0.681776  -0.090714  3.191123
H    -2.428152  0.274010  0.813783
C    -3.088888  -1.296752  2.143042
C    -2.536706  -2.483605  1.354908
C    -3.280759  -3.807601  1.591290
N    -4.639918  -3.853360  1.086739
C    -5.775338  -3.601241  1.843704
N    -6.940455  -3.650056  1.062550
N    -5.875439  -3.333182  3.098732
H    -4.151520  -1.137259  1.904655
H    -3.049501  -1.497287  3.224020
H    -1.477632  -2.642742  1.612767
H    -2.558984  -2.263099  0.273221
H    -3.312102  -4.042541  2.665213
H    -2.711217  -4.623058  1.118944
H    -4.751319  -3.722460  0.086953
H    -7.760398  -3.573915  1.658487
H    -6.999708  -4.458732  0.448101
H    -4.966151  -3.179444  3.538662
N    -3.067809  2.382905  2.182938
C    -2.563793  2.835311  0.896531
H    -3.386715  3.088364  2.840387
H    -1.465679  2.788737  0.835815
H    -2.865369  3.878636  0.756347
H    -2.991276  2.259374  0.064041
