35
Energy: -21190.6166433 eV PBE+vdW (tier 2 basis)
C    -0.281054  -1.463526  0.601465
C    -0.130266  -0.364957  1.645301
O    0.959405  0.168706  1.847061
H    0.635177  -1.475501  0.005222
H    -1.144417  -1.321080  -0.061712
H    -0.389553  -2.441259  1.091630
N    -1.233460  -0.014302  2.376455
C    -2.621460  -0.389856  2.192132
C    -3.476694  0.895165  2.157020
O    -3.099074  1.931968  2.705396
H    -1.104315  0.817314  2.954952
H    -2.733532  -0.903660  1.232382
C    -3.150581  -1.295172  3.334455
C    -2.772183  -2.775885  3.246827
C    -3.600373  -3.609805  2.254116
N    -3.268301  -3.456189  0.845101
C    -4.014738  -2.770886  -0.073581
N    -3.544649  -2.940450  -1.378793
N    -5.004161  -2.004936  0.280148
H    -4.247680  -1.217122  3.370305
H    -2.777158  -0.871296  4.278109
H    -2.928033  -3.230375  4.237904
H    -1.695899  -2.890744  3.039483
H    -4.665157  -3.360315  2.351264
H    -3.486751  -4.675657  2.507089
H    -2.358857  -3.778399  0.538478
H    -4.106187  -2.493448  -2.094165
H    -3.255765  -3.880007  -1.635751
H    -5.536026  -1.714288  -0.543499
N    -4.662294  0.733952  1.521024
C    -5.673423  1.770255  1.481064
H    -4.870444  -0.200386  1.140312
H    -6.574573  1.474004  2.038437
H    -5.962669  1.999869  0.445747
H    -5.254481  2.672319  1.940006
