35
Energy: -21190.124979 eV PBE+vdW (tier 2 basis)
C    -0.130222  1.881417  0.824364
C    0.206485  0.585428  1.525557
O    1.364500  0.181227  1.658288
H    0.790876  2.461260  0.723843
H    -0.888332  2.468857  1.357332
H    -0.515544  1.676090  -0.185496
N    -0.833237  -0.162652  2.016856
C    -2.264136  -0.011544  1.777856
C    -3.033023  0.751451  2.881516
O    -3.793784  1.661206  2.554377
H    -0.518875  -1.002291  2.496298
H    -2.392772  0.646995  0.910584
C    -2.906251  -1.381043  1.450645
C    -2.937731  -1.751510  -0.045957
C    -1.655951  -1.560405  -0.859915
N    -0.529976  -2.331046  -0.354095
C    0.682628  -2.339551  -1.060918
N    1.790959  -2.354372  -0.219495
N    0.832784  -2.402448  -2.339425
H    -3.941958  -1.384980  1.818720
H    -2.386636  -2.164233  2.026783
H    -3.716726  -1.144490  -0.531946
H    -3.260597  -2.800067  -0.128843
H    -1.409503  -0.482040  -0.934998
H    -1.867538  -1.886579  -1.887503
H    -0.381676  -2.228863  0.644397
H    2.653334  -2.358017  -0.756536
H    1.793289  -1.639249  0.511447
H    -0.064343  -2.530753  -2.814544
N    -2.879345  0.397295  4.191332
C    -2.049197  -0.634664  4.791159
H    -3.415899  0.989984  4.817251
H    -2.136599  -1.588727  4.255272
H    -2.405397  -0.812393  5.811740
H    -0.988341  -0.348152  4.844480
