35
Energy: -21190.3082425 eV PBE+vdW (tier 2 basis)
C    -0.192331  -0.231733  -0.252772
C    -0.152094  -0.289657  1.261489
O    0.817430  -0.739775  1.872491
H    0.686852  0.320212  -0.606726
H    -1.097592  0.240271  -0.653664
H    -0.117495  -1.253525  -0.645762
N    -1.257684  0.211084  1.896788
C    -1.419463  0.134074  3.342242
C    -2.349600  -1.055556  3.664270
O    -3.542525  -1.008448  3.356305
H    -2.087854  0.414117  1.349762
H    -0.410356  -0.025445  3.739342
C    -2.003687  1.432405  3.907698
C    -2.090359  1.422622  5.434790
C    -2.672780  2.719131  5.994091
N    -2.717807  2.670103  7.444846
C    -3.176161  3.696107  8.254777
N    -3.067154  4.976447  7.704746
N    -3.567589  3.405533  9.450091
H    -3.006988  1.581895  3.479006
H    -1.368030  2.263587  3.566658
H    -1.091879  1.264373  5.872365
H    -2.720874  0.579498  5.761900
H    -3.672998  2.887726  5.544956
H    -2.026793  3.556286  5.680771
H    -2.939266  1.767980  7.855688
H    -3.617317  5.677527  8.186334
H    -3.134671  5.056997  6.695444
H    -3.810004  4.245422  9.980319
N    -1.800767  -2.142042  4.269203
C    -0.413610  -2.356492  4.667314
H    -2.471390  -2.882985  4.451588
H    -0.263452  -3.430688  4.820839
H    -0.167540  -1.841908  5.608864
H    0.278006  -2.027417  3.881563
