35
Energy: -21190.1102141 eV PBE+vdW (tier 2 basis)
C    -0.679911  1.042491  0.229163
C    -0.769346  0.392563  1.598984
O    -0.065453  0.742256  2.540754
H    0.299400  0.806322  -0.206880
H    -0.728497  2.130687  0.352229
H    -1.462682  0.722777  -0.469966
N    -1.703815  -0.604429  1.713649
C    -1.856671  -1.443463  2.902965
C    -1.875561  -0.624388  4.222884
O    -1.152431  -0.923635  5.166762
H    -2.202160  -0.888091  0.878731
H    -2.855501  -1.905753  2.812461
C    -0.805701  -2.562071  2.965622
C    -1.203948  -3.752972  3.837566
C    -0.165017  -4.881688  3.818090
N    0.043965  -5.467639  2.496457
C    1.225891  -5.453771  1.770312
N    2.132145  -4.462123  2.141440
N    1.547111  -6.265971  0.817194
H    0.130825  -2.119552  3.336952
H    -0.637359  -2.911419  1.935376
H    -2.174059  -4.154673  3.495698
H    -1.339298  -3.422861  4.876940
H    -0.477029  -5.673295  4.517970
H    0.802219  -4.513261  4.185185
H    -0.574400  -6.228540  2.243511
H    2.908646  -4.429238  1.488323
H    1.745117  -3.544766  2.341495
H    0.874598  -7.034164  0.740310
N    -2.804849  0.373025  4.338965
C    -3.727523  0.904068  3.353926
H    -2.710034  0.881027  5.212774
H    -3.253122  1.617281  2.661697
H    -4.539146  1.420580  3.880345
H    -4.182407  0.099827  2.762616
