35
Energy: -21190.1869015 eV PBE+vdW (tier 2 basis)
C    0.965149  1.040539  1.751762
C    0.138463  -0.228335  1.773067
O    0.639629  -1.350324  1.789605
H    2.012264  0.761828  1.610452
H    0.866964  1.593520  2.696817
H    0.653397  1.722722  0.949364
N    -1.230920  -0.081676  1.770180
C    -2.000781  1.144552  1.914495
C    -1.820322  1.880220  3.261282
O    -1.718723  3.108995  3.259976
H    -1.728018  -0.967880  1.797665
H    -1.643035  1.886773  1.185653
C    -3.478290  0.851519  1.582485
C    -4.420187  2.065393  1.606890
C    -5.034903  2.365093  2.987056
N    -5.949868  3.489192  3.006912
C    -5.491116  4.808375  3.059793
N    -6.543146  5.721526  2.882569
N    -4.297880  5.244896  3.239046
H    -3.862673  0.070358  2.261436
H    -3.480009  0.406750  0.576342
H    -5.245701  1.876482  0.903620
H    -3.898203  2.960071  1.237650
H    -4.253332  2.564568  3.731407
H    -5.581873  1.476338  3.341056
H    -6.793004  3.371485  2.452022
H    -6.214138  6.667585  3.055281
H    -7.376616  5.509457  3.426011
H    -3.579435  4.515706  3.221867
N    -1.786756  1.178680  4.431009
C    -1.940766  -0.246895  4.688806
H    -1.643029  1.784630  5.233296
H    -2.810585  -0.664122  4.165663
H    -2.116994  -0.377514  5.762196
H    -1.050043  -0.827104  4.411862
