35
Energy: -21190.6612223 eV PBE+vdW (tier 2 basis)
C    -5.534291  -0.078955  1.812822
C    -4.030652  -0.164590  1.664289
O    -3.485611  -1.094204  1.057088
H    -5.893324  -0.985952  2.314623
H    -5.984343  -0.059014  0.812475
H    -5.873000  0.800333  2.373833
N    -3.314438  0.847721  2.230997
C    -1.854170  0.924614  2.136383
C    -1.246304  0.026941  3.243482
O    -0.873526  0.465069  4.336650
H    -3.792988  1.545337  2.789860
H    -1.597022  0.484333  1.161326
C    -1.393647  2.381783  2.180238
C    0.057106  2.615985  1.721131
C    1.105632  2.632731  2.842248
N    0.847135  3.708842  3.789961
C    1.108786  3.631530  5.155615
N    0.929396  2.375843  5.713760
N    1.493003  4.712761  5.754348
H    -1.518660  2.790574  3.195211
H    -2.072679  2.942388  1.521568
H    0.103718  3.583779  1.198598
H    0.349080  1.861587  0.972558
H    2.109036  2.734157  2.388854
H    1.106682  1.682539  3.385344
H    1.089533  4.640356  3.461974
H    0.227060  1.762887  5.294312
H    0.938104  2.362211  6.725682
H    1.529059  4.577994  6.768047
N    -1.204665  -1.282631  2.902663
C    -0.806487  -2.315815  3.840864
H    -1.731453  -1.542262  2.064531
H    -0.073862  -1.896859  4.538340
H    -0.353628  -3.151941  3.295936
H    -1.660580  -2.693071  4.424389
