35
Energy: -21190.3980121 eV PBE+vdW (tier 2 basis)
C    0.238331  1.627783  0.748577
C    0.318497  0.442693  1.689203
O    1.302821  0.209757  2.384881
H    1.161178  2.204578  0.846935
H    -0.622741  2.271314  0.975035
H    0.127570  1.299324  -0.294667
N    -0.786957  -0.382006  1.744247
C    -1.994475  -0.318272  0.927678
C    -2.934305  0.854696  1.290618
O    -3.637360  1.383475  0.432388
H    -0.643057  -1.210663  2.316211
H    -1.735768  -0.150519  -0.129047
C    -2.726902  -1.668645  1.046628
C    -4.044436  -1.771106  0.279141
C    -4.602551  -3.199790  0.324684
N    -5.925026  -3.345800  -0.264817
C    -7.048932  -3.004719  0.470975
N    -8.218066  -3.042962  -0.304868
N    -6.951654  -2.675332  1.713718
H    -2.917210  -1.870840  2.114538
H    -2.027665  -2.447001  0.696785
H    -3.897028  -1.458089  -0.766851
H    -4.789462  -1.089566  0.709626
H    -4.689287  -3.529845  1.368211
H    -3.921778  -3.894494  -0.191869
H    -5.991038  -3.130491  -1.254873
H    -9.070648  -2.958224  0.237867
H    -8.267280  -3.815730  -0.964373
H    -7.874470  -2.571308  2.141263
N    -2.935265  1.202480  2.605242
C    -3.781030  2.248621  3.143862
H    -2.252644  0.749532  3.203629
H    -4.453815  1.854354  3.917969
H    -4.382381  2.645105  2.318696
H    -3.182440  3.063573  3.574729
