35
Energy: -21190.4200696 eV PBE+vdW (tier 2 basis)
C    0.515813  -0.631477  -0.562942
C    0.313303  0.002576  0.796927
O    1.203124  0.649329  1.346758
H    1.584776  -0.588707  -0.789054
H    -0.023090  -0.064027  -1.335263
H    0.174129  -1.672555  -0.576825
N    -0.915641  -0.104264  1.419217
C    -2.106960  -0.891718  1.134688
C    -1.930515  -2.417050  1.360902
O    -0.858438  -2.993269  1.185659
H    -0.878407  0.310271  2.345586
H    -2.834233  -0.557151  1.886853
C    -2.739692  -0.645406  -0.251069
C    -3.155728  0.803972  -0.526026
C    -4.080929  1.426426  0.533840
N    -5.189115  0.538748  0.916405
C    -5.299179  -0.017821  2.175923
N    -5.063297  0.872927  3.213512
N    -5.559979  -1.285677  2.295842
H    -3.615434  -1.306902  -0.321224
H    -2.058878  -0.984443  -1.041777
H    -2.268079  1.448731  -0.608108
H    -3.651152  0.838878  -1.509423
H    -4.473153  2.381651  0.152007
H    -3.509729  1.658573  1.442257
H    -5.453564  -0.143758  0.211422
H    -5.219944  0.515014  4.147663
H    -5.370893  1.830756  3.078711
H    -5.816816  -1.521965  3.258306
N    -3.085123  -3.032288  1.733913
C    -3.175836  -4.469621  1.897654
H    -3.940111  -2.471766  1.857973
H    -3.497541  -4.732283  2.915501
H    -2.182514  -4.895155  1.719148
H    -3.888190  -4.907295  1.183249
