35
Energy: -21190.0192288 eV PBE+vdW (tier 2 basis)
C    -0.610757  0.204537  0.154151
C    -0.411747  0.134628  1.655335
O    0.680122  0.350926  2.181471
H    0.225753  -0.301877  -0.339719
H    -0.586928  1.260055  -0.148872
H    -1.555413  -0.237068  -0.186529
N    -1.525525  -0.173867  2.383707
C    -1.562664  -0.088426  3.846274
C    -0.954060  1.277382  4.283432
O    -1.536314  2.288845  3.890920
H    -2.412868  -0.192544  1.897340
H    -2.619436  0.099000  4.084930
C    -1.206228  -1.413912  4.556286
C    -0.086688  -2.271493  3.961433
C    0.218665  -3.503372  4.819218
N    0.792861  -3.168966  6.121773
C    0.090069  -3.374263  7.295222
N    0.887066  -3.156957  8.432536
N    -1.142861  -3.749043  7.275827
H    -2.120306  -2.027984  4.569125
H    -1.008514  -1.196244  5.615522
H    0.829243  -1.686351  3.810522
H    -0.387750  -2.619644  2.961185
H    0.922426  -4.159201  4.285572
H    -0.696504  -4.080908  5.009885
H    1.797760  -3.265092  6.204447
H    1.539352  -2.380083  8.354098
H    0.355486  -3.106684  9.295011
H    -1.536898  -3.776026  8.218332
N    0.072185  1.384122  5.184137
C    1.209112  0.496321  5.401595
H    0.259920  2.369655  5.350268
H    1.923531  1.026066  6.041909
H    1.703002  0.241792  4.453658
H    0.921715  -0.428603  5.915534
