35
Energy: -21190.1749727 eV PBE+vdW (tier 2 basis)
C    -0.052634  1.627499  -0.569950
C    0.480048  0.862896  0.617615
O    1.684942  0.780800  0.849243
H    0.719772  1.618430  -1.345354
H    -0.222128  2.679492  -0.280742
H    -0.984936  1.218070  -0.975041
N    -0.409088  0.228239  1.470510
C    -1.873767  0.174401  1.533439
C    -2.524597  -0.875859  0.601400
O    -3.735040  -1.088906  0.663039
H    0.085563  -0.203716  2.245817
H    -2.076900  -0.247815  2.527651
C    -2.585396  1.566532  1.498652
C    -3.528269  1.865831  0.327770
C    -3.981344  3.331524  0.281905
N    -2.929452  4.284974  -0.081782
C    -2.009549  4.804118  0.817373
N    -2.551239  5.171718  2.049932
N    -0.769509  4.884087  0.460356
H    -1.793204  2.323091  1.547154
H    -3.157991  1.679237  2.429448
H    -4.414917  1.220869  0.391601
H    -3.051950  1.620154  -0.635291
H    -4.401618  3.626659  1.252975
H    -4.793238  3.435327  -0.452604
H    -2.450641  4.055950  -0.949956
H    -1.917394  5.695063  2.642738
H    -3.482955  5.575929  2.019361
H    -0.213945  5.424024  1.128513
N    -1.677323  -1.541960  -0.225810
C    -2.119237  -2.602112  -1.109080
H    -0.687204  -1.345205  -0.128653
H    -1.816838  -2.400189  -2.145524
H    -3.212346  -2.646383  -1.054285
H    -1.709437  -3.575903  -0.804665
