35
Energy: -21190.2241708 eV PBE+vdW (tier 2 basis)
C    -0.002871  0.432747  0.127238
C    0.017644  0.034751  1.593660
O    0.978355  -0.528864  2.109835
H    0.799366  1.160189  -0.050051
H    -0.954546  0.866986  -0.204344
H    0.219633  -0.452188  -0.481306
N    -1.113645  0.338513  2.300396
C    -1.247041  0.092130  3.730522
C    -1.063449  -1.373723  4.180720
O    -0.481666  -1.599305  5.239678
H    -1.876301  0.811220  1.829337
H    -0.431342  0.609025  4.258359
C    -2.600354  0.655884  4.197405
C    -2.818491  0.605307  5.709430
C    -4.172717  1.175055  6.150070
N    -4.364327  2.591664  5.872110
C    -5.052855  3.043285  4.765882
N    -5.036162  4.446131  4.671693
N    -5.596762  2.222820  3.929866
H    -3.424937  0.128486  3.692823
H    -2.658227  1.701156  3.854670
H    -2.002620  1.143380  6.220451
H    -2.752962  -0.432038  6.069795
H    -4.292462  1.016235  7.232605
H    -4.992364  0.650888  5.642568
H    -3.671456  3.228664  6.249559
H    -5.664751  4.810371  3.963763
H    -5.151498  4.933827  5.557124
H    -6.167593  2.723654  3.245625
N    -1.624934  -2.394810  3.463742
C    -2.325818  -2.393386  2.191278
H    -1.395690  -3.299248  3.864080
H    -2.861136  -3.345701  2.096678
H    -1.647230  -2.293527  1.330206
H    -3.074151  -1.594144  2.142001
