35
Energy: -21190.2299464 eV PBE+vdW (tier 2 basis)
C    0.113234  -0.439118  0.383330
C    -0.142663  -0.474230  1.879455
O    0.777451  -0.550103  2.695424
H    0.844850  -1.214363  0.127077
H    0.560083  0.531792  0.131651
H    -0.793764  -0.569639  -0.219985
N    -1.454577  -0.393466  2.240483
C    -1.919210  -0.403459  3.623891
C    -1.023195  0.539172  4.472257
O    -0.972661  1.733195  4.199386
H    -2.155105  -0.543865  1.520650
H    -2.874977  0.142811  3.614087
C    -2.233054  -1.812803  4.175182
C    -1.193450  -2.932251  3.981869
C    -1.224029  -3.641622  2.612578
N    -2.526460  -4.194758  2.245697
C    -3.491633  -3.553769  1.481021
N    -2.990237  -2.670092  0.510655
N    -4.770061  -3.700854  1.565784
H    -3.181292  -2.139270  3.721267
H    -2.459545  -1.699329  5.246033
H    -1.363334  -3.696461  4.757864
H    -0.166945  -2.561815  4.128132
H    -0.488266  -4.459921  2.625149
H    -0.909927  -2.956595  1.820813
H    -2.932345  -4.818545  2.936472
H    -3.743681  -2.422419  -0.126729
H    -2.178134  -3.020078  0.006644
H    -5.031631  -4.257279  2.384448
N    -0.423601  -0.000847  5.573045
C    0.521301  0.785617  6.347289
H    -0.297686  -1.005768  5.579444
H    0.663225  0.321280  7.329956
H    0.117139  1.794579  6.478501
H    1.494393  0.871845  5.838821
