35
Energy: -21190.3270003 eV PBE+vdW (tier 2 basis)
C    0.210629  1.298664  1.860448
C    -0.436945  0.528601  2.995303
O    0.210604  0.033718  3.912641
H    -0.224311  2.300339  1.740354
H    0.091455  0.768819  0.904362
H    1.277223  1.388622  2.080627
N    -1.812458  0.415157  2.970748
C    -2.736721  0.864225  1.941033
C    -3.314813  2.286163  2.162457
O    -4.112792  2.760497  1.355487
H    -2.178270  -0.164534  3.722098
H    -2.183529  0.946995  0.994413
C    -3.863080  -0.161050  1.691925
C    -4.712450  -0.586249  2.898026
C    -5.529707  0.531987  3.543578
N    -6.450504  -0.024067  4.530797
C    -7.134406  0.775569  5.437276
N    -7.433142  2.054802  4.961266
N    -7.396954  0.301779  6.607766
H    -3.401900  -1.059093  1.256805
H    -4.513538  0.273076  0.920330
H    -4.088152  -1.073173  3.668468
H    -5.406724  -1.368376  2.553871
H    -6.092110  1.054057  2.753048
H    -4.864216  1.283829  4.002749
H    -6.128491  -0.867530  4.999070
H    -8.131174  2.546398  5.507387
H    -7.589063  2.141917  3.960920
H    -7.997230  0.933027  7.144053
N    -2.858696  2.942197  3.260281
C    -3.348473  4.250781  3.647218
H    -2.246701  2.426766  3.884235
H    -2.520824  4.880966  3.994884
H    -4.103587  4.179358  4.445013
H    -3.813800  4.711449  2.769349
