35
Energy: -21190.8422203 eV PBE+vdW (tier 2 basis)
C    1.607052  -0.407782  -0.234328
C    0.920289  0.504837  0.757592
O    0.428513  1.591902  0.410605
H    2.413605  0.145747  -0.731391
H    0.881659  -0.688410  -1.008782
H    2.010309  -1.314492  0.230012
N    0.869679  0.049215  2.037380
C    0.166647  0.809165  3.072889
C    1.091914  1.909866  3.659585
O    1.667486  1.839363  4.755666
H    1.433269  -0.780755  2.271726
H    -0.613691  1.352519  2.518428
C    -0.579864  -0.081970  4.081951
C    0.131515  -0.802011  5.242398
C    1.333215  -1.689544  4.910496
N    2.535761  -0.894354  4.688706
C    3.349145  -1.081282  3.604705
N    4.477201  -0.264839  3.605079
N    3.066205  -1.970433  2.695737
H    -1.114589  -0.828229  3.472934
H    -1.360918  0.550537  4.530587
H    -0.627091  -1.438900  5.722525
H    0.432689  -0.067815  6.003279
H    1.155159  -2.311580  4.022131
H    1.506596  -2.383023  5.750189
H    2.466455  0.068109  5.029106
H    4.831011  -0.016597  2.688833
H    4.475408  0.510053  4.261756
H    3.830648  -2.057468  2.022670
N    1.213357  2.967308  2.822393
C    2.117083  4.069707  3.083582
H    0.816824  2.842096  1.882962
H    1.679095  5.005608  2.716731
H    3.093664  3.924984  2.594608
H    2.279511  4.143564  4.163946
