35
Energy: -21190.1739985 eV PBE+vdW (tier 2 basis)
C    0.812136  -0.195010  0.092573
C    0.000665  -0.693884  1.275193
O    -0.373723  -1.857953  1.377092
H    1.756878  -0.751716  0.055991
H    1.035384  0.878846  0.125126
H    0.265624  -0.420470  -0.831414
N    -0.295922  0.249678  2.223777
C    -1.000302  -0.076472  3.453230
C    -2.496313  -0.448965  3.331622
O    -2.970225  -1.217410  4.165222
H    0.053316  1.192021  2.096992
H    -0.560783  -0.999009  3.860505
C    -0.843961  1.054302  4.482183
C    0.597894  1.275876  4.942439
C    0.711246  2.396089  5.984804
N    2.089221  2.747713  6.282687
C    2.813627  3.611106  5.469260
N    4.095949  3.856810  5.965661
N    2.433169  4.180093  4.376155
H    -1.479361  0.796551  5.341801
H    -1.256111  1.990559  4.064681
H    1.246482  1.526292  4.089573
H    1.001119  0.344957  5.368683
H    0.238697  2.080096  6.924846
H    0.146943  3.285205  5.644159
H    2.350486  2.762516  7.261682
H    4.589618  3.034553  6.301921
H    4.646014  4.393736  5.301726
H    1.433939  4.039721  4.208885
N    -3.287081  0.107371  2.365749
C    -2.994766  1.078706  1.325012
H    -4.234918  -0.253860  2.408386
H    -2.424920  1.933413  1.710568
H    -3.948397  1.468389  0.949995
H    -2.446112  0.643536  0.477139
