35
Energy: -21189.879498 eV PBE+vdW (tier 2 basis)
C    0.255167  0.943095  0.136780
C    -0.030250  0.680015  1.602448
O    0.895484  0.605358  2.411687
H    1.326975  1.140757  0.051437
H    0.010331  0.069686  -0.481848
H    -0.304532  1.800805  -0.253056
N    -1.320981  0.525188  2.058656
C    -2.674356  0.443155  1.495029
C    -3.365839  -0.907817  1.817125
O    -4.481291  -0.882932  2.340654
H    -1.302645  0.368313  3.064736
H    -3.291084  1.150199  2.070629
C    -2.854308  0.836280  0.013620
C    -4.298261  0.607519  -0.480477
C    -4.476788  -0.766177  -1.156589
N    -5.836106  -1.266679  -1.098986
C    -6.131455  -2.520240  -0.609333
N    -7.505305  -2.800251  -0.680893
N    -5.209929  -3.323634  -0.186836
H    -2.164461  0.282832  -0.636349
H    -2.584932  1.897003  -0.082498
H    -4.571295  1.405956  -1.185527
H    -5.000340  0.673221  0.361679
H    -3.871592  -1.530206  -0.658515
H    -4.123937  -0.720233  -2.201343
H    -6.519800  -0.866872  -1.730003
H    -7.768315  -3.649798  -0.192792
H    -8.105466  -2.023004  -0.414754
H    -5.629937  -4.159761  0.224541
N    -2.770874  -2.090454  1.487777
C    -1.534208  -2.328318  0.760319
H    -3.455031  -2.846571  1.469889
H    -1.532483  -1.888605  -0.250046
H    -1.420013  -3.410731  0.642500
H    -0.663831  -1.953500  1.310794
