35
Energy: -21190.4838924 eV PBE+vdW (tier 2 basis)
C    -0.601431  -2.206090  0.234763
C    -0.944523  -1.992836  1.697201
O    -1.365787  -2.895645  2.411279
H    -1.433720  -2.725616  -0.253963
H    0.274995  -2.864563  0.174119
H    -0.383764  -1.278545  -0.309742
N    -0.764356  -0.705782  2.160106
C    -0.834214  -0.374584  3.577918
C    -2.043032  0.510428  3.951489
O    -2.112344  1.054956  5.054678
H    -0.287432  -0.051024  1.549617
H    -1.035712  -1.335562  4.079812
C    0.498386  0.174227  4.119419
C    1.080999  1.409066  3.416107
C    0.293022  2.721603  3.590458
N    0.084162  3.129668  4.976134
C    1.147400  3.427184  5.816962
N    2.174875  4.158690  5.198814
N    1.128078  3.013165  7.038085
H    1.232140  -0.642448  4.061606
H    0.358013  0.390840  5.187016
H    1.217765  1.225371  2.334618
H    2.096875  1.568716  3.807178
H    -0.702771  2.648624  3.130417
H    0.816019  3.517776  3.040914
H    -0.614425  2.560040  5.457202
H    2.851076  4.533351  5.855321
H    1.859891  4.864634  4.537793
H    1.890339  3.426527  7.582940
N    -3.015691  0.601266  3.008031
C    -4.270740  1.288445  3.238701
H    -2.878094  0.069742  2.155668
H    -5.109612  0.580763  3.305476
H    -4.476527  2.008244  2.435132
H    -4.186515  1.824512  4.190058
