35
Energy: -21190.3189299 eV PBE+vdW (tier 2 basis)
C    -0.663187  -0.875232  -0.136961
C    -0.572361  -0.245739  1.240974
O    0.452141  0.274613  1.665312
H    -0.102083  -1.819422  -0.127551
H    -0.176422  -0.212759  -0.861199
H    -1.689766  -1.081478  -0.464751
N    -1.734786  -0.281252  1.983275
C    -1.771156  0.068870  3.406297
C    -1.381646  1.550953  3.653540
O    -0.831390  1.908403  4.695518
H    -2.500054  -0.842763  1.627805
H    -2.834187  -0.004566  3.691470
C    -0.958551  -0.878385  4.307308
C    -1.484031  -0.935297  5.757109
C    -0.377943  -1.068187  6.802637
N    0.464059  0.120038  6.784009
C    1.329029  0.483971  7.794882
N    1.671346  -0.556597  8.668033
N    1.815383  1.661637  8.011810
H    0.090622  -0.558982  4.290151
H    -0.992006  -1.882361  3.861143
H    -2.182305  -1.777621  5.871055
H    -2.054462  -0.023508  5.988490
H    0.216212  -1.977680  6.586746
H    -0.828304  -1.213938  7.798970
H    0.135975  0.877524  6.184496
H    2.434155  -0.264915  9.272355
H    1.852526  -1.453987  8.226612
H    1.391732  2.350343  7.383968
N    -1.779980  2.419757  2.690852
C    -1.429885  3.827675  2.732099
H    -2.087431  2.017016  1.812885
H    -2.211918  4.419590  2.242079
H    -0.465957  4.022350  2.237949
H    -1.346483  4.134054  3.779723
