35
Energy: -21190.2358797 eV PBE+vdW (tier 2 basis)
C    0.827357  0.574143  1.366256
C    -0.047171  -0.637425  1.618138
O    0.407255  -1.775491  1.715575
H    1.834862  0.222955  1.130017
H    0.872765  1.218266  2.255913
H    0.449504  1.195743  0.543331
N    -1.399724  -0.416293  1.738446
C    -2.101563  0.857281  1.793397
C    -1.742290  1.762007  2.995150
O    -1.556425  2.965108  2.804528
H    -1.932288  -1.263284  1.918674
H    -1.794730  1.471946  0.933993
C    -3.618957  0.599690  1.698390
C    -4.519911  1.835134  1.769430
C    -4.304000  2.880235  0.659414
N    -4.321132  2.367258  -0.703974
C    -5.476089  1.895068  -1.291642
N    -5.241949  1.366814  -2.574768
N    -6.602279  1.934379  -0.662989
H    -3.914212  -0.095365  2.500672
H    -3.799373  0.063870  0.752879
H    -4.391525  2.347909  2.735105
H    -5.562574  1.495242  1.721003
H    -3.345068  3.395843  0.801291
H    -5.098361  3.633826  0.740218
H    -3.456998  1.977732  -1.060982
H    -6.094267  1.151066  -3.081073
H    -4.600403  1.911478  -3.146656
H    -7.374953  1.663044  -1.275210
N    -1.647536  1.229794  4.248640
C    -1.830781  -0.137227  4.717561
H    -1.392276  1.928659  4.939562
H    -2.765547  -0.575162  4.345729
H    -1.899175  -0.111749  5.810728
H    -0.997279  -0.796860  4.439333
