35
Energy: -21190.3357189 eV PBE+vdW (tier 2 basis)
C    0.709464  -0.550772  2.108860
C    -0.132910  0.332223  1.208569
O    0.409851  1.059708  0.369538
H    0.976261  0.019826  3.009941
H    1.635731  -0.783338  1.574758
H    0.227645  -1.478352  2.434367
N    -1.499299  0.390425  1.378643
C    -2.417751  -0.639795  1.878709
C    -2.031184  -1.164093  3.283604
O    -2.058539  -2.356544  3.575907
H    -1.925203  1.011107  0.681017
H    -3.364017  -0.101020  2.053082
C    -2.753711  -1.771009  0.881354
C    -1.598187  -2.380721  0.061817
C    -1.588840  -2.001579  -1.431761
N    -1.402702  -0.582896  -1.735312
C    -2.410582  0.368377  -1.751939
N    -3.685119  -0.107492  -2.073328
N    -2.271247  1.626702  -1.480424
H    -3.513129  -1.381108  0.190107
H    -3.236296  -2.557609  1.475319
H    -1.657706  -3.478029  0.114823
H    -0.621092  -2.132056  0.497667
H    -2.524633  -2.340739  -1.895515
H    -0.782183  -2.556628  -1.934400
H    -0.523362  -0.190562  -1.403604
H    -4.305691  0.673257  -2.267278
H    -3.714660  -0.811248  -2.805318
H    -1.309438  1.830053  -1.186719
N    -1.736643  -0.174639  4.172901
C    -1.311692  -0.443181  5.532092
H    -1.655576  0.767420  3.804965
H    -1.825033  0.224538  6.235575
H    -0.224405  -0.317649  5.653312
H    -1.569761  -1.481193  5.766016
