35
Energy: -21190.1604269 eV PBE+vdW (tier 2 basis)
C    1.055386  0.582425  2.884684
C    0.202633  -0.374634  2.077103
O    0.568805  -1.513434  1.793252
H    2.052467  0.146636  2.985270
H    0.630977  0.736736  3.887018
H    1.128699  1.571869  2.413966
N    -1.027183  0.082679  1.664054
C    -1.684840  1.332793  2.014784
C    -1.999020  1.511209  3.518748
O    -1.786379  2.599565  4.053802
H    -1.550454  -0.601432  1.124451
H    -1.011179  2.175893  1.799966
C    -2.944324  1.507866  1.147029
C    -3.639378  2.858592  1.327089
C    -4.905801  3.007628  0.470607
N    -4.718695  2.845259  -0.974225
C    -3.816891  3.628654  -1.691459
N    -3.844662  4.981738  -1.351919
N    -3.049193  3.056238  -2.555352
H    -3.655864  0.691133  1.360560
H    -2.627740  1.390638  0.098818
H    -2.937619  3.668408  1.077774
H    -3.917082  3.012316  2.380756
H    -5.359921  3.988410  0.673033
H    -5.658356  2.263007  0.769965
H    -4.614581  1.879701  -1.275178
H    -3.329680  5.583691  -1.983851
H    -4.754743  5.358988  -1.103699
H    -2.542360  3.740778  -3.123261
N    -2.527372  0.472806  4.234327
C    -2.857746  -0.889727  3.838288
H    -2.665497  0.718841  5.209679
H    -3.468530  -1.332210  4.633280
H    -1.968989  -1.519423  3.693955
H    -3.456423  -0.914893  2.919074
