35
Energy: -21190.0510641 eV PBE+vdW (tier 2 basis)
C    1.762491  0.317174  0.808953
C    1.029794  0.654053  2.094816
O    1.610622  1.058966  3.096918
H    2.365791  1.182787  0.510460
H    1.100700  0.039196  -0.020872
H    2.454144  -0.511655  1.006685
N    -0.334461  0.486961  2.053773
C    -1.150709  0.593243  3.268652
C    -2.431203  -0.240861  3.115121
O    -2.697718  -1.122308  3.929664
H    -0.718110  -0.030183  1.271170
H    -0.603199  0.099637  4.084305
C    -1.368222  2.064042  3.698994
C    -2.070663  2.244589  5.051464
C    -3.600804  2.097761  5.010502
N    -4.251606  2.431265  6.272576
C    -4.905945  3.622054  6.542949
N    -4.529036  4.687297  5.718447
N    -5.812265  3.820578  7.440595
H    -1.903769  2.622506  2.917102
H    -0.361882  2.497770  3.759547
H    -1.828543  3.248374  5.433872
H    -1.657776  1.539925  5.789992
H    -3.875580  1.065165  4.759366
H    -4.014267  2.744318  4.220892
H    -4.551950  1.652679  6.844644
H    -3.528966  4.789481  5.567328
H    -4.954296  5.547728  6.051935
H    -6.109761  2.941318  7.872519
N    -3.255816  -0.017355  2.038337
C    -3.341380  1.134678  1.150131
H    -4.072904  -0.622352  2.070609
H    -3.986722  1.928346  1.558659
H    -3.755396  0.813577  0.186321
H    -2.350889  1.560766  0.964235
