35
Energy: -21190.2564879 eV PBE+vdW (tier 2 basis)
C    -0.087028  -0.037054  -0.010893
C    0.047569  -0.083402  1.501537
O    1.137703  -0.172021  2.058681
H    0.915560  -0.124957  -0.436841
H    -0.534645  0.907455  -0.351305
H    -0.711557  -0.856694  -0.392299
N    -1.111503  -0.006297  2.238843
C    -2.489826  -0.016425  1.755499
C    -3.289248  0.945476  2.664159
O    -3.935393  0.534067  3.626284
H    -0.968563  -0.114231  3.240749
H    -2.482717  0.382280  0.731808
C    -3.113700  -1.416075  1.738196
C    -4.466431  -1.461107  1.026412
C    -5.078421  -2.870360  1.034487
N    -6.335880  -2.995925  0.319105
C    -6.389813  -3.063106  -1.068238
N    -7.701296  -2.983892  -1.551331
N    -5.416649  -3.181484  -1.905373
H    -3.219524  -1.761325  2.777397
H    -2.401662  -2.093181  1.240780
H    -4.358015  -1.119079  -0.015550
H    -5.168214  -0.769456  1.516977
H    -5.249940  -3.191263  2.072609
H    -4.371052  -3.597277  0.605713
H    -7.127316  -2.525069  0.747050
H    -7.724651  -3.179777  -2.548125
H    -8.375360  -3.546812  -1.038783
H    -4.507555  -3.102325  -1.444764
N    -3.211831  2.275106  2.367258
C    -2.396024  2.918011  1.349058
H    -3.687519  2.866367  3.041677
H    -1.320380  2.763655  1.518793
H    -2.595470  3.994100  1.377135
H    -2.650495  2.564593  0.339697
