35
Energy: -21190.1299607 eV PBE+vdW (tier 2 basis)
C    -0.929957  -0.750246  -0.826081
C    -0.512087  -0.143571  0.496413
O    0.594213  0.372291  0.640843
H    -0.460718  -0.166742  -1.623960
H    -2.009318  -0.800030  -0.991679
H    -0.534613  -1.774360  -0.883773
N    -1.361882  -0.231669  1.578514
C    -2.763423  -0.633351  1.711165
C    -3.133843  -1.916216  0.938593
O    -4.109085  -1.975993  0.186308
H    -0.954952  0.218196  2.395002
H    -2.859174  -0.945516  2.767561
C    -3.766482  0.530524  1.547422
C    -3.705373  1.422335  0.299332
C    -4.364226  0.887310  -0.987365
N    -5.702632  0.328581  -0.822508
C    -6.784015  1.056872  -0.345034
N    -6.774706  2.409321  -0.697438
N    -7.762190  0.607460  0.369139
H    -3.600390  1.182668  2.418452
H    -4.780995  0.125974  1.672848
H    -2.662977  1.700481  0.075088
H    -4.213401  2.361830  0.560741
H    -3.765285  0.086327  -1.436288
H    -4.381726  1.699948  -1.729042
H    -5.664405  -0.623916  -0.465823
H    -7.670866  2.836818  -0.483286
H    -6.467921  2.606129  -1.645889
H    -7.585819  -0.358155  0.660878
N    -2.376885  -3.025522  1.173439
C    -1.254857  -3.211372  2.080302
H    -2.694139  -3.831345  0.643384
H    -1.160137  -4.281826  2.294336
H    -1.423078  -2.696428  3.034412
H    -0.304758  -2.852574  1.659959
