35
Energy: -21190.476151 eV PBE+vdW (tier 2 basis)
C    1.361223  -2.118301  -0.062484
C    1.483942  -1.112505  1.062267
O    2.439712  -1.121169  1.846172
H    0.468871  -1.978581  -0.684626
H    1.345631  -3.128217  0.365791
H    2.253463  -2.045945  -0.696677
N    0.483305  -0.189504  1.150237
C    0.469518  0.849961  2.180749
C    -0.143755  0.260715  3.482320
O    -1.325062  0.425637  3.785306
H    -0.331830  -0.282841  0.554628
H    1.526864  1.090305  2.369940
C    -0.281259  2.092456  1.697198
C    0.148547  3.399477  2.377937
C    -0.097074  3.471265  3.893567
N    0.230150  4.777868  4.458222
C    1.373707  5.068656  5.185119
N    2.435114  4.186263  4.968246
N    1.530710  6.037080  6.024877
H    -1.359604  1.926596  1.846553
H    -0.105681  2.196824  0.616275
H    -0.389666  4.234680  1.904764
H    1.217531  3.581852  2.173366
H    0.489893  2.709971  4.425921
H    -1.152006  3.247730  4.105432
H    -0.549820  5.390788  4.657394
H    3.272940  4.528038  5.429717
H    2.605249  3.930237  3.999774
H    0.645409  6.516049  6.212072
N    0.751225  -0.452926  4.212637
C    0.374587  -1.188122  5.404714
H    1.644803  -0.653608  3.759919
H    1.131458  -1.054800  6.187810
H    0.261229  -2.263914  5.201565
H    -0.585324  -0.798015  5.758299
