35
Energy: -21190.1943479 eV PBE+vdW (tier 2 basis)
C    -0.531234  -0.755209  -0.080959
C    -0.388413  -0.753824  1.430913
O    0.619183  -1.172860  1.994972
H    0.333304  -0.240619  -0.517043
H    -1.451047  -0.278252  -0.441910
H    -0.506415  -1.793879  -0.434419
N    -1.458264  -0.240576  2.119129
C    -1.550362  -0.324434  3.580651
C    -3.012282  -0.170475  4.037279
O    -3.548918  -1.062303  4.693407
H    -2.313438  -0.072499  1.602298
H    -1.277187  -1.346336  3.880357
C    -0.594315  0.654792  4.292581
C    -0.654544  0.536157  5.816714
C    0.160158  1.611339  6.549745
N    -0.348752  2.972314  6.392286
C    -0.145295  3.775878  5.280865
N    1.152371  3.799691  4.784486
N    -1.131476  4.500489  4.855431
H    -0.825887  1.681002  3.981975
H    0.420726  0.429668  3.937110
H    -0.293809  -0.456561  6.130623
H    -1.698363  0.597881  6.166181
H    1.212408  1.574899  6.229931
H    0.174119  1.388797  7.626482
H    -1.301776  3.100904  6.724214
H    1.795394  3.081307  5.096070
H    1.241085  4.024148  3.801741
H    -0.815091  5.181728  4.160123
N    -3.706986  0.960206  3.693694
C    -3.245596  2.235608  3.147869
H    -4.642234  0.951465  4.092395
H    -4.089478  2.719299  2.640612
H    -2.457372  2.080344  2.403552
H    -2.856212  2.921823  3.916945
