35
Energy: -21190.5218639 eV PBE+vdW (tier 2 basis)
C    0.335913  -1.590380  2.176164
C    -0.254367  -0.194349  2.143618
O    0.455251  0.810746  2.009427
H    -0.395757  -2.373222  2.408514
H    1.142962  -1.615232  2.917704
H    0.785399  -1.802131  1.196446
N    -1.605875  -0.131032  2.233894
C    -2.376392  1.099133  2.212290
C    -3.817920  0.676112  2.541327
O    -4.179476  -0.496102  2.399442
H    -2.182108  -0.970937  2.288216
H    -1.991434  1.762535  3.004119
C    -2.311759  1.897819  0.882064
C    -2.618954  1.135778  -0.414239
C    -1.453546  0.289645  -0.980827
N    -0.167731  0.959270  -1.041281
C    0.118527  1.923140  -1.996401
N    1.284738  2.635849  -1.705774
N    -0.544979  2.222476  -3.063139
H    -1.314331  2.351924  0.817992
H    -3.013177  2.738936  0.970005
H    -2.898383  1.884316  -1.169791
H    -3.494833  0.479484  -0.289527
H    -1.719388  -0.050977  -1.993005
H    -1.319986  -0.621861  -0.385890
H    0.292458  1.081391  -0.139187
H    1.596491  3.170949  -2.510237
H    2.031402  2.094842  -1.279448
H    -1.427514  1.709949  -3.114058
N    -4.685901  1.630460  2.973366
C    -4.450877  3.039309  3.239818
H    -5.628307  1.275138  3.104769
H    -5.101314  3.361142  4.061820
H    -4.657693  3.673981  2.364654
H    -3.414693  3.209953  3.551769
