35
Energy: -21190.437674 eV PBE+vdW (tier 2 basis)
C    0.857180  -0.006106  0.070315
C    0.107533  -1.053096  0.870577
O    0.300915  -2.258521  0.711816
H    0.622205  1.025156  0.360822
H    0.620451  -0.140502  -0.992715
H    1.933920  -0.176311  0.189997
N    -0.782450  -0.562620  1.789164
C    -1.650847  -1.432378  2.568554
C    -3.062866  -1.417249  1.946867
O    -3.774849  -0.411535  2.056726
H    -1.007412  0.426646  1.776088
H    -1.199666  -2.428766  2.500319
C    -1.715170  -1.001055  4.040004
C    -2.681384  -1.876163  4.867890
C    -3.939843  -1.119814  5.336004
N    -5.003950  -1.980608  5.827265
C    -5.835899  -2.662064  4.938692
N    -6.534400  -3.706805  5.561580
N    -6.010588  -2.447882  3.682093
H    -2.034638  0.051939  4.085465
H    -0.694532  -1.042328  4.442529
H    -2.162974  -2.290442  5.744842
H    -3.006125  -2.745478  4.275031
H    -4.337675  -0.515426  4.509846
H    -3.676455  -0.410290  6.134709
H    -4.760072  -2.524203  6.650795
H    -7.268582  -4.051626  4.949187
H    -6.896597  -3.477600  6.483941
H    -5.399748  -1.708373  3.326482
N    -3.480712  -2.522096  1.282315
C    -2.799304  -3.801327  1.131096
H    -4.451598  -2.468597  0.984398
H    -3.256765  -4.336133  0.291481
H    -2.896626  -4.431571  2.029048
H    -1.738167  -3.653565  0.897639
