35
Energy: -21189.9870581 eV PBE+vdW (tier 2 basis)
C    0.437893  0.476705  -0.376407
C    0.382291  0.573472  1.129004
O    1.369998  0.381973  1.829880
H    1.381752  -0.008217  -0.639061
H    0.439447  1.486035  -0.812509
H    -0.398474  -0.098835  -0.785039
N    -0.784379  1.022841  1.758174
C    -2.183634  0.975113  1.338804
C    -2.673000  -0.476131  1.107570
O    -1.941023  -1.351144  0.657095
H    -0.652203  0.955201  2.765323
H    -2.735282  1.385073  2.198216
C    -2.557497  1.858022  0.125972
C    -2.545473  3.382977  0.370883
C    -1.297950  4.146790  -0.077943
N    -0.159724  3.929744  0.810601
C    1.139565  4.289574  0.454442
N    1.206176  5.379501  -0.419324
N    2.232913  3.724358  0.831615
H    -3.573366  1.562189  -0.173757
H    -1.921865  1.601957  -0.731595
H    -2.739993  3.598647  1.434734
H    -3.390410  3.817807  -0.182132
H    -1.554322  5.218834  -0.097411
H    -1.055867  3.869029  -1.121315
H    -0.201702  3.054794  1.330547
H    2.165738  5.701338  -0.507347
H    0.558339  6.137967  -0.225601
H    2.066282  2.858820  1.352385
N    -3.984475  -0.729641  1.407154
C    -4.956404  0.146159  2.042233
H    -4.255659  -1.690853  1.224848
H    -5.906195  -0.393107  2.119232
H    -5.143255  1.057871  1.456729
H    -4.656834  0.438132  3.060325
