35
Energy: -21190.2229999 eV PBE+vdW (tier 2 basis)
C    0.331342  0.362493  0.858815
C    -0.268274  -0.237140  2.112545
O    0.427090  -0.606608  3.057855
H    1.385988  0.075862  0.822418
H    0.276123  1.459007  0.920449
H    -0.181350  0.054841  -0.059888
N    -1.640451  -0.337687  2.207251
C    -2.714252  -0.012237  1.258831
C    -2.661942  -0.962115  0.034115
O    -2.182579  -0.618640  -1.048354
H    -1.926675  -0.716936  3.104506
H    -3.638508  -0.239832  1.808799
C    -2.793066  1.467177  0.835940
C    -4.244241  1.955010  0.735799
C    -5.088756  1.223960  -0.321766
N    -6.525100  1.383822  -0.137159
C    -7.183450  0.627544  0.812028
N    -8.515353  1.028885  0.986209
N    -6.575959  -0.315522  1.457913
H    -2.264949  1.602356  -0.118203
H    -2.269580  2.067101  1.592412
H    -4.254998  3.036436  0.526884
H    -4.731368  1.816164  1.713215
H    -4.905129  0.144679  -0.290050
H    -4.826341  1.562184  -1.333684
H    -6.892177  2.321376  -0.264737
H    -9.068881  0.388066  1.544258
H    -8.997596  1.297753  0.132240
H    -7.238969  -0.842147  2.031352
N    -3.158491  -2.216236  0.222133
C    -3.815609  -2.754424  1.404075
H    -3.059891  -2.816013  -0.590481
H    -4.207863  -3.745940  1.154035
H    -4.664011  -2.124225  1.707337
H    -3.117726  -2.873961  2.246424
