35
Energy: -21190.288493 eV PBE+vdW (tier 2 basis)
C    1.510967  0.141116  0.180491
C    0.966980  0.448937  1.562358
O    1.704369  0.709423  2.511022
H    0.789907  -0.364382  -0.474138
H    2.408687  -0.478047  0.279913
H    1.806627  1.088712  -0.290532
N    -0.397612  0.426530  1.669675
C    -1.118887  0.936956  2.834174
C    -0.536641  2.316804  3.247738
O    -0.311399  3.164809  2.386917
H    -0.920674  0.346647  0.807008
H    -2.107873  1.227932  2.445034
C    -1.406763  -0.142984  3.906489
C    -0.293671  -1.083012  4.388693
C    0.812572  -0.517868  5.286695
N    0.338012  0.288812  6.423930
C    -0.310243  -0.311386  7.504470
N    -0.596587  0.589700  8.536201
N    -0.665769  -1.546826  7.455329
H    -2.183940  -0.790238  3.471590
H    -1.899692  0.337843  4.766188
H    0.208881  -1.531917  3.518943
H    -0.782256  -1.903129  4.929375
H    1.457479  0.139902  4.691780
H    1.418400  -1.364265  5.649048
H    1.025277  0.980931  6.710907
H    -0.702513  0.171954  9.453127
H    -0.079290  1.462875  8.555558
H    -1.215274  -1.805714  8.278624
N    -0.436938  2.554746  4.580078
C    0.076973  3.814161  5.078908
H    -0.479105  1.767818  5.229774
H    -0.208542  4.612755  4.385646
H    -0.350189  4.022593  6.068068
H    1.177070  3.814522  5.152863
