35
Energy: -21190.4752818 eV PBE+vdW (tier 2 basis)
C    -0.521821  -0.443456  0.232792
C    -0.904461  0.335202  1.475363
O    -0.869934  1.571829  1.502739
H    0.503058  -0.172828  -0.049749
H    -1.179600  -0.136989  -0.590284
H    -0.585547  -1.530837  0.357047
N    -1.283793  -0.412564  2.541507
C    -1.669762  0.133737  3.827637
C    -1.707493  -1.061068  4.796915
O    -1.726619  -2.223873  4.391092
H    -1.296057  -1.432178  2.508852
H    -0.885366  0.833926  4.162258
C    -3.026019  0.903580  3.790610
C    -2.855110  2.426588  3.857974
C    -3.956332  3.188488  3.102840
N    -3.630622  4.584739  2.880197
C    -3.100464  5.087661  1.701506
N    -2.489613  4.146665  0.879463
N    -3.260848  6.348609  1.457515
H    -3.684067  0.546515  4.596191
H    -3.523278  0.624765  2.850224
H    -1.891575  2.689368  3.402732
H    -2.813921  2.775359  4.902296
H    -4.908595  3.133956  3.651347
H    -4.126713  2.692965  2.132754
H    -4.173561  5.288214  3.365906
H    -1.978602  4.550507  0.104238
H    -2.002029  3.349188  1.288889
H    -2.749053  6.629403  0.618063
N    -1.733318  -0.721931  6.112264
C    -1.843160  -1.698257  7.180905
H    -1.703617  0.262278  6.352583
H    -2.793802  -1.593955  7.722701
H    -1.013573  -1.594107  7.892699
H    -1.801193  -2.693357  6.726957
