35
Energy: -21190.3508583 eV PBE+vdW (tier 2 basis)
C    0.107102  0.859974  0.069322
C    0.207922  0.189220  1.425257
O    1.281448  -0.016748  1.984729
H    1.106995  1.194520  -0.217981
H    -0.577963  1.718631  0.083536
H    -0.262311  0.156527  -0.690781
N    -0.976636  -0.174889  2.029857
C    -2.328215  -0.111808  1.488271
C    -3.094287  1.194645  1.810801
O    -4.204376  1.394000  1.323246
H    -0.841192  -0.679983  2.902905
H    -2.270560  -0.137098  0.389827
C    -3.152475  -1.324826  1.946386
C    -2.661512  -2.650026  1.361056
C    -3.443315  -3.845870  1.899209
N    -2.938368  -5.086621  1.332270
C    -3.681474  -6.250080  1.441167
N    -3.059765  -7.366710  0.867973
N    -4.865083  -6.221688  1.951675
H    -4.194902  -1.140002  1.654623
H    -3.141106  -1.364690  3.049861
H    -1.587976  -2.781553  1.582261
H    -2.750622  -2.624679  0.263527
H    -4.505999  -3.779339  1.632751
H    -3.407044  -3.860801  3.004944
H    -1.930339  -5.199525  1.367233
H    -3.308399  -8.253776  1.289321
H    -2.070171  -7.293969  0.654042
H    -5.332709  -7.124511  1.840288
N    -2.453060  2.059127  2.640286
C    -3.020615  3.331191  3.040645
H    -1.529763  1.789932  2.963153
H    -4.007326  3.415849  2.572554
H    -2.393036  4.169451  2.707255
H    -3.135981  3.387852  4.131829
