35
Energy: -21190.2275313 eV PBE+vdW (tier 2 basis)
C    -0.472448  -0.341646  -0.726621
C    0.050906  -0.421300  0.698116
O    1.234876  -0.630457  0.947543
H    0.367714  -0.530627  -1.399569
H    -0.890514  0.649484  -0.953058
H    -1.258650  -1.085396  -0.916400
N    -0.858093  -0.236047  1.712795
C    -2.308604  -0.097213  1.604450
C    -2.732465  0.943136  2.661722
O    -3.026423  0.613017  3.808723
H    -0.474065  -0.380513  2.644381
H    -2.515038  0.301328  0.604345
C    -3.050383  -1.429031  1.785961
C    -4.571037  -1.352899  1.603180
C    -5.012387  -0.797641  0.240763
N    -6.440221  -0.927832  -0.019656
C    -6.947292  -2.136658  -0.471644
N    -8.350953  -2.147320  -0.486649
N    -6.159241  -3.103240  -0.797244
H    -2.824285  -1.814281  2.789908
H    -2.626348  -2.142945  1.062787
H    -5.012137  -0.749989  2.412314
H    -4.979210  -2.368361  1.700449
H    -4.498652  -1.336768  -0.566729
H    -4.761515  0.270820  0.148452
H    -7.046945  -0.437619  0.630753
H    -8.747071  -2.947517  -0.967915
H    -8.780895  -1.276611  -0.789354
H    -6.676331  -3.877020  -1.220373
N    -2.737122  2.252525  2.268936
C    -2.244707  2.805171  1.016694
H    -2.931760  2.897567  3.028737
H    -2.382671  3.891148  1.041342
H    -2.807847  2.424094  0.152607
H    -1.174966  2.600030  0.861215
