35
Energy: -21190.711024 eV PBE+vdW (tier 2 basis)
C    -0.326732  0.244541  -0.539204
C    -0.590307  0.223968  0.951014
O    -0.318660  1.197865  1.670426
H    0.744520  0.411512  -0.707464
H    -0.861062  1.095506  -0.980168
H    -0.631458  -0.674418  -1.054376
N    -1.142701  -0.913289  1.444568
C    -1.467358  -1.099437  2.859726
C    -0.245479  -1.721634  3.580667
O    -0.153836  -2.921948  3.827288
H    -1.256486  -1.708257  0.824841
H    -1.629420  -0.092919  3.260580
C    -2.727874  -1.946276  3.038137
C    -3.993810  -1.412251  2.351802
C    -4.529910  -0.075954  2.880749
N    -3.680441  1.051152  2.539576
C    -3.334894  2.025710  3.455714
N    -2.491393  2.990598  2.886465
N    -3.788297  1.983069  4.664889
H    -2.906849  -2.038094  4.119548
H    -2.513215  -2.969417  2.692055
H    -4.788412  -2.163322  2.480248
H    -3.835379  -1.336549  1.262238
H    -4.596572  -0.082199  3.977036
H    -5.556446  0.080597  2.505740
H    -3.618928  1.323488  1.566154
H    -2.163589  3.674454  3.560549
H    -1.715118  2.588389  2.353256
H    -3.341103  2.696988  5.244030
N    0.709626  -0.797361  3.879597
C    1.992296  -1.152510  4.453722
H    0.559963  0.148597  3.533381
H    1.944024  -2.203405  4.757892
H    2.210085  -0.532911  5.333839
H    2.809214  -1.032285  3.726486
