35
Energy: -21189.9532857 eV PBE+vdW (tier 2 basis)
C    0.113772  0.202358  0.450401
C    -0.019051  0.277536  1.955892
O    0.939960  0.542866  2.676166
H    -0.471401  0.997394  -0.031379
H    -0.228955  -0.769637  0.077034
H    1.170109  0.338928  0.204682
N    -1.261390  0.099562  2.537944
C    -2.530872  -0.414898  2.038864
C    -2.466547  -1.932637  1.738262
O    -1.437262  -2.489754  1.370442
H    -1.175106  0.120748  3.549959
H    -3.209618  -0.287706  2.892802
C    -3.158482  0.396430  0.859031
C    -3.262098  -0.296646  -0.505554
C    -3.654350  0.673271  -1.622933
N    -2.585863  1.619907  -1.894814
C    -2.816839  2.799526  -2.601357
N    -1.630504  3.488003  -2.866853
N    -3.938492  3.281666  -3.010613
H    -2.580014  1.322982  0.754602
H    -4.167863  0.713193  1.160827
H    -4.014096  -1.099251  -0.474695
H    -2.315580  -0.791727  -0.768450
H    -4.541258  1.248867  -1.315341
H    -3.941371  0.103245  -2.526168
H    -1.687413  1.191239  -2.102494
H    -1.821838  4.399727  -3.271623
H    -0.979036  3.538543  -2.088236
H    -4.704549  2.615546  -2.892384
N    -3.632692  -2.632125  1.898686
C    -4.942386  -2.138769  2.289978
H    -3.548706  -3.610683  1.641200
H    -4.900830  -1.567992  3.228133
H    -5.599199  -2.997996  2.460881
H    -5.409816  -1.507318  1.518212
