35
Energy: -21190.5844436 eV PBE+vdW (tier 2 basis)
C    0.856771  -0.464410  1.277984
C    0.401210  -0.071418  2.666208
O    1.130235  0.569031  3.435691
H    1.080830  0.448731  0.712156
H    0.119170  -1.055213  0.721730
H    1.789627  -1.035533  1.358532
N    -0.855177  -0.460440  3.015593
C    -1.497814  -0.087956  4.278067
C    -1.053242  -1.010450  5.451461
O    -1.837622  -1.754159  6.051404
H    -1.383307  -1.043148  2.375850
H    -1.129949  0.922062  4.517782
C    -3.017901  -0.050562  4.117763
C    -3.656823  -1.368596  3.629388
C    -4.840885  -1.805238  4.516240
N    -5.326426  -3.147070  4.282668
C    -4.612122  -4.299704  4.585313
N    -3.683257  -4.174180  5.610746
N    -4.934484  -5.386044  3.958977
H    -3.268498  0.778028  3.440766
H    -3.435446  0.215065  5.099741
H    -2.919160  -2.184207  3.647157
H    -4.000205  -1.279453  2.587563
H    -5.686206  -1.114736  4.379255
H    -4.541829  -1.708407  5.570521
H    -5.921706  -3.296964  3.474963
H    -3.054211  -4.962687  5.694053
H    -3.214903  -3.281357  5.768381
H    -4.405577  -6.186193  4.313792
N    0.258216  -0.886968  5.755222
C    0.907697  -1.673894  6.785214
H    0.811139  -0.262858  5.156514
H    1.507164  -1.026914  7.438406
H    1.566505  -2.440590  6.351082
H    0.134652  -2.170246  7.380734
