35
Energy: -21190.0556975 eV PBE+vdW (tier 2 basis)
C    0.464080  0.046969  0.248479
C    0.110995  0.252611  1.707656
O    0.827612  0.893446  2.474166
H    -0.095100  -0.767739  -0.228087
H    1.538108  -0.150644  0.166060
H    0.253339  0.979733  -0.292462
N    -1.066376  -0.316944  2.115595
C    -1.667304  -0.009501  3.415622
C    -1.681041  1.538405  3.611764
O    -2.317433  2.180688  2.774761
H    -1.684991  -0.666722  1.394529
H    -2.743272  -0.183696  3.271546
C    -1.239952  -0.985622  4.537381
C    0.219914  -1.439510  4.579801
C    0.517785  -2.392461  5.749453
N    0.322339  -1.847220  7.084256
C    1.191106  -0.929375  7.656245
N    0.701510  -0.420578  8.868182
N    2.324116  -0.507581  7.211497
H    -1.867498  -1.886259  4.423477
H    -1.539208  -0.540359  5.498333
H    0.895278  -0.577767  4.614600
H    0.461295  -1.971401  3.647066
H    1.556632  -2.748056  5.678165
H    -0.116954  -3.288873  5.674576
H    -0.637850  -1.781676  7.403859
H    1.415512  0.139611  9.325938
H    0.317438  -1.122684  9.495999
H    2.510978  -0.840125  6.263434
N    -1.165521  2.161359  4.712276
C    -0.037902  1.792715  5.563313
H    -1.350449  3.158776  4.645666
H    0.248505  2.679077  6.138511
H    0.827173  1.475002  4.969196
H    -0.294470  1.010961  6.287036
