35
Energy: -21190.0477605 eV PBE+vdW (tier 2 basis)
C    -1.225870  -0.107891  -0.050644
C    -0.818324  0.095783  1.398314
O    0.337792  0.334592  1.729827
H    -0.748848  -1.023885  -0.422469
H    -0.837147  0.726564  -0.645942
H    -2.309303  -0.187063  -0.204726
N    -1.838554  0.007620  2.310951
C    -1.644000  0.059770  3.759699
C    -0.690145  1.204516  4.202315
O    0.258243  0.989266  4.948967
H    -2.761582  -0.236720  1.973389
H    -2.634768  0.302531  4.182627
C    -1.182344  -1.287682  4.339485
C    -1.485037  -1.442377  5.833523
C    -0.901630  -2.710866  6.456492
N    -1.478114  -3.917481  5.877195
C    -1.369584  -5.191885  6.418581
N    -0.860986  -5.238865  7.715821
N    -1.767631  -6.289729  5.865531
H    -0.103087  -1.387929  4.157661
H    -1.694132  -2.070959  3.757844
H    -2.574944  -1.432330  6.000441
H    -1.057263  -0.585089  6.370198
H    -1.130356  -2.711499  7.531092
H    0.201822  -2.681751  6.351111
H    -1.566802  -3.920431  4.868158
H    -0.727862  -6.202130  8.008395
H    -0.053812  -4.653711  7.907871
H    -2.245316  -6.105637  4.978925
N    -1.010671  2.479019  3.822632
C    -2.055480  2.949425  2.933478
H    -0.308296  3.150899  4.115748
H    -2.238435  4.010305  3.142194
H    -2.997279  2.415552  3.110793
H    -1.792520  2.845339  1.869026
