35
Energy: -21190.2077599 eV PBE+vdW (tier 2 basis)
C    1.099397  1.223825  1.211138
C    0.340045  0.077832  1.863308
O    0.856129  -1.024598  2.025622
H    2.073815  0.838476  0.900207
H    1.259493  2.050508  1.918546
H    0.577236  1.628747  0.334301
N    -0.951397  0.315189  2.262121
C    -1.691787  1.562718  2.263854
C    -2.271026  1.769952  3.677923
O    -2.671100  0.818665  4.342931
H    -1.378015  -0.436400  2.803628
H    -0.998125  2.381402  2.023578
C    -2.856634  1.563749  1.246572
C    -2.400147  1.426185  -0.206181
C    -3.555267  1.341741  -1.207751
N    -4.336058  0.137082  -1.000096
C    -5.536632  -0.155945  -1.624740
N    -6.245397  0.954871  -2.097694
N    -5.935985  -1.382602  -1.635619
H    -3.430076  2.497263  1.368589
H    -3.541897  0.744210  1.507314
H    -1.766491  0.531041  -0.313113
H    -1.770950  2.285237  -0.488600
H    -3.140108  1.406121  -2.233993
H    -4.208833  2.217789  -1.064129
H    -3.815344  -0.713042  -0.803968
H    -7.003337  0.710298  -2.724390
H    -5.698785  1.735166  -2.448312
H    -6.855873  -1.475871  -2.071524
N    -2.337600  3.066714  4.092402
C    -2.929263  3.459072  5.359121
H    -1.963850  3.785190  3.484396
H    -3.241900  2.543716  5.872133
H    -3.807842  4.101586  5.207699
H    -2.201627  3.989785  5.987864
