35
Energy: -21190.0107651 eV PBE+vdW (tier 2 basis)
C    -0.538892  2.722915  -0.937777
C    -0.780729  1.580980  0.036186
O    -0.373226  0.443892  -0.199661
H    -0.989737  2.457510  -1.902069
H    0.541639  2.821458  -1.099164
H    -0.941624  3.689721  -0.611711
N    -1.472134  1.933851  1.164181
C    -1.946402  1.107559  2.282810
C    -1.109797  1.306753  3.576970
O    -1.675180  1.785119  4.564160
H    -1.702481  2.916772  1.250260
H    -2.897091  1.568403  2.586024
C    -2.282035  -0.352279  1.919607
C    -2.975543  -1.109709  3.066334
C    -2.005995  -1.853885  3.985111
N    -2.737226  -2.493367  5.080975
C    -2.110369  -3.318540  6.016024
N    -1.075724  -4.095722  5.494889
N    -2.401326  -3.423982  7.267684
H    -2.952599  -0.309448  1.049950
H    -1.396157  -0.898521  1.577577
H    -3.583323  -0.410706  3.665014
H    -3.676845  -1.844047  2.644960
H    -1.228112  -1.172566  4.370979
H    -1.486290  -2.624065  3.398697
H    -3.396061  -1.862431  5.529877
H    -0.784408  -4.796192  6.170432
H    -1.245930  -4.489910  4.574073
H    -3.073433  -2.707530  7.555760
N    0.213526  0.988182  3.616632
C    1.037044  0.242993  2.678496
H    0.611383  1.169978  4.534866
H    1.238685  -0.773263  3.051765
H    0.552351  0.160997  1.700963
H    1.997646  0.755850  2.534622
