35
Energy: -21190.6348384 eV PBE+vdW (tier 2 basis)
C    -0.956665  1.770882  0.069868
C    -0.949119  1.205264  1.477081
O    -0.525420  1.872405  2.429843
H    0.073425  2.024842  -0.209993
H    -1.535250  2.702839  0.066593
H    -1.372093  1.085780  -0.678579
N    -1.426576  -0.057921  1.594668
C    -1.487370  -0.825497  2.831718
C    -1.410435  -2.297247  2.385944
O    -2.002954  -2.644950  1.357018
H    -1.767804  -0.563246  0.778974
H    -0.637890  -0.533191  3.460393
C    -2.836947  -0.565565  3.554304
C    -3.062466  -1.221661  4.929638
C    -2.646517  -0.408038  6.171569
N    -1.220286  -0.242627  6.428082
C    -0.379722  0.557197  5.661654
N    -0.851899  1.811063  5.321427
N    0.791541  0.090243  5.356815
H    -3.621787  -0.907347  2.863513
H    -2.950605  0.524956  3.638849
H    -4.143026  -1.407244  5.036120
H    -2.595340  -2.217870  4.969673
H    -3.072477  -0.892783  7.062327
H    -3.122740  0.583632  6.127308
H    -0.734757  -1.095492  6.692517
H    -1.799864  2.030592  5.606126
H    -0.653948  2.069983  4.349921
H    1.363651  0.824488  4.931236
N    -0.726253  -3.195115  3.138532
C    0.124515  -3.002450  4.303221
H    -0.794472  -4.136897  2.760162
H    1.077355  -3.526837  4.151348
H    -0.346141  -3.409035  5.212178
H    0.356678  -1.943032  4.477942
