35
Energy: -21190.6847053 eV PBE+vdW (tier 2 basis)
C    0.481865  1.322473  0.278825
C    0.126969  1.122943  1.739218
O    0.399836  1.971774  2.593652
H    1.571204  1.424372  0.194761
H    0.038593  2.263617  -0.068913
H    0.146625  0.504778  -0.370210
N    -0.521680  -0.040243  2.028937
C    -0.770447  -0.479728  3.388215
C    -0.406002  -1.973279  3.439610
O    -0.450128  -2.657331  2.410858
H    -0.566443  -0.790163  1.339861
H    -0.123218  0.110219  4.049121
C    -2.249746  -0.315451  3.821809
C    -2.869731  1.071936  3.616285
C    -2.276399  2.236502  4.428969
N    -2.205750  2.002282  5.862194
C    -1.047105  1.598105  6.505888
N    -1.294517  1.095874  7.795216
N    0.165950  1.603237  6.070849
H    -2.329809  -0.605842  4.880216
H    -2.849482  -1.044680  3.255502
H    -3.944724  0.986127  3.847161
H    -2.814831  1.348602  2.552055
H    -2.884287  3.135711  4.244634
H    -1.268255  2.469042  4.065760
H    -3.066771  1.682328  6.295027
H    -0.423097  1.037498  8.315458
H    -1.999721  1.608708  8.319075
H    0.240737  1.923762  5.101351
N    -0.079704  -2.513744  4.640908
C    0.027088  -1.867413  5.941470
H    0.065656  -3.518285  4.594838
H    0.804715  -2.373994  6.525488
H    -0.915810  -1.911505  6.507909
H    0.316916  -0.813852  5.845887
