35
Energy: -21190.3337684 eV PBE+vdW (tier 2 basis)
C    -0.662995  -1.156927  0.428557
C    -0.298131  -0.389110  1.689152
O    0.762087  -0.625652  2.283549
H    0.160626  -1.839970  0.205723
H    -0.819000  -0.495624  -0.434956
H    -1.584026  -1.741704  0.564850
N    -1.160285  0.568504  2.133441
C    -2.507246  0.831606  1.645904
C    -2.778617  2.328189  1.338511
O    -3.878876  2.822434  1.580063
H    -0.924495  0.941808  3.069780
H    -2.620218  0.314675  0.680513
C    -3.578488  0.288276  2.612390
C    -3.578845  0.971321  3.997362
C    -3.356176  0.043476  5.203522
N    -2.189595  -0.829869  5.147264
C    -0.895543  -0.370996  5.124808
N    0.090835  -1.357783  5.155818
N    -0.650290  0.904694  5.082846
H    -3.389340  -0.792391  2.710870
H    -4.559037  0.401035  2.134735
H    -4.534485  1.489673  4.150932
H    -2.811119  1.752924  4.041761
H    -4.224248  -0.617255  5.342942
H    -3.274698  0.666911  6.106119
H    -2.340647  -1.783054  4.847235
H    -0.243359  -2.317649  5.141876
H    0.794884  -1.199099  4.433224
H    0.353317  1.060972  5.203617
N    -1.792320  3.084198  0.767904
C    -0.497872  2.709978  0.215118
H    -2.105929  4.035760  0.604447
H    -0.143390  3.544457  -0.400571
H    -0.568270  1.830178  -0.438424
H    0.250926  2.507875  0.990988
