35
Energy: -21190.458282 eV PBE+vdW (tier 2 basis)
C    1.237100  1.732900  0.419690
C    0.414823  0.825705  1.314742
O    0.732016  -0.346295  1.529598
H    1.337668  1.258661  -0.564101
H    2.246316  1.821329  0.842107
H    0.810896  2.735778  0.296236
N    -0.681265  1.398136  1.882346
C    -1.615541  0.674244  2.720175
C    -2.893243  1.532538  2.758068
O    -2.876704  2.728404  2.457373
H    -0.966667  2.351688  1.664874
H    -1.838233  -0.294475  2.243155
C    -1.087351  0.382326  4.152866
C    -0.407790  1.586638  4.828955
C    1.129800  1.539130  4.817535
N    1.702683  0.573035  5.735187
C    2.190432  -0.683968  5.392607
N    2.625167  -1.381159  6.537143
N    2.279234  -1.255774  4.246929
H    -0.390900  -0.463510  4.089599
H    -1.936063  0.030383  4.757205
H    -0.737147  1.658266  5.877082
H    -0.732579  2.525924  4.355080
H    1.518839  2.538175  5.073772
H    1.506996  1.309095  3.812828
H    1.426497  0.668023  6.706930
H    3.077806  -2.246284  6.253683
H    3.225533  -0.834801  7.151183
H    1.813560  -0.761694  3.480600
N    -4.013353  0.878819  3.163206
C    -5.297967  1.533933  3.326174
H    -3.941497  -0.111176  3.366643
H    -6.063768  1.060316  2.697279
H    -5.178977  2.577341  3.017311
H    -5.629996  1.507158  4.373567
