35
Energy: -21190.198603 eV PBE+vdW (tier 2 basis)
C    0.385464  -0.583660  0.696380
C    0.167915  0.011619  2.068273
O    1.081418  0.528155  2.705981
H    0.473306  -1.679014  0.751631
H    -0.424105  -0.341137  -0.005043
H    1.330312  -0.191516  0.310119
N    -1.097971  -0.044919  2.631821
C    -2.388066  -0.351940  2.006704
C    -3.552459  -0.019345  2.959131
O    -4.649673  0.297873  2.510083
H    -1.137877  0.567848  3.442967
H    -2.566544  0.296470  1.133435
C    -2.546277  -1.819387  1.533757
C    -2.278485  -2.883610  2.597609
C    -2.381402  -4.322570  2.064348
N    -1.509945  -4.649894  0.933074
C    -0.125022  -4.502669  0.961921
N    0.451635  -4.724633  2.208307
N    0.634403  -4.178765  -0.031089
H    -1.874556  -1.978438  0.680093
H    -3.571962  -1.908791  1.143119
H    -3.000825  -2.792127  3.424360
H    -1.278484  -2.734125  3.029876
H    -3.407965  -4.528877  1.728355
H    -2.192306  -5.025902  2.889403
H    -1.898525  -4.420553  0.025287
H    1.463665  -4.770958  2.141850
H    0.052651  -5.480121  2.756684
H    0.082740  -3.916512  -0.852782
N    -3.290692  -0.127546  4.296069
C    -4.319223  0.073185  5.300924
H    -2.412179  -0.548812  4.578842
H    -3.903129  0.598350  6.169175
H    -4.757750  -0.879473  5.635173
H    -5.114385  0.678450  4.854120
