35
Energy: -21190.4651556 eV PBE+vdW (tier 2 basis)
C    -0.224313  1.316960  2.997498
C    -0.718938  0.303061  4.010136
O    -0.166113  0.139622  5.097392
H    -0.249375  2.314621  3.454455
H    -0.807437  1.333282  2.068808
H    0.823437  1.094866  2.761082
N    -1.856785  -0.374024  3.649765
C    -2.330579  -1.536398  4.385974
C    -2.395778  -2.700319  3.379665
O    -2.620657  -2.496104  2.186191
H    -2.127533  -0.387943  2.666555
H    -1.583127  -1.738748  5.169207
C    -3.726468  -1.335029  5.025638
C    -3.757949  -0.549390  6.342452
C    -3.279793  0.912104  6.275584
N    -3.905015  1.701200  5.223991
C    -4.936747  2.607306  5.375343
N    -5.629056  2.505134  6.585414
N    -5.286878  3.525395  4.535547
H    -4.163886  -2.327934  5.210936
H    -4.376640  -0.850630  4.281617
H    -3.150316  -1.068605  7.101869
H    -4.796117  -0.577223  6.713387
H    -2.191446  0.935936  6.131679
H    -3.473988  1.400831  7.240097
H    -3.411662  1.753327  4.342396
H    -5.863101  1.561969  6.882030
H    -6.439044  3.118022  6.574359
H    -4.614695  3.601069  3.766945
N    -2.227954  -3.938008  3.916218
C    -2.333031  -5.159835  3.139225
H    -1.998850  -4.002474  4.900992
H    -1.387913  -5.719583  3.152032
H    -2.563436  -4.875920  2.107368
H    -3.135818  -5.805541  3.521154
