35
Energy: -21190.1995655 eV PBE+vdW (tier 2 basis)
C    0.232986  0.318644  -0.764941
C    0.659606  -0.044562  0.647243
O    1.824464  -0.294383  0.934689
H    1.108894  0.235165  -1.413048
H    -0.143979  1.350989  -0.811222
H    -0.556585  -0.347185  -1.141200
N    -0.331944  -0.110252  1.602422
C    -1.695882  0.358176  1.464109
C    -1.771892  1.899662  1.528293
O    -0.994059  2.557151  2.222751
H    0.036671  -0.202434  2.545553
H    -2.063716  0.025520  0.483894
C    -2.606262  -0.305507  2.526288
C    -2.329175  0.057241  3.995886
C    -3.094828  1.300022  4.495194
N    -2.773054  1.717609  5.844739
C    -1.538624  2.240074  6.226956
N    -0.871172  2.978261  5.261535
N    -1.179255  2.069809  7.457820
H    -2.495302  -1.389501  2.382294
H    -3.655851  -0.071513  2.284845
H    -1.253459  0.211827  4.170990
H    -2.608899  -0.796413  4.630307
H    -4.175564  1.092258  4.465244
H    -2.941780  2.150444  3.816540
H    -3.140671  1.137851  6.593408
H    0.098806  3.170185  5.477167
H    -1.026279  2.801765  4.269620
H    -0.312382  2.572308  7.663092
N    -2.753024  2.504269  0.801666
C    -3.701392  1.891514  -0.116693
H    -2.767680  3.514848  0.902186
H    -4.332572  2.681462  -0.536012
H    -4.362339  1.171708  0.386051
H    -3.198232  1.386399  -0.954315
