35
Energy: -21189.7877741 eV PBE+vdW (tier 2 basis)
C    0.105748  0.970882  -0.334992
C    0.209647  0.173184  0.953273
O    1.180762  -0.541325  1.190098
H    -0.709877  0.588750  -0.964526
H    1.049500  0.859030  -0.874746
H    -0.074978  2.037585  -0.148327
N    -0.821324  0.270442  1.853314
C    -2.087675  0.994965  1.779935
C    -2.948489  0.489798  0.587918
O    -3.244771  -0.702928  0.567127
H    -0.731083  -0.370235  2.637668
H    -2.650284  0.567653  2.624297
C    -1.945429  2.504416  2.074674
C    -3.246120  3.152347  2.593163
C    -3.314760  3.291307  4.128579
N    -3.068258  2.080102  4.906074
C    -3.806834  0.911152  4.757560
N    -5.179694  1.081159  4.694613
N    -3.169139  -0.213131  4.747493
H    -1.559153  3.054451  1.209498
H    -1.158810  2.589309  2.839500
H    -4.117749  2.577258  2.240911
H    -3.365344  4.164191  2.175810
H    -4.287054  3.725858  4.412775
H    -2.564786  4.022989  4.461120
H    -2.087588  1.836938  5.016217
H    -5.557134  2.014838  4.592699
H    -5.709146  0.351803  4.236045
H    -3.804614  -1.014405  4.774481
N    -3.442929  1.312088  -0.397493
C    -3.149894  2.680046  -0.800927
H    -4.006186  0.767452  -1.044501
H    -3.673560  2.863762  -1.745410
H    -2.080066  2.848964  -0.981318
H    -3.511378  3.421955  -0.077295
