35
Energy: -21190.208406 eV PBE+vdW (tier 2 basis)
C    -1.893152  1.439004  -0.912958
C    -1.058084  1.132940  0.310825
O    0.034210  1.655042  0.529858
H    -1.377681  2.210000  -1.491168
H    -2.900011  1.791693  -0.649801
H    -2.005419  0.530916  -1.525207
N    -1.556429  0.189937  1.180841
C    -2.867509  -0.439134  1.160511
C    -4.015710  0.398999  1.772175
O    -5.107215  0.423096  1.203726
H    -0.936677  0.000645  1.962994
H    -3.176839  -0.546942  0.112559
C    -2.828642  -1.856326  1.776774
C    -2.457498  -2.950233  0.766602
C    -1.030105  -2.860453  0.201998
N    -0.815960  -3.684611  -0.978643
C    -1.254623  -3.231453  -2.211114
N    -1.121141  -4.204706  -3.212485
N    -1.748266  -2.045792  -2.345643
H    -3.825909  -2.082855  2.179434
H    -2.141125  -1.865596  2.640327
H    -3.162414  -2.891622  -0.075370
H    -2.603075  -3.936712  1.236196
H    -0.292420  -3.152677  0.964840
H    -0.801874  -1.833004  -0.097271
H    -0.892032  -4.688244  -0.845878
H    -1.282434  -3.851565  -4.149542
H    -0.267384  -4.755058  -3.160406
H    -1.910965  -1.826508  -3.330942
N    -3.819431  1.087199  2.936913
C    -2.653796  1.161499  3.804282
H    -4.644495  1.608136  3.216857
H    -2.241688  0.166493  4.020582
H    -2.969870  1.589721  4.762175
H    -1.856591  1.795301  3.390481
