35
Energy: -21190.1703062 eV PBE+vdW (tier 2 basis)
C    -0.524856  -0.779509  0.384913
C    -0.287117  -0.450418  1.845342
O    0.768529  -0.713167  2.420872
H    -0.658046  0.133978  -0.212350
H    -1.428205  -1.389314  0.245566
H    0.344232  -1.327785  0.013266
N    -1.309682  0.174891  2.513917
C    -2.586711  0.624882  1.984649
C    -2.569471  1.828991  1.011173
O    -3.491842  1.928926  0.202329
H    -1.092587  0.374066  3.486240
H    -3.012217  -0.174640  1.361120
C    -3.593875  0.867208  3.125492
C    -3.277252  2.038289  4.059670
C    -4.256996  2.136951  5.236077
N    -4.156734  1.010368  6.159077
C    -5.168065  0.066321  6.245201
N    -4.969147  -0.821646  7.314259
N    -6.159897  0.084251  5.424071
H    -3.666818  -0.064233  3.705666
H    -4.580155  1.025119  2.670268
H    -3.315272  2.986170  3.499013
H    -2.256242  1.957335  4.470891
H    -5.291190  2.169496  4.866333
H    -4.069239  3.066086  5.793486
H    -3.673788  1.191405  7.030941
H    -4.001694  -1.096026  7.468141
H    -5.584181  -1.627924  7.292371
H    -6.774950  -0.719720  5.563348
N    -1.567482  2.760289  1.035377
C    -0.416911  2.940894  1.912775
H    -1.713362  3.467640  0.321405
H    -0.013049  3.942481  1.726217
H    0.382162  2.211046  1.726706
H    -0.692935  2.892931  2.972625
