35
Energy: -21190.6854857 eV PBE+vdW (tier 2 basis)
C    -0.916751  -3.261757  2.932612
C    -0.699208  -1.764206  2.916724
O    0.193323  -1.220307  2.252300
H    -1.873702  -3.505760  2.447905
H    -0.961346  -3.644106  3.961489
H    -0.095347  -3.746598  2.398754
N    -1.575327  -1.042666  3.672510
C    -1.600911  0.418574  3.652783
C    -0.620572  0.989325  4.709734
O    -1.001505  1.496772  5.764604
H    -2.233646  -1.546513  4.264114
H    -1.225774  0.707766  2.658316
C    -3.018720  0.952401  3.847470
C    -4.003856  0.485701  2.756719
C    -5.321482  -0.084806  3.309377
N    -5.149248  -1.209042  4.226729
C    -4.605516  -2.413727  3.804116
N    -3.983521  -3.124215  4.846534
N    -4.563931  -2.908241  2.616755
H    -2.965349  2.047786  3.885198
H    -3.355877  0.656878  4.853402
H    -3.527606  -0.286128  2.134673
H    -4.246400  1.316841  2.078954
H    -5.976465  -0.400138  2.483516
H    -5.876991  0.687386  3.859915
H    -4.862747  -0.931978  5.160519
H    -4.465018  -3.083122  5.741938
H    -3.810345  -4.085912  4.564414
H    -4.955654  -2.268728  1.922748
N    0.680078  0.850718  4.339315
C    1.782995  1.198672  5.212076
H    0.853862  0.309532  3.488173
H    2.527439  1.800440  4.674024
H    2.280413  0.303153  5.614674
H    1.383704  1.783007  6.047917
