35
Energy: -21190.3920241 eV PBE+vdW (tier 2 basis)
C    0.146933  0.099808  1.181243
C    0.127224  -1.404792  1.408812
O    1.162572  -2.026181  1.661474
H    1.190465  0.424661  1.199389
H    -0.403630  0.633637  1.969860
H    -0.299343  0.381815  0.217215
N    -1.076625  -2.045794  1.339509
C    -2.386775  -1.450805  1.179254
C    -3.279584  -1.343083  2.447450
O    -4.448286  -0.973205  2.306743
H    -1.032230  -3.061371  1.541694
H    -2.248024  -0.395331  0.906500
C    -3.182020  -2.096536  0.014700
C    -3.113212  -3.626189  -0.049620
C    -3.654467  -4.358596  1.191207
N    -3.156944  -5.723593  1.332484
C    -1.847645  -5.936141  1.709524
N    -1.462145  -7.275665  1.621030
N    -1.092529  -4.947098  2.068491
H    -2.775732  -1.698745  -0.926307
H    -4.219145  -1.745316  0.096399
H    -2.068493  -3.932745  -0.200656
H    -3.664114  -3.965428  -0.940491
H    -4.751922  -4.396505  1.179356
H    -3.373281  -3.834146  2.111695
H    -3.528158  -6.404347  0.678009
H    -0.563251  -7.481096  2.042546
H    -2.173215  -7.953045  1.882366
H    -0.179223  -5.259230  2.402761
N    -2.793712  -1.583900  3.701473
C    -1.508669  -2.060918  4.209029
H    -3.515264  -1.407899  4.394066
H    -1.608431  -2.157138  5.296432
H    -0.688476  -1.360215  4.008773
H    -1.241163  -3.042612  3.799675
