35
Energy: -21190.5738582 eV PBE+vdW (tier 2 basis)
C    0.756526  0.892359  -0.097862
C    1.251965  0.722188  1.317536
O    2.459835  0.710864  1.597255
H    1.419810  0.356392  -0.784323
H    0.804013  1.965199  -0.334026
H    -0.275893  0.548378  -0.238417
N    0.294577  0.621592  2.280564
C    0.609328  0.783236  3.699768
C    1.018112  -0.575969  4.345849
O    0.314039  -1.153956  5.173031
H    -0.678565  0.691962  2.006425
H    1.501529  1.426601  3.729657
C    -0.549272  1.429856  4.461588
C    -0.077428  2.294400  5.644248
C    0.083878  3.789101  5.315475
N    0.960152  4.104549  4.186082
C    0.554189  4.212230  2.860999
N    -0.764378  4.647328  2.686364
N    1.262167  3.958890  1.812626
H    -1.196926  0.622951  4.829956
H    -1.137096  2.050878  3.769435
H    0.867288  1.893039  6.045575
H    -0.797622  2.222010  6.473004
H    0.462174  4.318784  6.203433
H    -0.904788  4.212678  5.099651
H    1.914096  3.769966  4.276473
H    -0.922731  4.869328  1.707452
H    -1.052280  5.406794  3.297871
H    2.149026  3.505266  2.048955
N    2.220913  -1.021923  3.903884
C    2.766274  -2.308462  4.286827
H    2.647673  -0.487816  3.138860
H    3.826136  -2.211442  4.556662
H    2.678106  -3.045886  3.474313
H    2.205172  -2.675370  5.152809
