35
Energy: -21190.5765233 eV PBE+vdW (tier 2 basis)
C    3.533716  -2.112496  3.085933
C    2.176760  -1.528100  3.421862
O    1.942780  -1.050350  4.539140
H    3.625412  -2.466075  2.051966
H    3.728417  -2.951367  3.766134
H    4.301632  -1.353100  3.276672
N    1.255639  -1.561062  2.418902
C    -0.164348  -1.177121  2.494049
C    -0.427789  0.339486  2.631079
O    -1.304752  0.866385  1.925235
H    1.564194  -1.929955  1.528190
H    -0.573130  -1.420587  1.505246
C    -0.940542  -2.010728  3.544821
C    -2.476476  -2.030782  3.364056
C    -3.290607  -1.198337  4.357843
N    -3.142007  0.221935  4.140329
C    -3.690277  1.167378  4.974759
N    -3.466928  2.482220  4.541170
N    -4.309001  0.980953  6.094228
H    -0.677349  -1.669769  4.554972
H    -0.556730  -3.037156  3.457313
H    -2.821191  -3.068406  3.473455
H    -2.746683  -1.734957  2.337632
H    -2.967119  -1.452799  5.383468
H    -4.353002  -1.499727  4.283004
H    -2.729519  0.529646  3.260625
H    -4.068343  3.130873  5.039671
H    -3.491415  2.618906  3.534217
H    -4.339911  -0.009258  6.344405
N    0.280309  0.992296  3.566434
C    0.062354  2.399165  3.862322
H    0.906909  0.429685  4.155259
H    0.902709  2.763963  4.462133
H    -0.876046  2.555689  4.414419
H    0.008728  2.973665  2.929257
