35
Energy: -21190.2578708 eV PBE+vdW (tier 2 basis)
C    0.497135  -1.689400  1.191375
C    0.148912  -0.643033  2.232064
O    0.928323  -0.324571  3.128453
H    1.407587  -1.373987  0.667100
H    -0.296917  -1.864699  0.454968
H    0.726284  -2.633023  1.701975
N    -1.100806  -0.093225  2.114883
C    -1.577082  0.973791  2.986916
C    -2.947788  0.603110  3.596249
O    -3.962988  1.261052  3.368569
H    -1.686667  -0.376969  1.338274
H    -0.834142  1.016596  3.798413
C    -1.604442  2.346152  2.294237
C    -2.287262  2.378889  0.924692
C    -2.418584  3.807989  0.379096
N    -2.952328  3.902200  -0.973813
C    -2.292850  3.399404  -2.088819
N    -0.916187  3.617722  -2.111807
N    -2.993684  2.871375  -3.035946
H    -0.560960  2.684245  2.194307
H    -2.107407  3.048221  2.975223
H    -3.291201  1.936289  0.994617
H    -1.712722  1.780849  0.199015
H    -1.446260  4.327031  0.427561
H    -3.083424  4.393089  1.030641
H    -3.945032  3.697911  -1.055152
H    -0.388231  2.986384  -2.700300
H    -0.452359  3.844409  -1.239621
H    -2.420035  2.680745  -3.861766
N    -2.985027  -0.489835  4.414500
C    -1.907746  -1.377603  4.819652
H    -3.921801  -0.697562  4.747485
H    -0.948295  -0.849566  4.855724
H    -1.795673  -2.236036  4.138934
H    -2.119467  -1.757964  5.826130
