35
Energy: -21189.7998952 eV PBE+vdW (tier 2 basis)
C    -0.675512  -0.736743  -0.700577
C    -0.160003  -0.701354  0.722513
O    0.995510  -1.027851  0.985519
H    -1.312798  0.116097  -0.957881
H    -1.249922  -1.661047  -0.852862
H    0.190165  -0.761253  -1.367998
N    -0.996480  -0.295722  1.739092
C    -2.440982  -0.016964  1.816569
C    -3.214600  -1.364720  1.919314
O    -3.211631  -1.926931  3.016156
H    -0.556266  -0.451731  2.642206
H    -2.556056  0.359719  2.842496
C    -2.944201  1.113946  0.899955
C    -4.121148  1.909494  1.488139
C    -5.358176  1.081110  1.876776
N    -6.555237  1.881755  2.087631
C    -7.299959  2.289890  0.994944
N    -8.312804  3.193925  1.346357
N    -7.016884  1.864484  -0.190939
H    -3.218683  0.758825  -0.098390
H    -2.100998  1.805614  0.758188
H    -4.435576  2.649684  0.739211
H    -3.773659  2.473023  2.370518
H    -5.177519  0.495886  2.789607
H    -5.610400  0.380032  1.073875
H    -6.524868  2.540953  2.858685
H    -8.978437  3.371932  0.602090
H    -8.779572  2.992640  2.227333
H    -7.724274  2.160392  -0.866959
N    -3.822417  -1.976766  0.854718
C    -4.179856  -1.540320  -0.490182
H    -4.241085  -2.851911  1.158490
H    -4.982237  -0.787308  -0.503321
H    -4.536509  -2.420600  -1.036673
H    -3.320044  -1.146792  -1.039859
