35
Energy: -21190.511651 eV PBE+vdW (tier 2 basis)
C    -0.631813  -1.250046  -0.377727
C    -0.468502  -1.126548  1.124484
O    0.499872  -1.637062  1.703761
H    0.297091  -0.927391  -0.862538
H    -1.471179  -0.673161  -0.784559
H    -0.780478  -2.309406  -0.624328
N    -1.446145  -0.428979  1.764984
C    -1.623059  -0.262186  3.218910
C    -0.579239  0.672412  3.884882
O    -0.956478  1.653194  4.528793
H    -2.167183  -0.021129  1.183609
H    -2.560967  0.296519  3.329585
C    -1.766696  -1.614802  3.940633
C    -2.029134  -1.473734  5.440230
C    -2.193982  -2.829588  6.137330
N    -1.003802  -3.666985  6.050447
C    -0.963951  -4.791588  5.250581
N    0.239562  -5.503590  5.401204
N    -1.963161  -5.111704  4.500866
H    -0.861895  -2.214413  3.779190
H    -2.591602  -2.168324  3.467196
H    -2.941016  -0.879892  5.615989
H    -1.207021  -0.916436  5.916333
H    -3.019762  -3.395835  5.685145
H    -2.438101  -2.671470  7.198163
H    -0.389753  -3.680203  6.854854
H    0.366204  -6.225499  4.699665
H    1.067232  -4.915830  5.473623
H    -1.738634  -5.916504  3.912601
N    0.714501  0.292531  3.742682
C    1.812711  1.051738  4.304043
H    0.896838  -0.512751  3.131465
H    1.392868  1.874554  4.892696
H    2.454813  1.469909  3.514892
H    2.431759  0.421709  4.958537
