35
Energy: -21190.5147024 eV PBE+vdW (tier 2 basis)
C    0.367832  -2.665541  -0.174473
C    0.408304  -1.512368  0.806018
O    1.268200  -0.622701  0.713061
H    0.323543  -2.261648  -1.193141
H    -0.473536  -3.351938  -0.021507
H    1.305578  -3.229195  -0.087515
N    -0.553874  -1.515784  1.766667
C    -0.670306  -0.588702  2.905605
C    -1.144245  0.845137  2.552103
O    -1.900381  1.421466  3.339383
H    -1.242349  -2.256522  1.720513
H    -1.510850  -0.969759  3.499832
C    0.600681  -0.669079  3.786166
C    0.661110  0.271232  5.003964
C    1.634346  1.445851  4.836622
N    1.229362  2.417428  3.829927
C    1.985142  2.854890  2.756135
N    2.858195  1.904788  2.225238
N    1.928912  4.032356  2.218473
H    1.477851  -0.509058  3.147586
H    0.663815  -1.714832  4.120357
H    0.990458  -0.301942  5.883708
H    -0.340301  0.657141  5.245088
H    2.628272  1.075356  4.553586
H    1.751862  1.952604  5.810394
H    0.488536  3.053781  4.100602
H    3.342741  2.297382  1.422923
H    2.434017  1.005950  1.996349
H    1.393461  4.675595  2.809666
N    -0.709525  1.363352  1.381895
C    -1.061147  2.702794  0.942057
H    0.049742  0.868504  0.910422
H    -0.176861  3.355324  0.935603
H    -1.802058  3.105811  1.640129
H    -1.497916  2.673416  -0.065893
