35
Energy: -21190.018339 eV PBE+vdW (tier 2 basis)
C    -0.808945  0.416958  -0.069274
C    -0.922336  0.128111  1.407945
O    0.070758  -0.134573  2.093903
H    -0.856059  -0.532565  -0.621843
H    0.170450  0.872287  -0.245644
H    -1.587068  1.077016  -0.462936
N    -2.158121  0.113369  2.014704
C    -3.485386  0.551586  1.580880
C    -3.812347  0.219433  0.107161
O    -4.155342  1.086891  -0.692430
H    -2.073376  -0.113695  3.002858
H    -4.189886  -0.072792  2.159962
C    -3.829140  2.009448  1.938706
C    -2.886449  3.141119  1.485468
C    -1.793692  3.566488  2.501381
N    -0.446677  3.051873  2.315075
C    0.424154  3.420411  1.300275
N    0.049947  4.561230  0.585448
N    1.499576  2.795832  0.955158
H    -3.936882  2.057691  3.035404
H    -4.831226  2.192345  1.527293
H    -3.518296  4.021430  1.299536
H    -2.423900  2.919783  0.516265
H    -2.103774  3.278719  3.517404
H    -1.746413  4.666203  2.525033
H    -0.228226  2.152686  2.729417
H    0.822675  4.880637  0.008921
H    -0.368496  5.312155  1.125646
H    1.603578  1.921946  1.478936
N    -3.765520  -1.097367  -0.254882
C    -3.416159  -2.262650  0.539900
H    -3.977397  -1.239687  -1.237601
H    -3.850255  -3.150011  0.065268
H    -3.833824  -2.192430  1.552025
H    -2.329493  -2.409762  0.628293
