35
Energy: -21190.2369132 eV PBE+vdW (tier 2 basis)
C    -2.686916  -0.203594  -0.405149
C    -2.756823  0.268036  1.034050
O    -3.219902  1.372434  1.329630
H    -2.039959  0.481618  -0.967488
H    -3.689420  -0.142403  -0.845549
H    -2.307622  -1.226518  -0.519178
N    -2.291145  -0.613098  1.967005
C    -2.138387  -0.253731  3.382996
C    -1.172658  -1.215226  4.088535
O    -0.241420  -0.779453  4.758519
H    -1.780822  -1.420613  1.628371
H    -1.646100  0.725441  3.446057
C    -3.495456  -0.139456  4.121170
C    -3.404412  0.545909  5.492614
C    -3.294404  2.074793  5.444264
N    -2.024020  2.560545  4.902992
C    -1.942382  3.708880  4.115111
N    -2.916367  3.780244  3.122129
N    -1.008776  4.564495  4.373560
H    -3.944571  -1.136287  4.234340
H    -4.170887  0.434808  3.471647
H    -2.567837  0.131486  6.077879
H    -4.317239  0.304150  6.058848
H    -3.453733  2.474166  6.462634
H    -4.098891  2.483017  4.818990
H    -1.256223  2.560684  5.570318
H    -2.797723  4.570279  2.498185
H    -3.097554  2.911000  2.611583
H    -0.941726  5.266745  3.631073
N    -1.340190  -2.575657  3.934537
C    -2.526015  -3.333329  3.554388
H    -0.641710  -3.084573  4.471673
H    -3.130907  -2.778327  2.831478
H    -3.163498  -3.570680  4.421181
H    -2.218710  -4.276012  3.083489
