35
Energy: -21190.3330468 eV PBE+vdW (tier 2 basis)
C    0.575952  0.055702  0.488697
C    0.231403  0.625263  1.846728
O    1.052151  1.256022  2.515432
H    1.054849  0.835068  -0.115184
H    -0.284556  -0.351324  -0.056446
H    1.317913  -0.740993  0.646125
N    -1.048828  0.392466  2.277871
C    -1.566898  0.627783  3.629387
C    -0.857922  1.801700  4.353900
O    -0.350210  1.676172  5.463450
H    -1.630264  -0.181618  1.677076
H    -2.601201  0.986961  3.490656
C    -1.679850  -0.655842  4.481975
C    -0.530692  -1.675002  4.506202
C    0.741344  -1.306043  5.308969
N    1.869440  -0.817450  4.523658
C    2.535121  -1.600824  3.592182
N    2.475587  -2.979708  3.825628
N    3.179968  -1.179919  2.553256
H    -2.574757  -1.186641  4.118441
H    -1.913655  -0.333696  5.507335
H    -0.235984  -1.952988  3.482826
H    -0.951553  -2.594743  4.940213
H    1.063935  -2.184004  5.886620
H    0.506367  -0.523420  6.039996
H    1.772572  0.149042  4.219059
H    3.167007  -3.457696  3.255250
H    2.522189  -3.257989  4.801421
H    3.055503  -0.169167  2.447223
N    -0.996683  3.008261  3.729694
C    -0.233672  4.160833  4.179026
H    -1.251736  2.983009  2.748177
H    -0.681287  5.074594  3.772263
H    0.819816  4.097431  3.864522
H    -0.264833  4.201295  5.272469
