35
Energy: -21190.316954 eV PBE+vdW (tier 2 basis)
C    -1.309719  0.309347  0.117781
C    -0.851760  -0.187624  1.476772
O    0.197962  -0.812784  1.632947
H    -0.508765  0.914627  -0.324319
H    -2.235729  0.894524  0.162405
H    -1.460308  -0.556812  -0.540368
N    -1.711060  0.072086  2.508979
C    -1.311080  -0.197158  3.884557
C    -1.125206  -1.668027  4.324542
O    -0.477671  -1.864826  5.353560
H    -2.457532  0.757673  2.330789
H    -0.302227  0.215965  4.040266
C    -2.265647  0.490854  4.879212
C    -3.652613  -0.173044  5.051003
C    -4.837895  0.795071  4.967031
N    -5.048481  1.313203  3.606930
C    -4.364606  2.410798  3.107113
N    -4.386630  3.526017  3.929944
N    -3.759892  2.301866  1.964565
H    -2.371729  1.539798  4.567334
H    -1.752238  0.510299  5.847714
H    -3.693713  -0.701615  6.014348
H    -3.805497  -0.953881  4.289372
H    -4.694085  1.646022  5.645752
H    -5.760712  0.287113  5.283079
H    -5.044430  0.577545  2.902687
H    -3.984758  4.370244  3.541526
H    -5.232646  3.679154  4.468977
H    -3.442391  3.208466  1.611644
N    -1.721594  -2.719284  3.683762
C    -2.416837  -2.824003  2.408996
H    -1.445698  -3.595501  4.118027
H    -3.208743  -2.073238  2.315542
H    -2.885796  -3.814038  2.365330
H    -1.735662  -2.723564  1.551539
