35
Energy: -21190.4543334 eV PBE+vdW (tier 2 basis)
C    0.073081  -0.353743  -0.212223
C    0.181368  0.048374  1.245995
O    1.249355  0.386675  1.755809
H    0.423573  0.478952  -0.834655
H    -0.943560  -0.626912  -0.519694
H    0.744842  -1.201902  -0.393590
N    -0.995367  0.030068  1.944714
C    -1.046572  0.234461  3.378737
C    -2.000688  -0.824629  3.955019
O    -2.928188  -1.278844  3.284029
H    -1.823898  -0.412759  1.552580
H    -0.021936  0.093931  3.758610
C    -1.539854  1.647574  3.766643
C    -0.637995  2.766272  3.245622
C    -1.118344  4.148244  3.678885
N    -0.243369  5.179434  3.122029
C    -0.307882  6.517940  3.497199
N    -1.568224  6.930954  3.927353
N    0.660065  7.370855  3.485118
H    -1.608539  1.703064  4.865211
H    -2.564644  1.773546  3.381895
H    -0.593262  2.727234  2.147401
H    0.392151  2.603091  3.601652
H    -1.160931  4.209802  4.781977
H    -2.148100  4.298308  3.313991
H    0.707677  4.866935  2.953643
H    -1.606043  7.942517  4.008144
H    -2.359256  6.546116  3.420032
H    1.554155  6.918393  3.276454
N    -1.762230  -1.173139  5.247458
C    -2.600036  -2.100841  5.985579
H    -0.945280  -0.783551  5.702637
H    -3.028107  -1.624177  6.878081
H    -2.032186  -2.989614  6.293054
H    -3.412719  -2.411693  5.321234
