35
Energy: -21190.3850061 eV PBE+vdW (tier 2 basis)
C    -0.645992  -1.009878  0.876013
C    -0.653465  -0.355408  2.249097
O    -0.139831  0.740565  2.441570
H    0.395627  -1.165121  0.567998
H    -1.098351  -0.315936  0.157188
H    -1.179418  -1.967584  0.829418
N    -1.302249  -1.083874  3.223231
C    -1.308728  -0.789262  4.660277
C    -2.337380  -1.663062  5.407394
O    -2.210812  -1.853782  6.615202
H    -1.475779  -2.055774  2.987594
H    -0.336919  -1.062508  5.102976
C    -1.569991  0.690855  5.012206
C    -2.841540  1.307239  4.400363
C    -3.746987  1.990445  5.437487
N    -4.360648  1.104932  6.415029
C    -5.478215  0.338588  6.121265
N    -5.847959  -0.493412  7.179163
N    -6.173717  0.310378  5.032130
H    -0.693370  1.275817  4.719365
H    -1.615920  0.707398  6.111718
H    -3.431419  0.544495  3.871174
H    -2.558058  2.044596  3.636193
H    -4.554617  2.539902  4.931876
H    -3.169223  2.743531  5.994352
H    -3.736218  0.693681  7.102976
H    -6.765023  -0.899729  7.022854
H    -5.752849  -0.086364  8.104609
H    -5.738542  0.868390  4.295040
N    -3.361561  -2.161574  4.660606
C    -4.460157  -2.924626  5.229771
H    -3.464227  -1.805327  3.716613
H    -4.441868  -3.966002  4.877801
H    -5.415832  -2.460354  4.956844
H    -4.354764  -2.908238  6.318607
