35
Energy: -21190.6176841 eV PBE+vdW (tier 2 basis)
C    0.099506  0.242180  -0.357710
C    -0.029090  -0.424454  0.997161
O    0.705418  -1.356736  1.341260
H    -0.612539  1.061875  -0.512229
H    -0.050827  -0.515690  -1.136702
H    1.120892  0.626930  -0.468089
N    -1.001102  0.068048  1.811484
C    -1.252117  -0.510151  3.116213
C    -2.696406  -0.167855  3.498179
O    -3.245016  0.857754  3.085933
H    -1.628607  0.817518  1.530328
H    -1.149149  -1.597820  3.013680
C    -0.225374  0.013094  4.152716
C    -0.100944  -0.769020  5.465194
C    0.251301  -2.257503  5.303613
N    -0.918766  -3.116968  5.105402
C    -0.993250  -4.081142  4.086577
N    -1.926525  -5.085441  4.393749
N    -0.430869  -4.078486  2.936112
H    -0.453985  1.068812  4.363457
H    0.750486  -0.007782  3.646622
H    -1.015345  -0.677369  6.072653
H    0.696618  -0.293860  6.056445
H    0.805173  -2.602133  6.191718
H    0.922707  -2.395954  4.444681
H    -1.371658  -3.401854  5.969348
H    -1.944446  -5.778580  3.650126
H    -1.808139  -5.522110  5.305232
H    0.117109  -3.239990  2.718941
N    -3.279590  -1.072342  4.323330
C    -4.628227  -0.924037  4.831910
H    -2.732899  -1.898599  4.566905
H    -4.637487  -0.863944  5.929905
H    -5.261371  -1.765872  4.519320
H    -5.041381  0.003913  4.422723
