35
Energy: -21190.0683965 eV PBE+vdW (tier 2 basis)
C    -0.643390  1.038500  0.122177
C    -0.870095  0.979984  1.622567
O    -0.092281  1.494015  2.421668
H    0.307807  1.548052  -0.050758
H    -1.440142  1.599539  -0.387288
H    -0.602141  0.037182  -0.327387
N    -2.001475  0.337544  2.065363
C    -3.003846  -0.374771  1.285108
C    -4.424612  -0.114494  1.848431
O    -5.205383  -1.032071  2.094401
H    -2.065821  0.292934  3.079663
H    -3.007431  0.074312  0.278900
C    -2.712211  -1.882970  1.113317
C    -2.116040  -2.616204  2.321379
C    -2.992270  -2.670396  3.572233
N    -2.390408  -3.563328  4.554781
C    -2.895172  -3.722908  5.837769
N    -4.268503  -3.502950  5.951201
N    -2.078288  -4.021984  6.791340
H    -2.001217  -1.988047  0.280739
H    -3.646535  -2.367992  0.799711
H    -1.142403  -2.167715  2.579798
H    -1.902474  -3.650579  2.011525
H    -3.990907  -3.032423  3.287286
H    -3.148102  -1.657431  3.991132
H    -1.373891  -3.556965  4.586320
H    -4.681603  -3.872859  6.798999
H    -4.833334  -3.679664  5.125903
H    -2.575133  -4.209859  7.665481
N    -4.789964  1.187764  2.043608
C    -4.103970  2.414896  1.664476
H    -5.731569  1.272023  2.413361
H    -4.846313  3.219256  1.613063
H    -3.645578  2.329163  0.670453
H    -3.323759  2.704526  2.381054
