35
Energy: -21190.1528056 eV PBE+vdW (tier 2 basis)
C    -0.486148  0.689610  -0.941192
C    -0.537449  -0.409345  0.109847
O    -0.057524  -1.521331  -0.094720
H    -0.007025  0.277398  -1.832861
H    0.101252  1.550941  -0.590879
H    -1.486092  1.056565  -1.210082
N    -1.132047  -0.105593  1.306665
C    -1.731531  1.144916  1.723210
C    -1.579651  1.225447  3.254032
O    -1.460963  0.206733  3.932719
H    -1.082488  -0.821626  2.031499
H    -1.187744  1.981875  1.260893
C    -3.227164  1.270284  1.321551
C    -4.146199  0.225551  1.954629
C    -5.569076  0.314172  1.408647
N    -6.429251  -0.666722  2.067301
C    -7.759932  -0.847106  1.702776
N    -7.984355  -0.820190  0.322790
N    -8.642223  -0.999894  2.630312
H    -3.275586  1.188821  0.224442
H    -3.583326  2.283236  1.566659
H    -4.165012  0.357098  3.048519
H    -3.754530  -0.785493  1.772006
H    -5.554545  0.115579  0.327430
H    -5.959172  1.344570  1.530063
H    -6.373456  -0.639862  3.083634
H    -8.906439  -1.144669  0.053443
H    -7.251408  -1.234489  -0.247073
H    -9.550898  -1.269729  2.243781
N    -1.632875  2.462176  3.826645
C    -1.649179  3.762911  3.176247
H    -1.565831  2.435350  4.839216
H    -1.492700  4.531119  3.940437
H    -2.607119  3.975092  2.679823
H    -0.841716  3.862152  2.437171
