35
Energy: -21190.3268541 eV PBE+vdW (tier 2 basis)
C    -0.914225  -1.440323  -0.937877
C    -0.162648  -0.978029  0.293576
O    1.068956  -1.109078  0.361385
H    -0.624282  -0.800241  -1.782240
H    -2.005165  -1.436753  -0.850629
H    -0.571031  -2.453988  -1.176438
N    -0.845427  -0.419711  1.333757
C    -2.235217  0.026620  1.425036
C    -3.235941  -1.154572  1.308467
O    -4.124583  -1.183971  0.457054
H    -0.249844  -0.157629  2.133868
H    -2.329219  0.398566  2.459462
C    -2.613837  1.175391  0.473601
C    -2.263446  2.603924  0.918140
C    -0.783105  3.025912  0.977260
N    -0.103260  2.667390  2.219738
C    0.881256  1.710245  2.352376
N    1.845834  1.650803  1.364401
N    0.836749  0.928809  3.395174
H    -3.700714  1.118421  0.325544
H    -2.179833  0.981935  -0.518101
H    -2.729082  2.815300  1.896840
H    -2.760453  3.287499  0.212117
H    -0.727729  4.117714  0.837461
H    -0.237634  2.572355  0.137335
H    -0.676857  2.706621  3.057665
H    2.053932  0.698297  1.055671
H    1.758379  2.308239  0.596989
H    1.710034  0.400689  3.474847
N    -3.088604  -2.168771  2.208728
C    -2.127617  -2.312646  3.291875
H    -3.743033  -2.929188  2.053248
H    -2.541333  -3.007716  4.031616
H    -1.949653  -1.357323  3.800781
H    -1.158456  -2.699896  2.946132
