35
Energy: -21190.1978973 eV PBE+vdW (tier 2 basis)
C    -0.870226  1.576612  -0.619189
C    -0.308973  1.368056  0.771737
O    0.791396  1.806039  1.100693
H    -0.047863  1.912223  -1.256963
H    -1.650350  2.353968  -0.631988
H    -1.301942  0.659776  -1.040281
N    -1.068058  0.683897  1.698729
C    -2.375905  0.045189  1.574589
C    -2.326545  -1.134256  0.562842
O    -1.494351  -2.025158  0.694464
H    -0.556127  0.521575  2.559209
H    -2.524444  -0.468020  2.537267
C    -3.531858  1.048881  1.402132
C    -3.573833  2.113823  2.501414
C    -4.558956  3.255353  2.213184
N    -4.208047  4.044288  1.029976
C    -4.609983  3.718877  -0.257097
N    -5.939476  3.296780  -0.356106
N    -3.752899  3.805602  -1.220410
H    -4.484957  0.496536  1.400092
H    -3.446992  1.549370  0.426512
H    -2.567053  2.540885  2.630621
H    -3.837891  1.653216  3.467976
H    -4.598091  3.931770  3.079728
H    -5.573424  2.858181  2.076334
H    -3.238227  4.353870  1.010073
H    -6.277959  3.233846  -1.309830
H    -6.595778  3.778614  0.252898
H    -4.200739  3.712265  -2.135892
N    -3.262533  -1.122401  -0.430377
C    -3.320818  -2.148619  -1.453960
H    -3.862818  -0.311810  -0.518969
H    -4.341099  -2.541674  -1.555356
H    -2.648774  -2.957798  -1.149713
H    -2.988477  -1.764691  -2.429876
