35
Energy: -21190.2188247 eV PBE+vdW (tier 2 basis)
C    0.672101  -1.650739  1.351775
C    -0.267741  -1.390734  2.518806
O    -0.425197  -2.225210  3.408398
H    0.345050  -2.564132  0.839848
H    1.676913  -1.841652  1.748656
H    0.725977  -0.833989  0.621359
N    -0.889604  -0.169606  2.483398
C    -1.902207  0.406233  3.376261
C    -1.371854  1.525984  4.307841
O    -2.005635  2.593018  4.340319
H    -0.632108  0.429259  1.707898
H    -2.571246  0.979644  2.718375
C    -2.791266  -0.622153  4.108976
C    -3.934536  0.045057  4.904205
C    -3.885988  -0.238178  6.417289
N    -2.585388  -0.018763  7.044182
C    -2.154821  1.140162  7.668408
N    -2.846867  2.291717  7.306985
N    -1.191458  1.217436  8.533342
H    -2.178073  -1.246270  4.765650
H    -3.194511  -1.300459  3.344917
H    -4.907801  -0.307840  4.532858
H    -3.931389  1.130894  4.738135
H    -4.148191  -1.291399  6.595133
H    -4.644124  0.373017  6.928290
H    -2.080135  -0.846476  7.330516
H    -2.444530  3.093533  7.784619
H    -2.918415  2.461664  6.301581
H    -0.893082  0.285692  8.838283
N    -0.262467  1.356399  5.063589
C    0.489182  0.152233  5.372443
H    -0.078698  2.163359  5.655584
H    1.494496  0.184276  4.926581
H    -0.017473  -0.744004  5.004153
H    0.591398  0.073995  6.463113
