35
Energy: -21190.4252092 eV PBE+vdW (tier 2 basis)
C    -0.457050  -0.931962  -0.057402
C    -0.410887  -0.003406  1.140707
O    -0.092082  1.182255  1.045487
H    0.532704  -0.945765  -0.530212
H    -1.163947  -0.525338  -0.791278
H    -0.752315  -1.958215  0.191893
N    -0.758517  -0.568402  2.334009
C    -0.690533  0.162764  3.579576
C    -0.553282  -0.880842  4.703716
O    -0.780058  -2.078280  4.513767
H    -0.913747  -1.569901  2.430773
H    0.224543  0.779026  3.563678
C    -1.879913  1.147048  3.776524
C    -3.276345  0.601213  3.463819
C    -3.734333  -0.561219  4.346502
N    -5.129446  -0.881023  4.096853
C    -5.743613  -2.081680  4.436615
N    -4.877046  -3.135194  4.705981
N    -7.015459  -2.310142  4.431618
H    -1.685624  2.001342  3.114770
H    -1.848685  1.534888  4.807718
H    -3.328852  0.288340  2.411223
H    -3.987190  1.437370  3.570542
H    -3.545430  -0.313051  5.412650
H    -3.135915  -1.449547  4.111245
H    -5.765674  -0.091301  4.103914
H    -4.024631  -2.935253  5.217196
H    -5.381515  -3.945267  5.049724
H    -7.538790  -1.494668  4.102110
N    -0.173604  -0.377303  5.907064
C    -0.040084  -1.191803  7.100829
H    0.017258  0.615597  5.972076
H    -0.191272  -2.235936  6.809187
H    -0.790060  -0.920105  7.857459
H    0.961396  -1.084241  7.537665
