35
Energy: -21190.3946108 eV PBE+vdW (tier 2 basis)
C    0.099912  -0.854961  6.267158
C    -1.145156  -1.494508  5.684254
O    -1.848912  -2.269433  6.325072
H    0.655455  -1.607447  6.837067
H    -0.209769  -0.070368  6.971764
H    0.759683  -0.406139  5.513749
N    -1.438391  -1.128374  4.390028
C    -2.695802  -1.470851  3.733991
C    -2.517720  -2.428757  2.528746
O    -3.429511  -2.605174  1.724654
H    -0.886514  -0.384995  3.974289
H    -3.255761  -2.058307  4.481313
C    -3.511152  -0.231646  3.332212
C    -4.361257  0.398775  4.440889
C    -3.593197  0.971633  5.641728
N    -4.430652  1.724851  6.579187
C    -5.076384  2.911022  6.229692
N    -4.346431  3.721155  5.357555
N    -6.233228  3.311010  6.634053
H    -4.172227  -0.545874  2.514013
H    -2.829021  0.523243  2.901965
H    -5.088291  -0.344909  4.805916
H    -4.948947  1.215707  3.996160
H    -2.776075  1.619076  5.288832
H    -3.123775  0.170515  6.227296
H    -5.015534  1.134483  7.162700
H    -3.353164  3.790310  5.560290
H    -4.788270  4.631536  5.268600
H    -6.725643  2.572073  7.143664
N    -1.318802  -3.067872  2.466247
C    -1.028213  -4.090167  1.480862
H    -0.657394  -2.883523  3.211681
H    -1.849471  -4.095470  0.756229
H    -0.958426  -5.085782  1.942633
H    -0.086957  -3.874833  0.957514
