35
Energy: -21189.8201141 eV PBE+vdW (tier 2 basis)
C    -1.027913  -1.075913  1.919799
C    -1.669825  -0.451752  3.144491
O    -1.161778  -0.551204  4.259084
H    -0.089361  -1.538854  2.234695
H    -1.675394  -1.845515  1.478494
H    -0.810640  -0.322980  1.150348
N    -2.848666  0.230037  2.980926
C    -3.652368  0.520734  1.794995
C    -4.134113  -0.786179  1.105207
O    -4.868759  -1.531824  1.749685
H    -3.213688  0.596159  3.855295
H    -4.597215  0.871633  2.231381
C    -3.107852  1.704644  0.973232
C    -4.159277  2.386714  0.085227
C    -5.294908  3.100685  0.844073
N    -4.864741  4.174828  1.735569
C    -4.443844  4.002961  3.051950
N    -5.067217  2.948736  3.731939
N    -3.568496  4.709975  3.679576
H    -2.235362  1.419980  0.372615
H    -2.729297  2.432681  1.705073
H    -4.631730  1.662328  -0.598590
H    -3.653787  3.123975  -0.559215
H    -5.879887  2.378922  1.427104
H    -5.994182  3.528336  0.110169
H    -4.370399  4.930606  1.271426
H    -4.831016  2.997868  4.719964
H    -6.072580  2.882983  3.590771
H    -3.079126  5.352001  3.049808
N    -3.831945  -1.111453  -0.195695
C    -2.874735  -0.593788  -1.163576
H    -4.288220  -1.984821  -0.443727
H    -2.852976  -1.289623  -2.009224
H    -1.856014  -0.535937  -0.760556
H    -3.157340  0.392012  -1.556400
