35
Energy: -21190.3145748 eV PBE+vdW (tier 2 basis)
C    -0.859268  0.140289  -0.987517
C    -0.563441  0.440574  0.466985
O    0.091757  1.430267  0.793989
H    -0.095590  -0.555127  -1.361871
H    -0.787693  1.079530  -1.543233
H    -1.836850  -0.320108  -1.164254
N    -0.996600  -0.431787  1.438703
C    -1.847733  -1.618352  1.399765
C    -1.495474  -2.555559  0.212339
O    -0.323009  -2.868320  0.006191
H    -0.663347  -0.151911  2.356486
H    -1.519464  -2.225847  2.259301
C    -3.336008  -1.298273  1.651697
C    -4.012208  -0.371331  0.642074
C    -5.528094  -0.218970  0.854458
N    -6.281644  -1.436169  1.144874
C    -6.331256  -2.542485  0.337386
N    -7.256719  -3.489889  0.786501
N    -5.543937  -2.670380  -0.686906
H    -3.407277  -0.851573  2.657543
H    -3.881046  -2.252864  1.713825
H    -3.849808  -0.729070  -0.380379
H    -3.569708  0.634469  0.698889
H    -5.959699  0.259238  -0.037979
H    -5.722907  0.452552  1.702145
H    -6.595982  -1.568778  2.096805
H    -7.359098  -4.298861  0.184447
H    -8.149235  -3.122474  1.103769
H    -5.819372  -3.476400  -1.252771
N    -2.522508  -3.047257  -0.524001
C    -2.256764  -3.957278  -1.622777
H    -3.498132  -2.753945  -0.397947
H    -3.202900  -4.167829  -2.132654
H    -1.819423  -4.900516  -1.266088
H    -1.550379  -3.516364  -2.339974
