35
Energy: -21190.2460612 eV PBE+vdW (tier 2 basis)
C    0.056732  -1.763211  0.951433
C    -0.288018  -0.702409  1.981413
O    0.307738  -0.601474  3.048837
H    -0.205783  -2.746793  1.362385
H    1.140518  -1.756691  0.787554
H    -0.455228  -1.635563  -0.010535
N    -1.304151  0.148591  1.629421
C    -1.886633  1.135528  2.540842
C    -0.792862  1.928818  3.306352
O    -0.805400  2.042206  4.531725
H    -1.802771  -0.033872  0.766718
H    -2.390786  1.871293  1.889275
C    -2.938225  0.518809  3.487801
C    -4.189063  1.373070  3.734930
C    -3.977654  2.680205  4.523958
N    -3.365715  2.515331  5.826036
C    -4.023231  1.907541  6.881158
N    -3.155765  1.475776  7.886415
N    -5.297396  1.772327  7.058444
H    -2.447951  0.265470  4.436971
H    -3.258593  -0.430948  3.037605
H    -4.915676  0.754966  4.282570
H    -4.664162  1.624499  2.770328
H    -4.946761  3.191051  4.634724
H    -3.340610  3.377419  3.959970
H    -2.355256  2.392414  5.778809
H    -3.641824  0.915113  8.578516
H    -2.283307  1.060135  7.573834
H    -5.826666  2.230893  6.313440
N    0.133551  2.601994  2.565556
C    0.358363  2.601380  1.132325
H    0.831517  3.055053  3.147426
H    0.914703  3.508470  0.868075
H    -0.590393  2.626746  0.582869
H    0.933981  1.727070  0.791632
