35
Energy: -21190.2980353 eV PBE+vdW (tier 2 basis)
C    -0.593711  0.092829  -0.482909
C    -0.279674  0.052916  1.001927
O    0.869453  -0.002405  1.429516
H    -0.206464  -0.823106  -0.946599
H    -0.061142  0.939103  -0.933323
H    -1.663687  0.181541  -0.709795
N    -1.370972  0.085433  1.832633
C    -1.238696  -0.033323  3.283852
C    -2.422335  -0.837112  3.847219
O    -2.283523  -1.956137  4.329867
H    -2.298686  0.069975  1.426243
H    -0.348730  -0.649480  3.459969
C    -1.051008  1.337590  3.967550
C    -0.982414  1.279274  5.497236
C    0.218751  0.486332  6.026904
N    0.286373  0.497502  7.485402
C    0.877103  1.558118  8.148494
N    1.020711  1.312062  9.525154
N    1.258612  2.607043  7.503422
H    -1.865912  2.014719  3.659367
H    -0.127946  1.778182  3.562534
H    -1.905945  0.842636  5.910821
H    -0.909595  2.303347  5.887349
H    1.146806  0.905068  5.605806
H    0.148773  -0.565893  5.721698
H    0.426433  -0.405423  7.922653
H    1.266276  2.138210  10.060062
H    0.243218  0.812181  9.949827
H    1.601444  3.329610  8.140223
N    -3.642140  -0.219430  3.738515
C    -4.851460  -0.810971  4.284159
H    -3.650343  0.773979  3.533864
H    -5.719490  -0.505006  3.688236
H    -5.016982  -0.521880  5.333654
H    -4.747729  -1.900068  4.244468
