35
Energy: -21190.1906208 eV PBE+vdW (tier 2 basis)
C    0.295235  0.154418  -0.026954
C    -0.187385  0.402183  1.391600
O    0.026179  1.456210  1.984991
H    -0.176656  0.888682  -0.691931
H    0.078766  -0.853928  -0.402003
H    1.377736  0.327193  -0.067375
N    -0.863321  -0.635718  1.973605
C    -1.496028  -0.522428  3.279310
C    -0.585603  -0.482693  4.529426
O    -1.072464  -0.036817  5.567960
H    -1.041947  -1.467998  1.424962
H    -1.990775  0.458644  3.321838
C    -2.565350  -1.612213  3.462170
C    -2.034839  -3.047451  3.535045
C    -3.137751  -4.065106  3.862983
N    -3.760204  -3.823950  5.153465
C    -5.059399  -3.370260  5.264886
N    -5.467301  -3.265614  6.605099
N    -5.766761  -3.124687  4.215114
H    -3.307591  -1.521337  2.654450
H    -3.094082  -1.381671  4.395319
H    -1.244547  -3.112394  4.300676
H    -1.571485  -3.357022  2.581773
H    -2.720690  -5.083347  3.845779
H    -3.937849  -4.019775  3.111607
H    -3.387282  -4.314192  5.956081
H    -6.353755  -2.785348  6.717809
H    -4.761053  -2.884849  7.231314
H    -6.669114  -2.715630  4.464512
N    0.693380  -0.965735  4.524648
C    1.520849  -1.535856  3.473222
H    1.139894  -0.810065  5.423415
H    2.400820  -1.985047  3.948411
H    1.870110  -0.781002  2.753854
H    0.999416  -2.331337  2.928914
