35
Energy: -21190.4753504 eV PBE+vdW (tier 2 basis)
C    -0.379225  -0.229227  -0.333112
C    -0.226120  -0.486115  1.147802
O    0.875234  -0.732490  1.648609
H    -0.029712  0.789450  -0.551463
H    -1.400736  -0.335228  -0.711122
H    0.281351  -0.923287  -0.864461
N    -1.346628  -0.484144  1.950715
C    -2.673217  0.082784  1.678300
C    -3.525391  -0.762222  0.692607
O    -4.479681  -0.270759  0.096298
H    -1.097883  -0.610148  2.928122
H    -3.215396  -0.013653  2.634154
C    -2.674423  1.572733  1.302820
C    -2.160666  2.511312  2.415477
C    -0.939492  3.342848  2.007990
N    0.230283  2.510769  1.816289
C    1.241122  2.788177  0.897785
N    2.321452  1.924682  1.038980
N    1.260718  3.700140  -0.016534
H    -3.705163  1.822721  1.026297
H    -2.077132  1.716211  0.392344
H    -1.908818  1.940714  3.325400
H    -2.958370  3.204819  2.717926
H    -0.760344  4.140724  2.751995
H    -1.156428  3.847506  1.055236
H    0.543382  1.999875  2.636258
H    2.986272  2.035482  0.280661
H    2.092743  0.950520  1.246769
H    0.477419  4.349753  0.075950
N    -3.171359  -2.073082  0.612279
C    -3.877062  -3.027255  -0.219681
H    -2.342517  -2.360330  1.121163
H    -4.248934  -3.871621  0.376636
H    -3.229920  -3.415944  -1.018814
H    -4.727914  -2.507663  -0.673050
