35
Energy: -21190.3224748 eV PBE+vdW (tier 2 basis)
C    -0.650725  0.495663  -0.592711
C    -0.222718  0.162195  0.821693
O    0.951239  0.140462  1.175723
H    0.240695  0.765060  -1.164306
H    -1.369733  1.325721  -0.621920
H    -1.135033  -0.367768  -1.070987
N    -1.229521  -0.115389  1.728359
C    -2.657366  -0.250880  1.463967
C    -3.371775  1.102391  1.249368
O    -4.387618  1.174893  0.553356
H    -0.880477  -0.445337  2.625064
H    -2.824164  -0.803101  0.526571
C    -3.282688  -1.071776  2.614931
C    -4.794290  -1.317131  2.523063
C    -5.674550  -0.163985  3.077364
N    -6.742338  0.284528  2.187401
C    -7.810621  -0.546710  1.853047
N    -8.264842  -1.351895  2.901602
N    -8.393409  -0.627013  0.705633
H    -3.042293  -0.576425  3.572088
H    -2.752918  -2.036388  2.623995
H    -5.032807  -2.242616  3.063431
H    -5.075646  -1.501384  1.476455
H    -5.054989  0.718765  3.290274
H    -6.105923  -0.461179  4.041767
H    -6.356425  0.756733  1.369950
H    -9.138376  -1.802591  2.644602
H    -8.323569  -0.887364  3.803808
H    -7.878162  -0.097420  -0.003300
N    -2.817508  2.157648  1.896248
C    -3.355624  3.502419  1.828192
H    -1.930880  1.991593  2.362165
H    -4.273879  3.465563  1.232696
H    -2.646258  4.190745  1.348234
H    -3.593876  3.881843  2.831111
