35
Energy: -21190.5112502 eV PBE+vdW (tier 2 basis)
C    -1.982009  -0.731857  3.954598
C    -0.676846  -0.722196  3.187610
O    -0.412246  -1.579704  2.336079
H    -2.064082  -1.678301  4.503403
H    -2.810473  -0.699237  3.236142
H    -2.086908  0.101717  4.659578
N    0.185213  0.288429  3.489380
C    1.471783  0.476255  2.816029
C    2.569612  -0.412605  3.465389
O    3.483425  0.056930  4.141071
H    -0.035994  0.912870  4.257758
H    1.325706  0.125407  1.782039
C    1.860224  1.951633  2.830034
C    0.963985  2.830405  1.956088
C    1.156352  4.332371  2.216587
N    0.777917  4.747508  3.564150
C    -0.442366  5.301331  3.921612
N    -1.460346  5.119196  2.984530
N    -0.700298  5.965847  4.997982
H    2.908372  2.034597  2.511049
H    1.843224  2.308049  3.872372
H    -0.093973  2.567797  2.123919
H    1.160637  2.628576  0.890909
H    0.580791  4.918306  1.485529
H    2.214346  4.595887  2.068559
H    1.529442  4.956432  4.207763
H    -2.350245  5.429083  3.362884
H    -1.515352  4.204887  2.546188
H    0.150067  6.158980  5.534028
N    2.399912  -1.734650  3.200318
C    3.246144  -2.761726  3.774693
H    1.548041  -1.996917  2.697778
H    2.711475  -3.345833  4.538703
H    4.104855  -2.271153  4.244983
H    3.604614  -3.448310  2.996263
