35
Energy: -21190.2852433 eV PBE+vdW (tier 2 basis)
C    1.692995  -0.553820  1.155137
C    0.898810  0.054257  2.296146
O    1.394383  0.286150  3.395242
H    2.010612  -1.562149  1.449919
H    2.599173  0.042932  0.997867
H    1.136878  -0.619167  0.211627
N    -0.415773  0.331179  2.015794
C    -1.337776  0.803770  3.050311
C    -2.748927  0.294267  2.704543
O    -3.270761  -0.631631  3.316041
H    -0.797726  0.047637  1.121382
H    -1.063460  0.297411  3.985957
C    -1.203855  2.325332  3.272463
C    -1.954188  2.878830  4.489908
C    -3.475991  2.941778  4.347465
N    -4.066426  3.625873  5.482915
C    -5.447897  3.745687  5.597088
N    -5.822467  4.577268  6.658250
N    -6.355294  3.206264  4.858653
H    -1.492151  2.876624  2.360156
H    -0.130722  2.514195  3.409691
H    -1.578754  3.898225  4.678268
H    -1.697784  2.287539  5.382387
H    -3.900855  1.928294  4.310447
H    -3.737617  3.438423  3.390047
H    -3.550993  4.439051  5.809330
H    -6.827504  4.539877  6.803115
H    -5.308163  4.416209  7.520461
H    -5.947266  2.729167  4.051761
N    -3.344949  0.920390  1.641179
C    -4.709795  0.627654  1.239446
H    -2.918962  1.772984  1.295430
H    -4.795650  0.626198  0.145971
H    -5.422187  1.358998  1.651800
H    -4.969283  -0.362267  1.627701
