35
Energy: -21190.3015738 eV PBE+vdW (tier 2 basis)
C    1.026992  0.791607  0.794183
C    1.004441  -0.055834  2.055991
O    2.039936  -0.473454  2.570228
H    2.072734  0.944818  0.516147
H    0.543115  1.766817  0.936128
H    0.508087  0.283670  -0.030158
N    -0.219144  -0.362546  2.592953
C    -1.549135  0.095927  2.203130
C    -2.152062  0.813305  3.428924
O    -2.441403  0.162041  4.434476
H    -0.169609  -0.894001  3.460717
H    -1.437580  0.783450  1.360222
C    -2.467893  -1.082744  1.824290
C    -2.028909  -1.896989  0.598051
C    -2.604417  -1.456225  -0.758127
N    -2.146273  -0.171327  -1.284584
C    -2.625185  1.079278  -0.936261
N    -3.924998  1.106229  -0.437817
N    -1.976224  2.197171  -1.013959
H    -3.484841  -0.690624  1.676159
H    -2.519103  -1.734299  2.707379
H    -2.344527  -2.942760  0.738276
H    -0.928592  -1.932535  0.541755
H    -3.702047  -1.444443  -0.702054
H    -2.354766  -2.215746  -1.513844
H    -1.179713  -0.155087  -1.590483
H    -4.279818  2.057124  -0.412059
H    -4.580652  0.454813  -0.857074
H    -1.002001  2.046475  -1.287877
N    -2.340983  2.161314  3.374921
C    -1.887142  3.117976  2.374839
H    -2.667809  2.536635  4.261556
H    -2.473747  4.037507  2.483788
H    -2.041956  2.756104  1.350976
H    -0.823464  3.377764  2.500614
