35
Energy: -21190.3897809 eV PBE+vdW (tier 2 basis)
C    -0.099572  1.045114  0.012782
C    0.283628  0.373295  1.320716
O    1.445168  0.361090  1.720964
H    0.702317  1.737464  -0.257439
H    -1.051348  1.590895  0.065534
H    -0.188291  0.294278  -0.784974
N    -0.712766  -0.234332  2.039875
C    -2.127295  -0.337209  1.744290
C    -2.834922  -0.599259  3.088028
O    -2.200784  -1.021617  4.065939
H    -0.436194  -0.632680  2.937464
H    -2.495415  0.631471  1.367478
C    -2.464747  -1.401217  0.659791
C    -1.835626  -2.790868  0.819391
C    -2.263135  -3.594198  2.055163
N    -3.711741  -3.561338  2.235948
C    -4.355612  -3.898025  3.424636
N    -3.644073  -3.619349  4.583271
N    -5.530029  -4.434001  3.335716
H    -2.135244  -0.988659  -0.304512
H    -3.555564  -1.499900  0.587789
H    -0.738858  -2.708826  0.829387
H    -2.086527  -3.362356  -0.088851
H    -1.788303  -3.175849  2.947906
H    -1.883891  -4.628052  1.957519
H    -4.246839  -3.949454  1.461856
H    -4.178887  -3.720031  5.437156
H    -3.023889  -2.806230  4.581017
H    -5.959901  -4.541257  4.257908
N    -4.160882  -0.335110  3.185750
C    -5.112588  -0.016355  2.135939
H    -4.549450  -0.626950  4.078598
H    -5.952826  0.533361  2.575474
H    -5.501697  -0.923475  1.648558
H    -4.655563  0.628451  1.377078
