35
Energy: -21190.3674492 eV PBE+vdW (tier 2 basis)
C    -0.983714  0.722751  0.220096
C    -0.640960  -0.238370  1.349243
O    0.172770  -1.150293  1.207019
H    -0.253894  1.544123  0.203912
H    -1.983917  1.162182  0.326478
H    -0.912921  0.186349  -0.731451
N    -1.293038  0.007937  2.522792
C    -1.047231  -0.767877  3.719785
C    -1.865750  -2.071665  3.873254
O    -1.357156  -3.033155  4.446924
H    -1.916906  0.821858  2.593556
H    -0.013348  -1.138214  3.667628
C    -1.223906  0.084679  4.987105
C    -0.190986  1.218411  5.166716
C    -0.687550  2.657795  4.928543
N    -0.604217  3.178506  3.571489
C    -1.652235  3.267618  2.699350
N    -1.373016  4.076011  1.595741
N    -2.743753  2.587435  2.893262
H    -1.151923  -0.606815  5.836793
H    -2.242230  0.503934  5.011578
H    0.693897  1.029766  4.539100
H    0.170693  1.186887  6.205026
H    -0.099562  3.338549  5.563189
H    -1.737160  2.749012  5.237943
H    0.309250  3.433684  3.217823
H    -2.135329  4.178927  0.936429
H    -0.889709  4.948808  1.785594
H    -3.479697  2.884442  2.249194
N    -3.154203  -2.135227  3.417220
C    -4.000760  -1.122345  2.806513
H    -3.561176  -3.052926  3.568089
H    -5.044337  -1.441520  2.916725
H    -3.792629  -0.987137  1.734541
H    -3.901812  -0.149358  3.302863
