35
Energy: -21190.5906429 eV PBE+vdW (tier 2 basis)
C    0.657632  0.801255  0.319658
C    0.341851  0.715525  1.797324
O    1.170677  1.034126  2.660267
H    0.898208  1.843249  0.073677
H    -0.160512  0.463223  -0.327785
H    1.552527  0.201914  0.112320
N    -0.903549  0.270468  2.117810
C    -1.421659  0.215959  3.487597
C    -0.932091  -1.051639  4.250605
O    -1.697676  -1.927169  4.671361
H    -1.517437  -0.036808  1.372437
H    -0.982228  1.078895  4.012026
C    -2.944428  0.342494  3.499145
C    -3.703355  -0.687094  2.634459
C    -5.005313  -1.160911  3.290074
N    -4.715515  -1.870350  4.533924
C    -5.367715  -1.618566  5.730322
N    -6.685858  -1.169199  5.588168
N    -4.875828  -1.750953  6.917196
H    -3.211375  1.362675  3.188359
H    -3.263095  0.241275  4.545340
H    -3.077183  -1.575359  2.455929
H    -3.946727  -0.266676  1.646363
H    -5.547838  -1.808192  2.578468
H    -5.657834  -0.300606  3.505564
H    -3.726096  -2.097900  4.655881
H    -7.146220  -1.147307  6.493674
H    -7.235277  -1.663684  4.890131
H    -3.871380  -1.946118  6.871709
N    0.404205  -1.087172  4.434316
C    1.060365  -2.193194  5.107555
H    0.953798  -0.327269  4.019213
H    1.023474  -3.113891  4.506722
H    0.572653  -2.400714  6.068432
H    2.106867  -1.925631  5.284906
