35
Energy: -21190.0852091 eV PBE+vdW (tier 2 basis)
C    -0.559454  -0.558657  -0.050875
C    -0.111263  0.469182  0.972888
O    0.729133  1.326086  0.714537
H    0.034750  -0.407525  -0.955545
H    -1.622469  -0.439003  -0.305180
H    -0.415990  -1.587306  0.306256
N    -0.697673  0.420573  2.215556
C    -1.667704  -0.540580  2.728611
C    -2.698135  0.195431  3.620016
O    -2.845608  -0.077588  4.809803
H    -0.319962  1.107026  2.863831
H    -2.225890  -0.931396  1.863914
C    -1.034978  -1.740851  3.455172
C    0.000547  -1.385047  4.524187
C    0.500226  -2.625441  5.262778
N    1.493391  -2.260841  6.259837
C    2.314367  -3.149682  6.938084
N    2.268329  -4.462461  6.465657
N    3.144657  -2.855799  7.882369
H    -0.564405  -2.382578  2.693306
H    -1.850624  -2.324485  3.906745
H    -0.452849  -0.690915  5.247900
H    0.863673  -0.878379  4.066875
H    0.968597  -3.319089  4.547743
H    -0.369669  -3.149633  5.709154
H    1.328555  -1.389413  6.749917
H    2.821979  -5.069103  7.063240
H    1.345061  -4.839798  6.274310
H    3.185948  -1.845304  8.040597
N    -3.444225  1.170494  3.020571
C    -3.462759  1.590222  1.628235
H    -4.078708  1.632182  3.664609
H    -3.469702  0.726473  0.949768
H    -2.607458  2.228839  1.367038
H    -4.386176  2.151770  1.449442
