35
Energy: -21190.3692772 eV PBE+vdW (tier 2 basis)
C    0.316598  -0.111907  0.101257
C    0.247538  -0.222872  1.612303
O    1.234902  -0.459468  2.299249
H    0.910480  0.774419  -0.157603
H    -0.664546  -0.033221  -0.383729
H    0.846630  -0.985895  -0.294941
N    -1.009421  -0.054755  2.156061
C    -1.220174  0.055211  3.593509
C    -2.124188  -1.053328  4.179902
O    -2.618876  -0.934564  5.299187
H    -1.749775  0.263530  1.540121
H    -0.222967  -0.117567  4.030486
C    -1.706022  1.447218  4.023539
C    -3.052894  1.863530  3.427822
C    -3.532658  3.207916  3.972834
N    -4.780901  3.596515  3.340660
C    -5.447065  4.788717  3.573901
N    -4.638501  5.841132  4.013357
N    -6.703424  4.854590  3.284892
H    -0.928332  2.177888  3.754300
H    -1.780800  1.433132  5.119294
H    -3.808090  1.094147  3.656992
H    -2.995404  1.947755  2.329815
H    -2.765811  3.968632  3.751474
H    -3.618320  3.135695  5.075988
H    -5.444622  2.848680  3.161862
H    -5.158414  6.622718  4.394441
H    -3.832492  5.600913  4.581490
H    -7.074095  5.795754  3.433216
N    -2.289133  -2.148350  3.390258
C    -3.004680  -3.329785  3.829482
H    -1.794136  -2.157131  2.505588
H    -2.322491  -4.177487  3.988646
H    -3.768190  -3.621471  3.095956
H    -3.492369  -3.087933  4.779909
