35
Energy: -21190.4119039 eV PBE+vdW (tier 2 basis)
C    -0.932833  0.125989  -0.181964
C    -0.687767  0.013036  1.310659
O    0.435529  -0.182090  1.776711
H    -0.408000  1.014059  -0.557117
H    -1.993684  0.204369  -0.448875
H    -0.495882  -0.748474  -0.678513
N    -1.795880  0.173289  2.094309
C    -1.760980  -0.010479  3.530362
C    -2.977548  -0.862660  3.914204
O    -4.007941  -0.835491  3.238380
H    -2.726632  0.169815  1.684097
H    -0.815087  -0.524862  3.755665
C    -1.803712  1.329536  4.302833
C    -0.612238  2.236903  3.999635
C    -0.650010  3.533041  4.817865
N    0.429261  4.458991  4.509848
C    0.328275  5.313299  3.426200
N    1.474705  6.092170  3.217389
N    -0.776607  5.407077  2.766620
H    -1.848551  1.113971  5.383429
H    -2.744571  1.843596  4.049693
H    -0.609236  2.500814  2.933422
H    0.327286  1.695096  4.194893
H    -0.609066  3.310416  5.896019
H    -1.586320  4.071194  4.621197
H    1.363399  4.141089  4.743011
H    1.609247  6.383330  2.256031
H    2.336871  5.769106  3.646102
H    -0.730706  6.163785  2.080877
N    -2.886269  -1.611962  5.048943
C    -1.728543  -1.797546  5.909069
H    -3.742920  -2.104529  5.280746
H    -0.836660  -2.078420  5.333155
H    -1.944047  -2.613169  6.607147
H    -1.493805  -0.899564  6.500349
