35
Energy: -21190.4293226 eV PBE+vdW (tier 2 basis)
C    -0.788524  -0.366758  0.031993
C    -0.751589  -0.646773  1.524921
O    -0.701942  -1.793029  1.965182
H    -0.161763  0.485184  -0.264182
H    -1.818522  -0.150444  -0.285499
H    -0.450686  -1.266476  -0.489197
N    -0.785283  0.431642  2.369683
C    -0.901120  1.841944  2.059014
C    -0.398640  2.598055  3.304305
O    -0.539510  2.132726  4.438735
H    -0.756986  0.220629  3.367988
H    -0.224870  2.089736  1.224915
C    -2.333930  2.294327  1.631314
C    -3.506242  1.665339  2.395902
C    -3.864339  2.291480  3.751255
N    -4.325543  3.665410  3.639329
C    -3.626500  4.775053  4.083263
N    -4.192167  5.975802  3.621952
N    -2.567165  4.828561  4.813522
H    -2.442308  2.040040  0.567409
H    -2.387164  3.393421  1.683283
H    -3.313713  0.593039  2.550210
H    -4.398738  1.713499  1.750297
H    -3.003495  2.262974  4.429775
H    -4.649129  1.679433  4.223904
H    -4.976756  3.845147  2.881997
H    -3.778366  6.763394  4.113497
H    -5.207903  6.006232  3.670487
H    -2.187202  3.901897  5.020587
N    0.194211  3.787611  3.050301
C    0.637321  4.694652  4.099643
H    0.213587  4.115044  2.091973
H    1.501981  5.265708  3.742699
H    0.931982  4.098026  4.969329
H    -0.172888  5.373931  4.402376
