35
Energy: -21190.455569 eV PBE+vdW (tier 2 basis)
C    1.611020  -1.709502  1.202548
C    1.082790  -1.029183  2.450770
O    1.830316  -0.586721  3.323046
H    2.307203  -1.029905  0.696158
H    0.825089  -2.008875  0.498840
H    2.181950  -2.597359  1.502272
N    -0.280116  -0.925333  2.524955
C    -0.950687  -0.476620  3.728933
C    -2.126016  -1.435043  3.973893
O    -2.625527  -2.066970  3.040133
H    -0.873031  -1.465059  1.896407
H    -0.208407  -0.525901  4.539970
C    -1.476493  0.972647  3.613071
C    -0.362064  2.007189  3.460237
C    -0.909119  3.425603  3.322352
N    0.175945  4.384615  3.214390
C    -0.077594  5.748105  3.127856
N    1.083688  6.490309  2.885555
N    -1.209555  6.354332  3.237209
H    -2.077352  1.209289  4.505521
H    -2.164735  1.017309  2.754001
H    0.245404  1.760487  2.575536
H    0.318604  1.956891  4.323170
H    -1.508205  3.681875  4.211384
H    -1.592812  3.478372  2.451546
H    0.975164  4.069027  2.671801
H    0.894379  7.485662  2.960199
H    1.888362  6.210846  3.440470
H    -1.988428  5.692844  3.269092
N    -2.612623  -1.536518  5.241661
C    -2.156369  -0.866892  6.447542
H    -3.435099  -2.128977  5.308236
H    -1.071627  -0.714350  6.422073
H    -2.380556  -1.499264  7.314392
H    -2.641125  0.110474  6.597952
