35
Energy: -21190.5396803 eV PBE+vdW (tier 2 basis)
C    -1.133985  0.706032  0.888236
C    -0.756230  0.086193  2.213466
O    -0.211115  0.719901  3.114050
H    -1.264488  -0.030588  0.085023
H    -0.372486  1.437336  0.599058
H    -2.085309  1.237271  1.038602
N    -1.084659  -1.247327  2.358936
C    -1.083121  -1.879393  3.672780
C    -0.036014  -3.002075  3.824343
O    -0.099285  -3.800032  4.759026
H    -1.683726  -1.654435  1.647823
H    -0.734848  -1.079913  4.349224
C    -2.483273  -2.366917  4.107573
C    -2.803474  -2.069500  5.578784
C    -3.153901  -0.602442  5.870065
N    -4.400940  -0.168663  5.254804
C    -4.478812  0.533430  4.060223
N    -5.777287  0.523664  3.526339
N    -3.548646  1.146652  3.414055
H    -2.555463  -3.449246  3.936896
H    -3.235908  -1.882408  3.468226
H    -1.954175  -2.375376  6.207063
H    -3.651735  -2.698063  5.896342
H    -2.353633  0.071107  5.531152
H    -3.228257  -0.455340  6.958283
H    -5.184654  -0.794068  5.417198
H    -5.851095  1.206133  2.776897
H    -6.515981  0.648949  4.214209
H    -2.629664  1.037695  3.847954
N    0.948968  -3.005433  2.887823
C    2.076317  -3.913255  2.937454
H    0.905659  -2.284565  2.175902
H    2.173256  -4.475523  1.998509
H    1.899602  -4.616044  3.759015
H    3.016401  -3.375154  3.127110
