35
Energy: -21190.6491465 eV PBE+vdW (tier 2 basis)
C    -1.157793  1.847324  2.744716
C    -0.348090  0.611526  2.382356
O    0.849116  0.523772  2.662028
H    -0.525551  2.495085  3.357533
H    -2.074098  1.599849  3.298302
H    -1.459253  2.402565  1.844315
N    -1.002157  -0.412530  1.744214
C    -2.365672  -0.371777  1.239925
C    -3.437778  -0.832958  2.253814
O    -4.635953  -0.669859  2.022063
H    -0.375566  -1.198549  1.458686
H    -2.629948  0.673259  1.025131
C    -2.539026  -1.143070  -0.097875
C    -2.843721  -2.646591  -0.027959
C    -1.707896  -3.580311  0.403222
N    -0.584785  -3.611307  -0.531563
C    0.651451  -3.108118  -0.197003
N    1.651212  -3.426473  -1.119547
N    0.810384  -2.444275  0.900284
H    -1.643781  -0.958956  -0.710471
H    -3.379443  -0.670333  -0.622132
H    -3.185679  -2.963172  -1.026111
H    -3.699634  -2.813573  0.644049
H    -2.105737  -4.601822  0.500282
H    -1.306300  -3.302228  1.386009
H    -0.585428  -4.360820  -1.212147
H    1.354066  -3.474435  -2.090384
H    2.499301  -2.881016  -1.011995
H    1.745621  -2.050183  1.005972
N    -2.947013  -1.435257  3.368212
C    -3.791592  -1.929285  4.434865
H    -1.934808  -1.461043  3.455373
H    -3.619471  -1.379030  5.371038
H    -3.613762  -2.998154  4.617911
H    -4.833336  -1.786660  4.126296
