35
Energy: -21190.2478501 eV PBE+vdW (tier 2 basis)
C    -0.512053  -0.531296  0.079471
C    -0.518957  -0.343209  1.585763
O    0.488229  -0.478750  2.274153
H    0.180476  0.196250  -0.361909
H    -1.497187  -0.413501  -0.389293
H    -0.123085  -1.530913  -0.150259
N    -1.732166  -0.020069  2.135189
C    -1.888813  0.272994  3.549453
C    -1.770547  -0.889299  4.555504
O    -1.424025  -0.606996  5.708319
H    -2.533626  0.100630  1.527825
H    -1.031165  0.896948  3.838227
C    -3.208965  1.040471  3.806952
C    -3.038502  2.556096  3.963779
C    -2.129480  2.956982  5.147561
N    -2.363329  2.234078  6.395624
C    -3.591282  2.233683  7.047796
N    -4.306391  3.431855  6.943066
N    -4.106322  1.253897  7.711761
H    -3.685674  0.646845  4.714024
H    -3.916236  0.827971  2.988982
H    -4.033930  2.997490  4.113853
H    -2.626951  2.999869  3.042197
H    -2.217074  4.041743  5.308264
H    -1.073903  2.784876  4.893693
H    -1.920790  1.311726  6.406206
H    -5.092231  3.428241  7.587048
H    -3.743622  4.273880  7.029415
H    -3.539207  0.407653  7.603220
N    -2.085818  -2.168680  4.225230
C    -2.602176  -2.733700  2.988644
H    -1.945039  -2.805444  5.003795
H    -2.998221  -3.730274  3.214260
H    -1.826536  -2.839278  2.217062
H    -3.428716  -2.137611  2.583753
