35
Energy: -21190.0992373 eV PBE+vdW (tier 2 basis)
C    1.888212  0.084286  0.046977
C    1.129907  -0.116095  1.349504
O    1.723647  -0.284235  2.414426
H    2.471214  -0.822379  -0.159407
H    2.601580  0.906340  0.180395
H    1.250885  0.298991  -0.819755
N    -0.233352  -0.093838  1.221770
C    -1.287312  -0.320242  2.220834
C    -2.050532  0.962271  2.642426
O    -3.278948  0.967829  2.548472
H    -0.582020  0.072583  0.285227
H    -2.074546  -0.872732  1.687751
C    -0.905287  -1.174842  3.439964
C    -0.495091  -2.604572  3.086572
C    -0.228495  -3.470116  4.323968
N    -1.404688  -3.656641  5.170519
C    -1.480895  -3.354915  6.524254
N    -0.616939  -2.342477  6.944894
N    -2.254918  -3.914726  7.392839
H    -1.805540  -1.207551  4.073014
H    -0.103091  -0.694559  4.014578
H    0.420389  -2.596671  2.477563
H    -1.284419  -3.074764  2.476023
H    0.562724  -3.019450  4.937087
H    0.153887  -4.452910  4.002068
H    -2.026520  -4.408453  4.896866
H    -0.819347  -2.088872  7.907323
H    -0.555657  -1.532605  6.334491
H    -2.723676  -4.736011  7.000334
N    -1.380922  2.042547  3.134757
C    0.041710  2.279696  3.311786
H    -2.012184  2.809415  3.349373
H    0.191591  2.900588  4.203759
H    0.483927  2.802293  2.448425
H    0.592312  1.344553  3.453991
