35
Energy: -21190.3797383 eV PBE+vdW (tier 2 basis)
C    -1.569734  -0.775479  0.325811
C    -0.946885  -0.028050  1.492131
O    0.252745  -0.081345  1.738791
H    -2.582411  -0.439262  0.070181
H    -1.610096  -1.843703  0.578630
H    -0.919575  -0.670379  -0.549563
N    -1.828172  0.726465  2.235110
C    -1.516878  1.357019  3.525269
C    -0.206272  2.182309  3.488226
O    0.546962  2.247584  4.460034
H    -2.812005  0.638116  2.007639
H    -2.306070  2.115475  3.663158
C    -1.593315  0.418264  4.735830
C    -0.586636  -0.732741  4.780091
C    -0.509818  -1.395807  6.163332
N    -0.344216  -0.470864  7.293591
C    0.904090  0.018698  7.689673
N    1.698182  0.483897  6.651006
N    1.195962  -0.023588  8.949115
H    -1.456542  1.036677  5.634318
H    -2.621807  0.023994  4.791543
H    0.406737  -0.378950  4.482937
H    -0.851746  -1.515260  4.052901
H    -1.451478  -1.930842  6.356780
H    0.292428  -2.154254  6.145219
H    -0.828211  -0.781176  8.131197
H    1.231776  1.015124  5.910938
H    2.558419  0.922475  6.959044
H    2.054639  0.500003  9.142909
N    -0.029190  2.929619  2.368045
C    1.196913  3.671055  2.135191
H    -0.605070  2.694345  1.567755
H    1.541349  4.090512  3.085939
H    1.003186  4.487257  1.429921
H    1.992745  3.025173  1.733101
