35
Energy: -21190.1522586 eV PBE+vdW (tier 2 basis)
C    0.491505  -0.819894  0.125391
C    0.344768  -0.723815  1.634403
O    1.262266  -0.997817  2.403349
H    1.276293  -0.123823  -0.196362
H    -0.429622  -0.595888  -0.427639
H    0.827376  -1.831540  -0.133454
N    -0.886519  -0.328784  2.081754
C    -1.163161  -0.061614  3.486533
C    -1.211442  -1.264191  4.457406
O    -1.051125  -1.029437  5.653718
H    -1.589097  -0.070278  1.399570
H    -0.323506  0.525082  3.886128
C    -2.445977  0.777685  3.629016
C    -3.744120  0.049364  3.264148
C    -5.004026  0.920079  3.380453
N    -5.093272  2.000598  2.410417
C    -4.718913  3.296274  2.713066
N    -4.794031  4.139376  1.588653
N    -4.323133  3.616324  3.896502
H    -2.328550  1.686550  3.020307
H    -2.504778  1.118217  4.670080
H    -3.876034  -0.821554  3.925906
H    -3.697355  -0.359629  2.237713
H    -5.047351  1.391036  4.370564
H    -5.894061  0.281309  3.271457
H    -5.030739  1.744416  1.431434
H    -4.671005  5.120420  1.816546
H    -5.617847  3.997291  1.008226
H    -4.191487  4.625823  3.984883
N    -1.482656  -2.538124  4.038676
C    -1.683002  -3.112967  2.718344
H    -1.431318  -3.189141  4.816518
H    -2.420125  -2.550000  2.134918
H    -2.076463  -4.127479  2.852317
H    -0.749534  -3.182839  2.140725
