35
Energy: -21190.0660334 eV PBE+vdW (tier 2 basis)
C    0.035339  0.611385  -0.226988
C    -0.274092  1.050427  1.193849
O    -0.137339  2.210037  1.568587
H    1.114313  0.717698  -0.398460
H    -0.473685  1.288361  -0.923006
H    -0.257052  -0.422291  -0.450387
N    -0.732588  0.060499  2.024940
C    -0.972948  0.241449  3.456646
C    -1.736506  1.555459  3.781569
O    -1.320537  2.340220  4.627103
H    -0.770303  -0.885072  1.664123
H    -1.643660  -0.585118  3.750929
C    0.320244  0.140942  4.281185
C    0.084726  -0.188870  5.755974
C    1.388070  -0.233868  6.551050
N    1.123318  -0.550231  7.946335
C    2.079932  -0.908716  8.884191
N    3.349832  -1.154572  8.359062
N    1.878904  -1.105225  10.144995
H    0.860410  1.092858  4.184470
H    0.944238  -0.642462  3.823031
H    -0.422586  -1.162912  5.853469
H    -0.577782  0.574116  6.190930
H    1.910922  0.736547  6.432186
H    2.046918  -1.014252  6.140889
H    0.293731  -0.123661  8.342581
H    4.013453  -1.317211  9.110595
H    3.690563  -0.484875  7.675734
H    0.885541  -1.025796  10.379217
N    -2.948485  1.750756  3.178079
C    -3.603619  0.979804  2.138903
H    -3.348537  2.653881  3.412743
H    -4.675532  1.210326  2.157934
H    -3.498571  -0.097186  2.318768
H    -3.218174  1.202628  1.131498
