35
Energy: -21190.3864365 eV PBE+vdW (tier 2 basis)
C    -1.278054  1.756940  2.855842
C    -0.233772  0.897484  2.172974
O    0.966453  1.149076  2.212754
H    -0.761132  2.535975  3.421464
H    -1.915619  1.172671  3.533219
H    -1.938874  2.231973  2.116548
N    -0.691413  -0.214647  1.492606
C    -2.074653  -0.615212  1.260132
C    -2.742625  -1.293115  2.479644
O    -3.967549  -1.339829  2.578786
H    0.037474  -0.689947  0.966082
H    -2.693441  0.269392  1.046204
C    -2.122264  -1.546535  0.031210
C    -3.526318  -1.830203  -0.503711
C    -3.531808  -2.805862  -1.692968
N    -2.793514  -2.386646  -2.873176
C    -3.258178  -1.402669  -3.736180
N    -2.301696  -1.047565  -4.697058
N    -4.404327  -0.814733  -3.740817
H    -1.615322  -2.494271  0.285688
H    -1.523990  -1.062048  -0.757417
H    -3.996202  -0.880145  -0.799805
H    -4.157881  -2.248506  0.292060
H    -4.570427  -3.005925  -1.995189
H    -3.115545  -3.775055  -1.378343
H    -1.783580  -2.462729  -2.820699
H    -2.712609  -0.426207  -5.388474
H    -1.830525  -1.835721  -5.134411
H    -4.964904  -1.061270  -2.922707
N    -1.881379  -1.844624  3.375935
C    -2.324633  -2.531686  4.572597
H    -0.892131  -1.674831  3.226489
H    -3.419694  -2.550802  4.557993
H    -1.988717  -2.009947  5.479724
H    -1.948483  -3.563627  4.598891
