35
Energy: -21190.4690195 eV PBE+vdW (tier 2 basis)
C    -0.646385  -0.597176  -0.032493
C    -0.506644  -0.608727  1.476317
O    0.444435  -1.204928  2.008361
H    -0.739252  -1.633561  -0.380732
H    0.274493  -0.188836  -0.466652
H    -1.503069  -0.020434  -0.400620
N    -1.457450  0.079393  2.154815
C    -1.717460  0.249079  3.601477
C    -0.596814  0.789588  4.528234
O    -0.959085  1.344207  5.567000
H    -2.149323  0.528799  1.566952
H    -2.424700  1.089339  3.628118
C    -2.493416  -0.930352  4.238363
C    -1.859587  -2.325258  4.340036
C    -0.674375  -2.484406  5.311921
N    0.581441  -2.583533  4.583026
C    1.778674  -2.488787  5.249090
N    2.869270  -2.292358  4.377442
N    1.828106  -2.529164  6.539757
H    -3.434888  -1.024461  3.674000
H    -2.772307  -0.583156  5.244347
H    -1.571418  -2.696794  3.344400
H    -2.666510  -2.995467  4.669694
H    -0.800027  -3.393641  5.917016
H    -0.638923  -1.650672  6.034071
H    0.563870  -2.187961  3.643136
H    3.759343  -2.562777  4.782604
H    2.747665  -2.693343  3.449943
H    2.795200  -2.492267  6.871001
N    0.693086  0.649571  4.160189
C    1.765552  1.041219  5.062435
H    0.902640  0.014965  3.388156
H    1.707750  2.114166  5.284960
H    2.720178  0.814978  4.578501
H    1.706568  0.487096  6.009946
