35
Energy: -21190.0316729 eV PBE+vdW (tier 2 basis)
C    -0.297195  -0.670836  -0.664990
C    0.089157  -0.578305  0.800128
O    1.242878  -0.735976  1.187425
H    0.346322  0.003912  -1.241896
H    -1.346997  -0.422786  -0.865304
H    -0.099075  -1.691763  -1.015628
N    -0.942699  -0.292126  1.661864
C    -0.763762  -0.355621  3.116391
C    -2.119296  -0.572056  3.811937
O    -2.295348  -1.553610  4.527750
H    -1.887290  -0.365897  1.301613
H    -0.196972  -1.268191  3.349954
C    0.039297  0.841994  3.668933
C    0.116437  0.857122  5.196030
C    1.062708  1.941126  5.708493
N    1.032612  2.003913  7.157531
C    1.751444  2.900184  7.927519
N    2.151838  4.061864  7.256224
N    1.910893  2.645411  9.182901
H    -0.389408  1.785810  3.303180
H    1.046414  0.766967  3.235956
H    -0.880727  1.022615  5.633912
H    0.453931  -0.126439  5.561655
H    0.739164  2.913647  5.300135
H    2.080426  1.742955  5.313614
H    0.882828  1.130296  7.652391
H    2.858399  4.591316  7.753578
H    2.369088  3.969715  6.268645
H    2.405921  3.402280  9.659438
N    -3.138964  0.324134  3.592910
C    -3.088414  1.679646  3.061549
H    -3.963439  0.081982  4.136917
H    -2.792717  2.419337  3.822661
H    -4.083049  1.949971  2.687087
H    -2.386840  1.747776  2.223916
