35
Energy: -21190.2092963 eV PBE+vdW (tier 2 basis)
C    0.715567  1.084971  0.351281
C    1.032641  0.328380  1.633584
O    2.197534  0.155942  1.996439
H    0.180681  0.461112  -0.378028
H    1.665026  1.405047  -0.085376
H    0.096716  1.974003  0.540503
N    -0.018198  -0.135939  2.378842
C    -1.418397  -0.163244  1.969733
C    -2.337972  0.088072  3.184209
O    -3.235105  -0.689577  3.510162
H    0.257580  -0.652927  3.226943
H    -1.567158  0.713359  1.318362
C    -1.800532  -1.388534  1.091525
C    -2.248180  -2.742417  1.682333
C    -1.479845  -3.321665  2.873274
N    -0.047331  -3.435568  2.682876
C    0.890318  -2.840189  3.497226
N    2.191029  -2.952978  3.016487
N    0.680739  -2.186522  4.600844
H    -0.925694  -1.555148  0.445571
H    -2.609217  -1.064880  0.418763
H    -2.222401  -3.466604  0.850458
H    -3.294983  -2.669807  2.001166
H    -1.913234  -4.303492  3.127268
H    -1.656857  -2.682430  3.745565
H    0.295805  -4.095235  1.994677
H    2.815894  -2.376805  3.575081
H    2.290037  -2.723520  2.029940
H    -0.270268  -2.330995  4.948988
N    -2.130598  1.242752  3.884291
C    -1.179917  2.317923  3.649135
H    -2.750383  1.326895  4.683793
H    -1.135516  2.586338  2.585380
H    -0.164885  2.066028  3.984995
H    -1.522960  3.203980  4.195127
