35
Energy: -21190.3852563 eV PBE+vdW (tier 2 basis)
C    -0.871565  1.439647  2.155106
C    -0.339468  0.021905  2.099038
O    0.735672  -0.304507  2.598258
H    -1.754009  1.501366  2.807916
H    -1.176704  1.806534  1.165785
H    -0.085318  2.082522  2.558479
N    -1.119759  -0.910110  1.455795
C    -2.470150  -0.743254  0.941529
C    -3.553493  -0.440556  1.994227
O    -4.481293  0.324356  1.692559
H    -0.723631  -1.846082  1.466774
H    -2.500507  0.133680  0.277516
C    -2.848488  -1.983268  0.100165
C    -4.134696  -1.837463  -0.741644
C    -5.340810  -2.657959  -0.266744
N    -5.870370  -2.282481  1.036234
C    -5.739736  -3.098014  2.136080
N    -6.306582  -2.525378  3.294038
N    -5.122664  -4.232429  2.077388
H    -2.929759  -2.866010  0.752591
H    -1.994310  -2.163990  -0.568835
H    -3.923735  -2.159245  -1.772198
H    -4.418211  -0.776425  -0.812209
H    -5.079488  -3.721401  -0.199808
H    -6.142842  -2.559395  -1.016457
H    -5.923360  -1.283545  1.229439
H    -6.456582  -3.199718  4.037624
H    -7.146387  -1.977393  3.119093
H    -5.219937  -4.752368  2.952014
N    -3.505647  -1.025334  3.219600
C    -2.674069  -2.121204  3.707828
H    -4.364620  -0.859099  3.738644
H    -1.643449  -1.802857  3.904712
H    -2.673774  -2.979653  3.022149
H    -3.109927  -2.463634  4.652543
