35
Energy: -21190.2023492 eV PBE+vdW (tier 2 basis)
C    2.604854  -0.348459  3.042798
C    1.456021  0.546437  3.462751
O    1.584656  1.418787  4.324078
H    2.877688  -0.979018  3.900380
H    3.472889  0.278043  2.806510
H    2.378717  -0.994079  2.185114
N    0.262520  0.310112  2.847197
C    -0.981771  1.009802  3.180441
C    -0.845948  2.554713  3.090411
O    -1.273773  3.284034  3.975998
H    0.217403  -0.443746  2.173509
H    -1.689604  0.715940  2.386076
C    -1.588533  0.613511  4.535223
C    -1.726351  -0.899369  4.763386
C    -0.556493  -1.542153  5.523713
N    -0.438072  -1.014347  6.878675
C    0.774570  -0.875114  7.548079
N    1.825005  -0.401017  6.762793
N    0.818235  -1.200863  8.797828
H    -2.569722  1.101111  4.590912
H    -0.998686  1.062317  5.344304
H    -1.861272  -1.437796  3.809552
H    -2.646656  -1.090590  5.336512
H    0.392376  -1.362449  5.008397
H    -0.694937  -2.639642  5.540138
H    -1.129699  -1.373035  7.532669
H    2.655495  -0.181242  7.301053
H    1.606275  0.334677  6.086456
H    1.700954  -0.907172  9.224970
N    -0.295129  3.081990  1.951697
C    0.174868  2.428148  0.745406
H    -0.224466  4.093427  1.996062
H    0.147699  3.153661  -0.076451
H    -0.479389  1.593708  0.460055
H    1.204317  2.047886  0.834490
