35
Energy: -21190.203387 eV PBE+vdW (tier 2 basis)
C    -1.025092  1.513250  2.407909
C    -2.324049  0.736698  2.461637
O    -3.061129  0.788008  3.447496
H    -1.212022  2.494744  1.946715
H    -0.245026  0.990645  1.845310
H    -0.698575  1.688423  3.437506
N    -2.702406  -0.033169  1.382710
C    -2.213969  -0.139682  0.014242
C    -0.923954  -0.965157  -0.131289
O    0.019137  -0.902569  0.653163
H    -3.664599  -0.361551  1.471385
H    -3.022719  -0.697265  -0.476647
C    -2.079564  1.206801  -0.741891
C    -3.398039  1.987837  -0.745507
C    -4.486101  1.347709  -1.637685
N    -5.842775  1.437301  -1.118972
C    -6.295851  0.529000  -0.181091
N    -7.557096  0.864154  0.317166
N    -5.577065  -0.488039  0.173342
H    -1.752435  1.001183  -1.774518
H    -1.279070  1.806276  -0.289264
H    -3.213073  3.022848  -1.068566
H    -3.775340  2.045826  0.285260
H    -4.288947  0.276957  -1.771532
H    -4.476413  1.804022  -2.637853
H    -6.219890  2.374001  -1.017442
H    -7.976372  0.160811  0.914389
H    -8.213301  1.243274  -0.359627
H    -6.116815  -1.120288  0.768433
N    -0.859122  -1.771972  -1.238420
C    -1.884656  -2.035356  -2.234593
H    0.024551  -2.264651  -1.319605
H    -2.817120  -2.403426  -1.783079
H    -1.514852  -2.812827  -2.911749
H    -2.119113  -1.149217  -2.844642
