35
Energy: -21190.228064 eV PBE+vdW (tier 2 basis)
C    1.607062  -0.127722  0.248201
C    0.820930  0.333959  1.457016
O    1.378368  0.732532  2.480848
H    2.203209  0.714805  -0.125410
H    0.982945  -0.513094  -0.567779
H    2.308197  -0.909711  0.563490
N    -0.541028  0.281132  1.330468
C    -1.436052  0.745661  2.382474
C    -2.486641  -0.281814  2.848733
O    -2.678020  -0.440515  4.050809
H    -0.914113  0.037435  0.422001
H    -0.790821  0.863206  3.260846
C    -2.098731  2.104290  2.060992
C    -1.104960  3.260046  1.896899
C    -0.425914  3.701330  3.206654
N    0.472311  4.834580  3.057374
C    1.779216  4.764896  2.565786
N    2.425045  3.559488  2.736444
N    2.436748  5.763743  2.067330
H    -2.804068  2.327096  2.877058
H    -2.707249  2.012819  1.147140
H    -1.643446  4.124416  1.477227
H    -0.332995  2.999019  1.156169
H    0.131115  2.871656  3.661092
H    -1.199196  3.976898  3.941497
H    0.015950  5.700889  2.792568
H    3.335365  3.543051  2.293936
H    1.930178  2.670941  2.732256
H    1.874436  6.618590  2.077477
N    -3.238936  -0.968709  1.930601
C    -3.231121  -0.924833  0.480102
H    -3.883151  -1.616180  2.374527
H    -4.193726  -1.298188  0.112681
H    -2.440623  -1.552129  0.035081
H    -3.130468  0.102584  0.105791
