35
Energy: -21190.4973774 eV PBE+vdW (tier 2 basis)
C    -0.811773  1.063532  1.030552
C    -1.567693  1.465181  2.276859
O    -1.815818  2.634775  2.561258
H    0.197348  0.712638  1.306418
H    -0.718463  1.948104  0.395061
H    -1.316065  0.263364  0.471881
N    -1.975410  0.450986  3.122483
C    -1.682242  -0.974309  3.046257
C    -2.899248  -1.833399  2.610376
O    -2.832873  -3.061152  2.609561
H    -2.368212  0.799929  3.994389
H    -0.941637  -1.120569  2.246429
C    -1.075267  -1.527053  4.349071
C    0.436090  -1.313677  4.491405
C    0.888235  0.139224  4.701310
N    2.334889  0.307234  4.694136
C    3.021580  0.352906  3.495549
N    4.411852  0.371794  3.680765
N    2.394920  0.346535  2.365579
H    -1.282991  -2.604967  4.357910
H    -1.617820  -1.097127  5.209506
H    0.936084  -1.703535  3.592213
H    0.796328  -1.919932  5.338718
H    0.505403  0.526059  5.658312
H    0.501158  0.790508  3.912321
H    2.840359  -0.133958  5.455776
H    4.935125  0.562235  2.833090
H    4.730833  0.946666  4.456728
H    3.040308  0.510683  1.589759
N    -3.989546  -1.128235  2.210516
C    -5.195018  -1.759301  1.713933
H    -3.919629  -0.116589  2.249157
H    -5.381606  -1.493762  0.663626
H    -6.069381  -1.468081  2.312173
H    -5.056192  -2.843518  1.786853
