35
Energy: -21189.9391608 eV PBE+vdW (tier 2 basis)
C    -1.336599  0.047318  -0.525663
C    -1.562618  -1.314016  -1.139405
O    -1.465911  -1.506356  -2.349595
H    -1.364789  0.779569  -1.337467
H    -2.109085  0.295427  0.210088
H    -0.342292  0.098647  -0.054212
N    -1.819622  -2.402710  -0.319916
C    -2.201648  -2.523604  1.080186
C    -3.645941  -2.026598  1.335366
O    -4.157203  -1.113392  0.696457
H    -1.996619  -3.226510  -0.887348
H    -2.206483  -3.608356  1.252787
C    -1.171167  -1.920922  2.092787
C    -1.650151  -0.766801  2.980946
C    -0.521972  -0.125936  3.803414
N    0.477449  0.585451  3.005926
C    1.565564  -0.034902  2.404927
N    2.197668  -0.989650  3.207646
N    1.878422  0.294724  1.196930
H    -0.304507  -1.600121  1.503432
H    -0.803656  -2.731990  2.738411
H    -2.425268  -1.111864  3.684452
H    -2.129648  0.014110  2.371682
H    -0.009338  -0.891691  4.401134
H    -0.958326  0.589226  4.516429
H    0.081977  1.262456  2.356720
H    3.076803  -1.323848  2.829095
H    2.268350  -0.751148  4.193345
H    2.778962  -0.100272  0.914553
N    -4.336085  -2.666214  2.332308
C    -3.892749  -3.754643  3.186607
H    -5.264705  -2.285375  2.483871
H    -3.600247  -4.643305  2.608153
H    -4.725958  -4.046020  3.834629
H    -3.051164  -3.468948  3.836366
