35
Energy: -21190.1144603 eV PBE+vdW (tier 2 basis)
C    0.280427  0.181001  1.970950
C    -0.382038  0.191821  3.332783
O    0.270038  0.074302  4.367663
H    0.268558  1.185142  1.523828
H    -0.214144  -0.519124  1.288563
H    1.321716  -0.119140  2.115819
N    -1.747558  0.389340  3.423525
C    -2.808264  0.405981  2.427477
C    -3.076326  -0.991422  1.811040
O    -2.209318  -1.859368  1.767855
H    -2.052513  0.303448  4.388232
H    -3.706235  0.700249  2.993389
C    -2.646206  1.450901  1.306374
C    -2.407459  2.876411  1.810093
C    -2.746693  3.953236  0.767411
N    -4.165880  4.068666  0.468082
C    -4.818468  3.384130  -0.545945
N    -6.212277  3.514284  -0.458344
N    -4.323764  2.664211  -1.494458
H    -3.565860  1.428918  0.709000
H    -1.841912  1.149194  0.621154
H    -1.363214  3.005473  2.131862
H    -3.017327  3.060333  2.711101
H    -2.212482  3.767687  -0.176039
H    -2.395045  4.932367  1.125176
H    -4.752881  4.313203  1.259310
H    -6.649796  3.153156  -1.301831
H    -6.537058  4.454310  -0.244832
H    -3.313333  2.544084  -1.401461
N    -4.327478  -1.216573  1.303224
C    -5.461222  -0.312842  1.179296
H    -4.401184  -2.121385  0.846830
H    -6.381006  -0.907594  1.133065
H    -5.411232  0.318922  0.278223
H    -5.543718  0.341190  2.055969
