35
Energy: -21190.5500347 eV PBE+vdW (tier 2 basis)
C    0.188970  -2.163963  0.795252
C    0.074672  -1.593338  2.192617
O    1.017678  -1.636795  2.993882
H    1.000132  -1.643770  0.270364
H    -0.731098  -2.075402  0.205027
H    0.470880  -3.221595  0.865907
N    -1.122163  -1.030100  2.510711
C    -1.395845  -0.359502  3.783418
C    -1.755083  -1.362340  4.920297
O    -2.837721  -1.327550  5.509583
H    -1.886726  -1.104377  1.849269
H    -0.451280  0.124502  4.078398
C    -2.479073  0.705774  3.605206
C    -3.819740  0.187851  3.037346
C    -5.018191  0.575151  3.921682
N    -6.284388  -0.007123  3.517667
C    -6.558237  -1.357471  3.740198
N    -7.724768  -1.767407  3.072389
N    -5.896867  -2.207934  4.439504
H    -2.071384  1.501602  2.966355
H    -2.649591  1.155381  4.593505
H    -3.815128  -0.909763  2.963538
H    -3.984508  0.572729  2.018904
H    -5.138299  1.668899  3.939255
H    -4.806020  0.260893  4.952781
H    -6.673144  0.353453  2.651078
H    -7.981800  -2.704210  3.372010
H    -8.504986  -1.121096  3.166594
H    -5.006428  -1.841413  4.788705
N    -0.758910  -2.235881  5.199188
C    -0.887886  -3.281909  6.194751
H    0.099449  -2.152551  4.645155
H    -0.183884  -3.129106  7.025284
H    -0.697347  -4.268489  5.750540
H    -1.909561  -3.256495  6.587732
