35
Energy: -21190.5698492 eV PBE+vdW (tier 2 basis)
C    -0.105322  -0.092220  -0.052500
C    -0.471622  -0.477038  1.368538
O    0.010581  -1.467127  1.924909
H    -0.575123  0.843784  -0.377901
H    -0.408833  -0.904986  -0.725482
H    0.986015  -0.005569  -0.125423
N    -1.379066  0.349635  1.971209
C    -1.848570  0.087818  3.324138
C    -3.389269  0.070140  3.378642
O    -4.037637  0.825573  4.104556
H    -1.790578  1.128146  1.421561
H    -1.497428  -0.936575  3.537935
C    -1.222434  0.972566  4.422239
C    -1.509313  2.489104  4.459847
C    -0.521522  3.403369  3.724613
N    -0.572155  3.344725  2.255595
C    -1.743576  3.642336  1.577187
N    -2.365872  4.808612  1.978950
N    -2.170767  2.817729  0.668763
H    -0.134925  0.796706  4.383043
H    -1.561860  0.543738  5.375715
H    -1.491690  2.800688  5.515894
H    -2.533077  2.689229  4.117819
H    0.514587  3.165015  4.007197
H    -0.689769  4.442057  4.043244
H    -0.187426  2.475967  1.891983
H    -3.157505  5.111890  1.426719
H    -1.775350  5.558700  2.320375
H    -2.953705  3.199944  0.134060
N    -4.023210  -0.849938  2.590167
C    -3.459964  -1.868088  1.719786
H    -5.034403  -0.782880  2.650897
H    -4.147923  -2.721529  1.682023
H    -2.498245  -2.230321  2.101493
H    -3.301693  -1.501373  0.693581
