35
Energy: -21190.4783635 eV PBE+vdW (tier 2 basis)
C    0.576707  -1.813977  3.111260
C    0.018297  -0.512548  2.576843
O    0.681772  0.528899  2.630596
H    1.668004  -1.768818  3.052397
H    0.212009  -2.707675  2.593174
H    0.295838  -1.912336  4.169634
N    -1.273591  -0.483128  2.100331
C    -1.979029  -1.585482  1.430876
C    -2.374231  -2.736021  2.389403
O    -2.478324  -3.897415  2.002827
H    -1.488504  0.415465  1.650644
H    -2.947042  -1.146789  1.131249
C    -1.289492  -2.088252  0.154798
C    -1.341504  -1.138752  -1.052156
C    -0.660852  0.233071  -0.929831
N    -1.530385  1.225537  -0.260981
C    -1.054980  2.550881  -0.062725
N    0.195772  2.612329  0.510237
N    -1.703492  3.626316  -0.356786
H    -1.769044  -3.038635  -0.115497
H    -0.240403  -2.334721  0.380889
H    -2.391922  -0.990938  -1.360216
H    -0.866484  -1.661315  -1.895684
H    -0.385031  0.590259  -1.937572
H    0.275779  0.149777  -0.363940
H    -2.438388  1.268060  -0.721514
H    0.456996  3.563845  0.745862
H    0.416968  1.925924  1.240575
H    -2.545736  3.417760  -0.900301
N    -2.658880  -2.325782  3.654601
C    -3.082228  -3.234029  4.700867
H    -2.487111  -1.348731  3.868852
H    -4.026955  -2.901473  5.151682
H    -2.323389  -3.318408  5.492662
H    -3.229274  -4.219856  4.247121
