35
Energy: -21190.4903605 eV PBE+vdW (tier 2 basis)
C    -0.483824  -0.329165  0.120539
C    0.101435  0.045370  1.465049
O    1.221664  -0.352212  1.815211
H    -1.517264  -0.693493  0.204471
H    0.140784  -1.109201  -0.322255
H    -0.491099  0.545134  -0.545130
N    -0.629507  0.847927  2.286306
C    -1.982424  1.335707  2.136111
C    -2.160087  2.203331  0.867609
O    -1.352333  3.067565  0.546640
H    -0.191747  1.024070  3.202905
H    -2.695485  0.487871  2.094946
C    -2.354777  2.221214  3.345385
C    -2.315013  1.554640  4.738609
C    -1.039834  1.798295  5.567840
N    0.136801  1.094397  5.069379
C    0.338116  -0.275959  5.377029
N    1.482290  -0.761428  4.771786
N    -0.410045  -1.025746  6.108989
H    -3.371501  2.594848  3.158579
H    -1.697366  3.104513  3.322193
H    -2.494222  0.471756  4.653674
H    -3.152717  1.949792  5.332179
H    -1.242520  1.537955  6.622573
H    -0.802466  2.871277  5.556749
H    1.002884  1.625810  5.100243
H    1.592551  -1.756820  4.940976
H    1.591294  -0.517806  3.777353
H    -1.129573  -0.486376  6.596128
N    -3.312405  1.949841  0.179993
C    -3.703167  2.695970  -1.000619
H    -3.896988  1.183994  0.492671
H    -4.685263  3.169488  -0.865133
H    -3.739110  2.049657  -1.888963
H    -2.949287  3.474336  -1.159891
