35
Energy: -21190.3271115 eV PBE+vdW (tier 2 basis)
C    0.289714  0.749694  2.425811
C    0.096611  -0.629271  3.025463
O    0.944927  -1.171479  3.728281
H    0.369455  0.694327  1.330256
H    1.218542  1.165168  2.824328
H    -0.545395  1.423621  2.660634
N    -1.096240  -1.265709  2.754506
C    -2.173594  -0.838086  1.870198
C    -3.283191  -0.009720  2.568099
O    -4.195395  0.477886  1.904736
H    -1.139048  -2.211951  3.125599
H    -1.759443  -0.155156  1.113101
C    -2.804665  -2.033191  1.133614
C    -2.016406  -2.574776  -0.065292
C    -0.654437  -3.216828  0.243444
N    -0.033046  -3.864976  -0.913491
C    -0.585453  -4.988125  -1.532068
N    -1.190115  -5.883182  -0.648211
N    -0.575949  -5.259919  -2.791874
H    -3.789604  -1.699951  0.781714
H    -2.994404  -2.840524  1.862982
H    -1.875113  -1.765239  -0.800542
H    -2.637568  -3.335332  -0.561572
H    -0.765964  -3.956859  1.049572
H    0.066194  -2.476614  0.615381
H    0.347632  -3.211843  -1.591350
H    -1.433169  -6.744387  -1.129094
H    -0.678616  -6.052382  0.213553
H    -0.239255  -4.465196  -3.342646
N    -3.154433  0.126724  3.913321
C    -4.093256  0.881602  4.719475
H    -2.348760  -0.310919  4.347442
H    -3.600930  1.731466  5.212424
H    -4.555343  0.246340  5.487515
H    -4.874413  1.260190  4.051429
