35
Energy: -21190.1988464 eV PBE+vdW (tier 2 basis)
C    -1.368975  1.754699  -0.189204
C    -0.805191  1.313306  1.152720
O    0.086936  1.942325  1.717143
H    -1.237807  0.988446  -0.965337
H    -0.840193  2.661750  -0.492865
H    -2.443840  1.977138  -0.120140
N    -1.339072  0.185465  1.718389
C    -2.400851  -0.662484  1.217488
C    -3.073473  -1.299080  2.450260
O    -2.482779  -1.364725  3.527921
H    -1.024903  -0.040261  2.662702
H    -3.138605  -0.045457  0.682310
C    -1.898191  -1.762150  0.243557
C    -0.924605  -2.761582  0.867786
C    -0.374682  -3.738217  -0.168842
N    0.552423  -4.675529  0.442505
C    0.865783  -5.863748  -0.190325
N    1.795650  -6.644258  0.509411
N    0.256279  -6.207010  -1.274846
H    -1.412954  -1.253645  -0.603555
H    -2.762553  -2.296114  -0.180361
H    -1.415251  -3.329142  1.672549
H    -0.095336  -2.208101  1.338290
H    0.099503  -3.185182  -1.001842
H    -1.176298  -4.337502  -0.620353
H    1.279491  -4.262602  1.016632
H    2.359425  -7.250274  -0.075029
H    2.338932  -6.184199  1.233455
H    0.506929  -7.160581  -1.546463
N    -4.325643  -1.816524  2.298387
C    -5.181160  -1.834506  1.124744
H    -4.663611  -2.280078  3.136702
H    -6.229134  -1.826029  1.446668
H    -5.019931  -2.723803  0.496077
H    -5.020431  -0.942136  0.508826
