35
Energy: -21190.6106416 eV PBE+vdW (tier 2 basis)
C    0.226224  0.024234  0.102884
C    0.098684  0.752494  1.428834
O    1.022390  1.426785  1.892422
H    1.242703  0.173192  -0.269927
H    -0.488411  0.404405  -0.640398
H    0.035794  -1.052465  0.215337
N    -1.088475  0.632595  2.104159
C    -2.310785  0.001016  1.641603
C    -3.073715  0.767056  0.534408
O    -3.979960  0.211784  -0.085690
H    -1.084460  1.085128  3.029646
H    -2.060291  -0.961305  1.168943
C    -3.270994  -0.329118  2.815807
C    -4.290508  0.722668  3.295942
C    -3.829471  1.896332  4.175121
N    -3.155628  2.975019  3.461121
C    -1.798806  3.176356  3.558678
N    -1.316582  4.070253  2.587354
N    -1.082860  2.502763  4.397869
H    -2.655160  -0.674525  3.660014
H    -3.858534  -1.195306  2.485770
H    -5.033963  0.174199  3.895294
H    -4.856676  1.106951  2.431103
H    -3.136280  1.560425  4.956438
H    -4.715437  2.314077  4.678568
H    -3.565899  3.233014  2.569929
H    -0.322190  4.257338  2.670481
H    -1.860677  4.921876  2.469406
H    -0.102456  2.788462  4.367362
N    -2.689911  2.056179  0.327476
C    -3.290751  2.890616  -0.692679
H    -1.921855  2.429766  0.882369
H    -2.579410  3.115731  -1.500671
H    -3.643425  3.841561  -0.268020
H    -4.143610  2.346523  -1.113201
