35
Energy: -21190.095843 eV PBE+vdW (tier 2 basis)
C    0.858609  -1.954048  1.459525
C    0.598962  -0.491709  1.749738
O    1.504661  0.288301  2.039113
H    0.926265  -2.097025  0.371292
H    0.077994  -2.628270  1.830326
H    1.824704  -2.217649  1.898605
N    -0.692447  -0.019340  1.652459
C    -1.953950  -0.711134  1.363903
C    -2.268840  -1.805990  2.417558
O    -2.372199  -2.992605  2.115594
H    -0.736442  0.981100  1.819527
H    -2.722756  0.066996  1.496118
C    -2.076397  -1.275380  -0.060562
C    -1.624803  -0.321337  -1.169926
C    -2.394436  1.006821  -1.264295
N    -3.846399  0.893111  -1.417627
C    -4.431848  0.225434  -2.490431
N    -3.798075  0.446261  -3.715324
N    -5.456085  -0.524662  -2.266788
H    -3.124453  -1.571848  -0.214615
H    -1.508120  -2.211413  -0.124986
H    -1.719245  -0.846027  -2.131748
H    -0.556276  -0.081425  -1.052634
H    -1.985869  1.595440  -2.098570
H    -2.224546  1.624456  -0.369919
H    -4.344392  0.632707  -0.570348
H    -3.406937  1.374301  -3.850766
H    -4.327003  0.127160  -4.518862
H    -5.887377  -0.846202  -3.137423
N    -2.427241  -1.390308  3.709895
C    -2.313148  -0.052629  4.265329
H    -2.583081  -2.159173  4.354240
H    -2.842809  0.684357  3.646198
H    -1.267992  0.271612  4.376864
H    -2.788206  -0.045031  5.252596
