35
Energy: -21190.4612739 eV PBE+vdW (tier 2 basis)
C    0.011418  1.294028  1.924329
C    -0.766959  0.361530  2.832329
O    -0.365513  0.033572  3.944537
H    0.884783  1.649627  2.476548
H    -0.591260  2.153578  1.600448
H    0.355100  0.770642  1.020467
N    -1.978906  -0.104211  2.363241
C    -2.584681  0.110610  1.059067
C    -3.543629  1.326967  0.976324
O    -4.128673  1.573280  -0.083441
H    -2.418771  -0.771557  2.991707
H    -1.785406  0.364285  0.347556
C    -3.259670  -1.162858  0.506398
C    -4.250628  -1.906720  1.420910
C    -5.389927  -1.098891  2.048259
N    -6.218041  -0.429886  1.040653
C    -7.227181  0.452304  1.446271
N    -7.958220  0.018587  2.551802
N    -7.508854  1.588045  0.906777
H    -2.466151  -1.870227  0.226201
H    -3.749636  -0.867367  -0.431324
H    -3.706413  -2.397189  2.244621
H    -4.681988  -2.727598  0.828321
H    -4.988560  -0.371522  2.780827
H    -6.010793  -1.794671  2.629298
H    -5.657372  0.014616  0.313796
H    -8.778189  0.601175  2.692670
H    -8.176294  -0.973581  2.567714
H    -6.802380  1.843035  0.210065
N    -3.661056  2.076233  2.093267
C    -4.542848  3.229269  2.176859
H    -3.181639  1.745775  2.924089
H    -4.587995  3.710455  1.193898
H    -4.146277  3.937924  2.912296
H    -5.565739  2.938830  2.457183
