35
Energy: -21189.9618781 eV PBE+vdW (tier 2 basis)
C    0.180322  0.588548  1.362181
C    -0.232924  -0.449267  2.385967
O    0.618807  -1.075386  3.017774
H    1.272244  0.636834  1.379096
H    -0.229310  1.579315  1.591300
H    -0.145929  0.319595  0.349854
N    -1.563427  -0.704356  2.646225
C    -2.874274  -0.310430  2.111100
C    -3.664887  -1.537017  1.591877
O    -4.793434  -1.755928  2.035730
H    -1.628523  -1.409576  3.378053
H    -3.476934  -0.015516  2.983539
C    -2.912290  0.861785  1.118078
C    -4.324489  1.259013  0.668308
C    -5.279288  1.727282  1.782207
N    -4.749951  2.739961  2.686278
C    -4.487342  4.028013  2.270377
N    -3.898598  4.805196  3.285344
N    -4.745293  4.398990  1.061585
H    -2.322932  0.635171  0.220794
H    -2.433229  1.731540  1.590657
H    -4.811928  0.421574  0.145958
H    -4.221276  2.076003  -0.057178
H    -5.597344  0.876869  2.399459
H    -6.178787  2.141531  1.307703
H    -4.206536  2.413965  3.476362
H    -3.836993  5.790300  3.050554
H    -4.301813  4.670916  4.209875
H    -4.607674  5.405843  0.948627
N    -3.115264  -2.355218  0.647498
C    -1.810385  -2.312107  0.005069
H    -3.724910  -3.133422  0.416123
H    -1.817265  -3.027945  -0.823975
H    -0.993130  -2.581924  0.687979
H    -1.599453  -1.323875  -0.421906
