35
Energy: -21190.5157213 eV PBE+vdW (tier 2 basis)
C    -1.684504  1.140560  1.543578
C    -1.101888  0.252532  2.626741
O    -0.431726  0.700968  3.553932
H    -2.081228  0.584604  0.685667
H    -0.908683  1.838225  1.207881
H    -2.492766  1.743515  1.979973
N    -1.374138  -1.089552  2.488319
C    -0.948334  -2.056511  3.490597
C    -0.057407  -3.178088  2.907663
O    0.117819  -4.234447  3.513434
H    -2.005849  -1.378660  1.735925
H    -0.296918  -1.477748  4.167081
C    -2.089657  -2.659176  4.327916
C    -3.139159  -3.429462  3.504960
C    -4.425659  -2.631577  3.202883
N    -5.058940  -2.996127  1.938467
C    -4.459369  -2.613684  0.748222
N    -4.605523  -3.520505  -0.287515
N    -3.846057  -1.489647  0.531913
H    -2.564843  -1.847992  4.899855
H    -1.618452  -3.330411  5.055177
H    -3.406490  -4.363931  4.017457
H    -2.693613  -3.741566  2.547184
H    -4.206986  -1.555319  3.177954
H    -5.165836  -2.762335  4.003747
H    -5.522278  -3.899496  1.922048
H    -4.154788  -3.214953  -1.143625
H    -4.465619  -4.502006  -0.070993
H    -4.041215  -0.838013  1.297587
N    0.529081  -2.887252  1.714564
C    1.480229  -3.770311  1.072254
H    0.334723  -1.975185  1.316252
H    1.493301  -4.709696  1.635668
H    2.493642  -3.342926  1.075646
H    1.187131  -3.975830  0.033586
