35
Energy: -21190.4297244 eV PBE+vdW (tier 2 basis)
C    0.346312  0.326851  1.736736
C    0.099047  0.768170  3.166457
O    1.028336  1.027335  3.926625
H    1.259751  -0.276585  1.724394
H    0.530767  1.218791  1.122253
H    -0.475056  -0.238444  1.283713
N    -1.204946  0.857328  3.613682
C    -2.464843  0.789146  2.864681
C    -2.782410  -0.630554  2.343170
O    -3.539651  -0.824949  1.387517
H    -1.259142  1.260761  4.545661
H    -3.231664  0.974894  3.636474
C    -2.601743  1.911267  1.812899
C    -3.995481  2.179805  1.219135
C    -5.159233  2.306759  2.210556
N    -5.656383  1.017509  2.685613
C    -5.609985  0.661142  4.014596
N    -6.030354  -0.658051  4.228268
N    -5.153836  1.471032  4.916976
H    -1.905231  1.730132  0.982035
H    -2.253130  2.825426  2.317421
H    -4.237757  1.404661  0.479358
H    -3.931764  3.127209  0.661491
H    -5.985137  2.841807  1.714664
H    -4.879483  2.892161  3.096654
H    -5.523721  0.245805  2.035207
H    -6.216600  -0.881535  5.199387
H    -6.769855  -0.982426  3.610706
H    -5.275981  1.085101  5.855493
N    -2.219312  -1.636827  3.059925
C    -2.488600  -3.035402  2.800760
H    -1.599751  -1.369724  3.817548
H    -1.553577  -3.599295  2.683061
H    -3.066580  -3.098040  1.872613
H    -3.076643  -3.487160  3.613161
