35
Energy: -21190.4982747 eV PBE+vdW (tier 2 basis)
C    1.505929  -1.884561  1.123184
C    0.943168  -1.678255  2.515847
O    1.589404  -1.896445  3.542146
H    2.315156  -2.619119  1.168554
H    1.916732  -0.928726  0.762394
H    0.744696  -2.214998  0.404483
N    -0.328876  -1.182556  2.546484
C    -0.972392  -0.712284  3.754539
C    -2.438090  -0.432335  3.389934
O    -2.787291  -0.227313  2.226250
H    -0.842932  -0.987730  1.689963
H    -0.923940  -1.511563  4.512716
C    -0.298841  0.542309  4.375735
C    -0.349291  1.843802  3.563538
C    0.442207  1.809066  2.255249
N    0.656985  3.156469  1.737899
C    1.453679  3.311330  0.614832
N    1.429775  4.628422  0.125309
N    2.091685  2.307427  0.116289
H    0.745071  0.265438  4.579333
H    -0.766699  0.720493  5.356635
H    0.071959  2.641544  4.195674
H    -1.396373  2.127148  3.361095
H    -0.062937  1.184785  1.502745
H    1.431938  1.361405  2.415912
H    -0.166070  3.753121  1.742800
H    2.130721  4.810222  -0.585161
H    1.433614  5.345840  0.846467
H    2.721531  2.607410  -0.631970
N    -3.292901  -0.385952  4.447333
C    -4.701170  -0.063866  4.313145
H    -2.926988  -0.605259  5.366186
H    -4.961632  0.830918  4.895499
H    -5.333449  -0.899872  4.642734
H    -4.895476  0.130310  3.253349
