35
Energy: -21190.0605188 eV PBE+vdW (tier 2 basis)
C    0.268111  0.045589  0.592555
C    -0.012699  -0.004758  2.079584
O    0.890443  -0.035315  2.912741
H    0.167070  -0.960990  0.161851
H    1.302021  0.375035  0.459629
H    -0.408817  0.702356  0.034927
N    -1.324326  -0.061144  2.501689
C    -2.577411  0.031268  1.749970
C    -2.641916  -0.953028  0.555856
O    -2.862818  -0.566853  -0.589165
H    -1.392276  -0.101033  3.514229
H    -3.352918  -0.305707  2.459365
C    -2.945364  1.454791  1.308329
C    -3.013882  2.441212  2.473322
C    -3.408315  3.846391  2.020204
N    -3.427722  4.763618  3.147936
C    -4.008107  6.025181  3.148339
N    -4.783974  6.312337  2.024923
N    -3.955587  6.887928  4.107242
H    -3.912455  1.405163  0.787650
H    -2.223579  1.801789  0.555253
H    -2.033872  2.486422  2.976555
H    -3.740870  2.098300  3.227791
H    -4.416744  3.819720  1.581869
H    -2.712434  4.175078  1.221031
H    -2.674506  4.656292  3.817528
H    -5.103260  7.276028  2.055910
H    -4.387937  6.060734  1.124316
H    -3.475948  6.506282  4.927086
N    -2.459303  -2.278167  0.834789
C    -2.237853  -2.929916  2.115842
H    -2.502139  -2.862890  0.006051
H    -2.488641  -3.991436  2.011253
H    -2.891956  -2.515210  2.894360
H    -1.196867  -2.847432  2.459106
