35
Energy: -21190.1264708 eV PBE+vdW (tier 2 basis)
C    -0.305456  -0.430242  0.186009
C    -0.199306  -0.018791  1.645170
O    0.849983  0.390211  2.133275
H    -1.321294  -0.694165  -0.133628
H    0.354059  -1.291061  0.017111
H    0.065622  0.390783  -0.439044
N    -1.361554  -0.122769  2.362558
C    -1.491919  0.110472  3.803122
C    -0.617989  1.273740  4.340210
O    0.101731  1.125106  5.322896
H    -2.168592  -0.517683  1.894263
H    -2.532862  0.448306  3.950865
C    -1.319389  -1.172624  4.632881
C    0.026326  -1.885872  4.482702
C    0.136589  -3.155417  5.336591
N    -0.743532  -4.255918  4.928251
C    -2.080181  -4.379032  5.292093
N    -2.380350  -3.915543  6.571702
N    -3.030945  -4.879565  4.572789
H    -2.139814  -1.853035  4.356503
H    -1.477461  -0.908778  5.687799
H    0.836234  -1.200092  4.764658
H    0.201383  -2.156947  3.428608
H    -0.067439  -2.916206  6.388328
H    1.170364  -3.529250  5.299070
H    -0.581733  -4.571537  3.976500
H    -3.319126  -4.194239  6.840113
H    -1.689453  -4.123539  7.286465
H    -2.713964  -5.054049  3.614790
N    -0.794102  2.511697  3.783468
C    -1.547976  2.899403  2.607267
H    -0.150706  3.194760  4.171103
H    -1.752093  3.975449  2.662721
H    -2.515411  2.384104  2.571324
H    -1.009987  2.696246  1.667511
