35
Energy: -21190.0703574 eV PBE+vdW (tier 2 basis)
C    0.372891  -0.584529  0.548642
C    0.156260  -0.199167  1.992386
O    1.094790  -0.129054  2.792243
H    1.240837  -1.250633  0.512784
H    0.628436  0.313125  -0.033446
H    -0.501897  -1.071116  0.107523
N    -1.118888  0.068989  2.447508
C    -2.311897  0.548091  1.750871
C    -3.148842  -0.585291  1.122781
O    -2.644259  -1.563871  0.580446
H    -1.086583  0.322845  3.432410
H    -2.915067  0.996706  2.551401
C    -2.050193  1.657095  0.694800
C    -1.045182  2.724846  1.145593
C    -1.412418  3.447487  2.449207
N    -0.306859  4.215349  3.013013
C    0.348857  3.868951  4.194591
N    0.382549  2.499436  4.460565
N    0.887863  4.691476  5.031221
H    -3.018873  2.122670  0.451706
H    -1.698853  1.195706  -0.238103
H    -0.927778  3.463340  0.337975
H    -0.051794  2.275580  1.278898
H    -1.727697  2.724630  3.213462
H    -2.270142  4.118539  2.279076
H    -0.330962  5.214399  2.850499
H    0.912323  2.333353  5.312152
H    0.708543  1.882053  3.713073
H    0.650742  5.661940  4.804674
N    -4.507153  -0.419867  1.158064
C    -5.282564  0.606573  1.836496
H    -5.010484  -1.178809  0.709291
H    -5.146415  0.583524  2.928399
H    -6.343218  0.427121  1.631884
H    -5.046215  1.616827  1.472649
