35
Energy: -21190.057716 eV PBE+vdW (tier 2 basis)
C    -0.116488  0.140308  0.055614
C    0.075712  -0.162218  1.533721
O    1.141361  -0.600422  1.962810
H    -0.016900  -0.797116  -0.506260
H    0.691432  0.804714  -0.273357
H    -1.081968  0.598811  -0.191686
N    -1.022255  0.098967  2.312003
C    -1.254233  -0.154465  3.741238
C    -1.273827  1.138035  4.596306
O    -2.275962  1.378879  5.275859
H    -1.822696  0.485602  1.825790
H    -2.305909  -0.467597  3.807370
C    -0.428421  -1.308646  4.345490
C    -0.903934  -1.724647  5.748437
C    -0.243231  -0.945610  6.897314
N    -0.714113  -1.326480  8.228873
C    -0.503570  -2.588433  8.781748
N    0.707196  -3.179148  8.416981
N    -1.294892  -3.225790  9.576415
H    0.642435  -1.072664  4.358114
H    -0.530209  -2.159901  3.658330
H    -0.677412  -2.790134  5.894506
H    -1.997590  -1.621417  5.829446
H    -0.426492  0.131625  6.800810
H    0.847785  -1.076346  6.844644
H    -1.634798  -0.960793  8.451507
H    0.881666  -4.006526  8.979553
H    1.506569  -2.553049  8.385494
H    -2.201367  -2.756061  9.652720
N    -0.200126  1.975376  4.618535
C    1.063521  1.917036  3.903371
H    -0.371822  2.793513  5.196763
H    1.868917  2.259317  4.565603
H    1.055403  2.556896  3.006914
H    1.296380  0.897147  3.582659
