35
Energy: -21190.2202132 eV PBE+vdW (tier 2 basis)
C    0.970113  0.668579  0.791386
C    0.747373  0.260868  2.236058
O    1.670884  0.059908  3.019294
H    1.346644  1.699924  0.774205
H    0.066564  0.614769  0.170979
H    1.746926  0.028853  0.357531
N    -0.561455  0.116475  2.615460
C    -0.940541  -0.086090  4.009088
C    -0.283644  -1.294072  4.703435
O    0.023795  -1.198990  5.897597
H    -1.293533  0.358379  1.958032
H    -0.568790  0.771508  4.587128
C    -2.488636  -0.176760  4.144020
C    -3.140657  0.888901  5.035048
C    -2.891979  0.747513  6.550509
N    -1.533721  1.022927  7.011481
C    -0.935486  2.265744  6.836077
N    -1.811302  3.355108  6.930093
N    0.311168  2.491227  6.591084
H    -2.767490  -1.177233  4.509727
H    -2.928567  -0.103440  3.136619
H    -4.230054  0.840166  4.875245
H    -2.826803  1.894489  4.714937
H    -3.130591  -0.278395  6.870181
H    -3.602919  1.400160  7.077947
H    -0.882072  0.252267  6.827562
H    -1.281916  4.221509  6.973286
H    -2.494978  3.288087  7.679528
H    0.818289  1.617019  6.423270
N    -0.148594  -2.484843  4.060280
C    -0.438426  -2.858329  2.686568
H    0.314671  -3.176344  4.642082
H    -0.520371  -3.950681  2.640987
H    0.349596  -2.540339  1.987561
H    -1.394017  -2.440936  2.351414
