35
Energy: -21189.9738751 eV PBE+vdW (tier 2 basis)
C    -0.800639  0.122964  -0.621995
C    -0.457825  0.512854  0.797822
O    0.680212  0.842521  1.127404
H    -0.116902  0.652573  -1.292067
H    -1.837342  0.344377  -0.905620
H    -0.628152  -0.957434  -0.750894
N    -1.454949  0.475757  1.749348
C    -2.852486  0.081968  1.608146
C    -3.801852  0.676512  2.668814
O    -4.944090  0.970981  2.319216
H    -1.097289  0.720324  2.664827
H    -3.242915  0.535369  0.687729
C    -3.082971  -1.447453  1.470047
C    -2.446611  -2.313726  2.554418
C    -2.494484  -3.822395  2.248271
N    -1.999281  -4.224791  0.926699
C    -0.774335  -3.809358  0.405005
N    0.233485  -3.669216  1.350761
N    -0.519454  -3.542256  -0.833053
H    -2.671765  -1.739045  0.493644
H    -4.169939  -1.613806  1.414511
H    -2.948892  -2.159486  3.522844
H    -1.394302  -2.019808  2.678296
H    -3.529639  -4.187907  2.303695
H    -1.944521  -4.364796  3.033268
H    -2.717352  -4.262437  0.212190
H    1.135649  -3.503314  0.916094
H    0.260697  -4.370408  2.084119
H    -1.372316  -3.557467  -1.399609
N    -3.433621  0.835105  3.980011
C    -2.197849  0.563435  4.698815
H    -4.183950  1.265430  4.513037
H    -2.438037  0.431773  5.760168
H    -1.468899  1.387455  4.623828
H    -1.726904  -0.366135  4.361551
