35
Energy: -21190.5943846 eV PBE+vdW (tier 2 basis)
C    -2.462273  1.097194  -0.861076
C    -2.395424  0.386500  0.478779
O    -2.652225  -0.809129  0.604735
H    -3.465351  0.960318  -1.284429
H    -1.755167  0.613504  -1.547319
H    -2.232286  2.166782  -0.794969
N    -2.054161  1.187614  1.545013
C    -1.743490  0.589388  2.842610
C    -2.973558  0.235817  3.707751
O    -2.822497  -0.355475  4.775974
H    -1.641542  2.100327  1.306614
H    -1.260851  -0.382981  2.656635
C    -0.789280  1.474823  3.664038
C    -1.443891  2.702469  4.342420
C    -0.691055  4.022682  4.148658
N    -0.792742  4.537279  2.774205
C    0.032691  4.103740  1.748668
N    1.386280  4.137676  2.044725
N    -0.508753  3.692041  0.643728
H    0.037851  1.780925  3.008044
H    -0.346860  0.835504  4.436932
H    -1.554883  2.510230  5.419040
H    -2.471571  2.844196  3.969042
H    0.371338  3.907438  4.401249
H    -1.097208  4.789013  4.824629
H    -1.752881  4.552480  2.434814
H    2.012897  3.929384  1.277294
H    1.703100  4.890249  2.647160
H    0.185532  3.565990  -0.097719
N    -4.173587  0.656744  3.231098
C    -5.428006  0.313543  3.867845
H    -4.172733  1.054467  2.298067
H    -5.198584  -0.077720  4.865053
H    -5.968964  -0.460092  3.302810
H    -6.071990  1.197887  3.965333
