35
Energy: -21190.1413392 eV PBE+vdW (tier 2 basis)
C    -0.657737  -1.384126  -1.071956
C    -0.607092  -0.149924  -0.196174
O    -0.068042  0.890594  -0.566555
H    -0.431704  -1.075035  -2.095870
H    -1.620784  -1.906027  -1.043280
H    0.107817  -2.103899  -0.748662
N    -1.148053  -0.218278  1.070571
C    -1.897043  -1.285787  1.735432
C    -1.173954  -2.654591  1.688081
O    -1.711884  -3.656239  1.223044
H    -1.053738  0.662680  1.567674
H    -1.905715  -0.997022  2.799472
C    -3.355516  -1.423780  1.265250
C    -4.144554  -0.111858  1.273825
C    -4.336003  0.492225  2.664973
N    -5.117330  1.712038  2.593679
C    -5.332219  2.494767  3.722798
N    -6.199910  3.561531  3.470430
N    -4.841749  2.336009  4.903952
H    -3.845499  -2.174114  1.902759
H    -3.367043  -1.851930  0.254732
H    -5.134989  -0.308281  0.832476
H    -3.657319  0.629675  0.622949
H    -3.360428  0.751081  3.108058
H    -4.797608  -0.260155  3.335794
H    -5.896127  1.689770  1.941330
H    -6.245535  4.185402  4.270933
H    -6.018294  4.061125  2.603890
H    -4.352308  1.442669  4.991275
N    0.089762  -2.703348  2.205884
C    0.870312  -1.649227  2.834024
H    0.509453  -3.624631  2.131196
H    1.329444  -0.968833  2.102934
H    1.665749  -2.114803  3.426600
H    0.257076  -1.052837  3.522792
