35
Energy: -21190.2769696 eV PBE+vdW (tier 2 basis)
C    0.145578  -0.023215  0.831496
C    -0.190679  0.602195  2.171618
O    0.667225  0.879317  3.003355
H    1.201075  -0.306286  0.844418
H    -0.017989  0.700749  0.020623
H    -0.466123  -0.911146  0.618580
N    -1.522221  0.835582  2.436337
C    -2.643158  0.693462  1.529896
C    -2.595961  1.716958  0.366438
O    -2.051245  2.811302  0.478653
H    -1.666760  1.351328  3.298841
H    -2.607209  -0.320380  1.096589
C    -3.988096  0.817081  2.293587
C    -4.543660  2.230968  2.522740
C    -3.683658  3.174548  3.383364
N    -4.296557  4.469252  3.619831
C    -4.301880  5.462533  2.637093
N    -5.159874  6.520522  2.980641
N    -3.655926  5.507134  1.528702
H    -3.866255  0.288164  3.252504
H    -4.744489  0.249416  1.732867
H    -5.527847  2.122736  3.006290
H    -4.736592  2.718053  1.555128
H    -2.709437  3.351618  2.906963
H    -3.483813  2.714242  4.364850
H    -5.146227  4.445322  4.176925
H    -5.029061  7.294130  2.334282
H    -5.074246  6.826823  3.947165
H    -3.140394  4.648079  1.318533
N    -3.248319  1.313696  -0.759211
C    -3.411585  2.167913  -1.922684
H    -3.633038  0.376660  -0.783964
H    -4.470952  2.254004  -2.198213
H    -2.847311  1.785229  -2.784746
H    -3.028076  3.159523  -1.660730
