35
Energy: -21190.0395428 eV PBE+vdW (tier 2 basis)
C    -0.267172  1.084703  0.011182
C    -0.128636  1.226792  1.514356
O    0.930850  1.576258  2.039471
H    -0.854016  1.920086  -0.394732
H    -0.767966  0.149498  -0.277575
H    0.734099  1.107242  -0.426868
N    -1.227662  0.967906  2.286235
C    -2.524715  0.461845  1.896380
C    -3.226415  1.390915  0.878138
O    -3.179401  2.612556  0.973836
H    -1.031490  0.970224  3.291901
H    -2.430084  -0.553656  1.471940
C    -3.467197  0.386755  3.119344
C    -3.078447  -0.566254  4.269770
C    -2.289604  0.053043  5.438831
N    -0.887134  0.333226  5.139318
C    0.117686  -0.654596  5.033044
N    -0.292920  -1.939100  5.392621
N    1.298672  -0.466505  4.575096
H    -4.452085  0.080505  2.736859
H    -3.599346  1.413342  3.496525
H    -2.527576  -1.438715  3.887950
H    -4.008363  -0.965686  4.702724
H    -2.400541  -0.600026  6.323486
H    -2.750517  1.011258  5.718708
H    -0.531530  1.229004  5.451266
H    0.491551  -2.583494  5.355016
H    -0.828912  -2.020198  6.251981
H    1.402195  0.452311  4.130501
N    -3.951343  0.780362  -0.109795
C    -4.089198  -0.639100  -0.393520
H    -4.424646  1.438135  -0.720750
H    -4.752013  -0.752950  -1.258074
H    -4.539837  -1.192778  0.443140
H    -3.127872  -1.110157  -0.647610
