35
Energy: -21190.4201872 eV PBE+vdW (tier 2 basis)
C    0.855425  -0.814931  -0.193952
C    0.599705  -0.116128  1.123777
O    1.468688  0.510416  1.726699
H    1.859308  -1.251475  -0.176469
H    0.819872  -0.062432  -0.994340
H    0.114959  -1.591988  -0.422174
N    -0.698754  -0.174361  1.576445
C    -1.036653  0.359496  2.881833
C    -2.046617  -0.607328  3.511144
O    -2.698868  -1.387197  2.810399
H    -1.330732  -0.901015  1.242619
H    -0.098061  0.376254  3.458453
C    -1.565996  1.823040  2.849578
C    -3.058343  2.018088  2.547888
C    -3.506339  1.879048  1.083373
N    -3.084476  2.966574  0.220749
C    -2.060187  2.902173  -0.710193
N    -1.899443  4.115576  -1.395080
N    -1.282438  1.912883  -0.982122
H    -0.944782  2.370926  2.126801
H    -1.349976  2.276614  3.827765
H    -3.348574  3.024961  2.890785
H    -3.661257  1.321014  3.152094
H    -4.606774  1.823150  1.063593
H    -3.151369  0.937254  0.647069
H    -3.360442  3.900966  0.502426
H    -1.209736  4.010889  -2.133993
H    -2.764673  4.521971  -1.742642
H    -1.393005  1.160106  -0.298926
N    -2.224389  -0.558802  4.860083
C    -1.545731  0.272299  5.839513
H    -2.953936  -1.184326  5.188952
H    -0.510036  0.463019  5.536188
H    -1.517230  -0.257104  6.798991
H    -2.048642  1.239635  5.992196
