35
Energy: -21190.5336596 eV PBE+vdW (tier 2 basis)
C    -3.061794  -0.707702  1.305954
C    -2.205638  -0.864940  2.544851
O    -0.971935  -0.815914  2.500372
H    -2.770797  -1.469979  0.572958
H    -2.852062  0.271802  0.857446
H    -4.138625  -0.788649  1.499740
N    -2.883538  -1.036245  3.718069
C    -2.217295  -1.201628  5.013936
C    -1.844688  -2.695946  5.237213
O    -2.413310  -3.407056  6.061857
H    -3.877124  -1.241721  3.684043
H    -1.271328  -0.644894  4.928810
C    -3.074867  -0.632979  6.148743
C    -2.755997  0.817822  6.532448
C    -2.810180  1.857450  5.394688
N    -4.034649  1.899561  4.613723
C    -5.237402  2.378668  5.106208
N    -6.301603  2.137412  4.220956
N    -5.470864  2.978694  6.221971
H    -2.942961  -1.280094  7.025221
H    -4.140410  -0.728118  5.885913
H    -1.744340  0.865981  6.967728
H    -3.446325  1.113576  7.335929
H    -1.990958  1.679684  4.683096
H    -2.630418  2.859627  5.813148
H    -4.116657  1.177258  3.906934
H    -6.100253  2.389111  3.255723
H    -7.140727  2.604655  4.554845
H    -4.648850  2.984500  6.829471
N    -0.837172  -3.109080  4.422472
C    -0.371131  -4.481366  4.385764
H    -0.487316  -2.435853  3.738294
H    0.720912  -4.523121  4.493535
H    -0.650617  -4.978259  3.444807
H    -0.835083  -5.019258  5.219134
