35
Energy: -21189.6959131 eV PBE+vdW (tier 2 basis)
C    0.134922  0.237142  0.692953
C    -0.219265  -0.279134  2.066828
O    0.627922  -0.825866  2.762554
H    0.724394  1.151610  0.864834
H    -0.713083  0.488318  0.051137
H    0.778688  -0.495382  0.195287
N    -1.467252  0.010043  2.632590
C    -2.865608  -0.038850  2.154633
C    -3.487679  -1.462974  2.226561
O    -4.458194  -1.637159  2.964635
H    -1.423485  -0.291953  3.606897
H    -3.431752  0.462482  2.952013
C    -3.270813  0.682666  0.854591
C    -3.457685  2.210499  0.941662
C    -2.231701  3.103947  0.749653
N    -1.334524  3.087011  1.896276
C    -0.105302  3.731642  1.878556
N    -0.102298  4.991680  1.286763
N    0.896604  3.162626  2.462783
H    -4.254576  0.259249  0.602765
H    -2.622500  0.423397  0.007055
H    -3.942414  2.466025  1.897275
H    -4.172271  2.492292  0.154289
H    -2.608112  4.129093  0.597524
H    -1.713719  2.814655  -0.188284
H    -1.241289  2.179984  2.356460
H    0.797655  5.321443  0.962786
H    -0.874418  5.244376  0.681730
H    1.707596  3.784670  2.512195
N    -2.990479  -2.492487  1.482203
C    -1.868196  -2.542457  0.560444
H    -3.471919  -3.365397  1.676496
H    -1.998185  -3.412675  -0.092931
H    -0.901282  -2.639750  1.074562
H    -1.840173  -1.658081  -0.084975
