35
Energy: -21190.338627 eV PBE+vdW (tier 2 basis)
C    -0.067631  1.850195  2.283566
C    0.512249  0.815667  3.233815
O    1.595772  0.972800  3.791264
H    -0.935132  1.489845  1.716964
H    0.718879  2.162932  1.587245
H    -0.360908  2.738689  2.859687
N    -0.275627  -0.289569  3.427742
C    0.125338  -1.369848  4.308958
C    0.894071  -2.534930  3.638278
O    1.786753  -3.102035  4.265159
H    -1.182995  -0.325281  2.958208
H    0.873669  -0.943095  4.991299
C    -1.032621  -1.964622  5.132532
C    -1.680446  -1.035940  6.172177
C    -2.725053  -0.031958  5.653958
N    -3.801635  -0.660431  4.890033
C    -3.788579  -0.715740  3.506876
N    -4.392316  -1.847601  2.968567
N    -3.249426  0.135882  2.691734
H    -0.608370  -2.827975  5.663696
H    -1.802192  -2.378495  4.460232
H    -0.900228  -0.473324  6.708669
H    -2.168959  -1.667229  6.932981
H    -2.251133  0.722731  5.016028
H    -3.161543  0.511606  6.504743
H    -4.203771  -1.473877  5.347287
H    -4.691051  -1.708704  2.008705
H    -5.083629  -2.321567  3.539099
H    -2.903031  0.951560  3.200980
N    0.549126  -2.951960  2.381824
C    -0.529586  -2.529705  1.500793
H    1.140454  -3.712731  2.062224
H    -0.675471  -3.311715  0.746412
H    -0.308479  -1.587585  0.979148
H    -1.482574  -2.416784  2.034058
