35
Energy: -21190.0361183 eV PBE+vdW (tier 2 basis)
C    0.202752  -0.388661  0.122770
C    -0.155310  -0.035634  1.550374
O    0.671652  -0.097892  2.458260
H    -0.545445  -1.048830  -0.329186
H    1.176775  -0.885041  0.142560
H    0.292344  0.521340  -0.487511
N    -1.430861  0.408335  1.846221
C    -2.658465  0.531095  1.070666
C    -3.310033  -0.833594  0.749595
O    -2.650111  -1.828460  0.463703
H    -1.525733  0.572772  2.843731
H    -3.338472  1.080764  1.735451
C    -2.534567  1.355310  -0.233354
C    -1.903853  2.739422  -0.053886
C    -2.712695  3.667638  0.848417
N    -2.090155  4.980104  0.925248
C    -2.774018  6.022091  1.528720
N    -2.047928  7.217326  1.576308
N    -3.997548  5.862193  1.906194
H    -3.546034  1.463710  -0.655826
H    -1.964955  0.779303  -0.973492
H    -1.798583  3.208661  -1.043529
H    -0.885084  2.626205  0.351206
H    -2.833264  3.232453  1.857352
H    -3.728682  3.812265  0.455979
H    -1.084851  4.969074  1.066443
H    -2.289791  7.832257  2.344093
H    -1.047943  7.165515  1.410209
H    -4.403336  6.749801  2.212315
N    -4.678038  -0.865819  0.757757
C    -5.608519  0.178007  1.160584
H    -5.056931  -1.776700  0.518062
H    -6.627434  -0.191344  1.004399
H    -5.496205  1.092412  0.561047
H    -5.509621  0.442458  2.224275
