35
Energy: -21190.3357845 eV PBE+vdW (tier 2 basis)
C    0.242416  -0.000960  0.076685
C    0.038338  0.277912  1.552674
O    0.897399  0.834290  2.237225
H    1.105189  -0.669118  -0.038834
H    0.488183  0.940980  -0.428551
H    -0.628650  -0.453856  -0.412275
N    -1.172316  -0.113128  2.061457
C    -1.475838  -0.012254  3.481725
C    -1.329781  -1.414083  4.109851
O    -2.105736  -2.317869  3.792014
H    -1.770528  -0.712549  1.502317
H    -0.735012  0.688213  3.883811
C    -2.887324  0.530990  3.726009
C    -3.170622  0.770999  5.209877
C    -4.582661  1.319165  5.461926
N    -4.892254  1.611417  6.855087
C    -4.223574  2.578368  7.598104
N    -3.956136  3.766402  6.920668
N    -3.996127  2.346616  8.847113
H    -3.617638  -0.183603  3.314372
H    -2.989394  1.470044  3.160079
H    -2.430525  1.475760  5.623197
H    -3.053508  -0.167401  5.774305
H    -5.331071  0.593930  5.110956
H    -4.754016  2.220554  4.849515
H    -5.045698  0.793533  7.439281
H    -3.195567  4.317483  7.297115
H    -3.989871  3.759393  5.907791
H    -3.640174  3.179824  9.322827
N    -0.315986  -1.606838  4.994334
C    0.681411  -0.645412  5.450880
H    -0.284230  -2.548093  5.374960
H    1.498249  -1.199296  5.926097
H    0.271751  0.056864  6.193001
H    1.101255  -0.080421  4.608986
