35
Energy: -21190.3808773 eV PBE+vdW (tier 2 basis)
C    0.236118  -0.144111  0.064099
C    0.194185  -0.240722  1.577080
O    1.196494  -0.453074  2.249925
H    0.807997  0.751027  -0.213242
H    -0.754223  -0.089360  -0.405179
H    0.776619  -1.011437  -0.332388
N    -1.056503  -0.088670  2.140384
C    -1.243942  0.039534  3.579700
C    -2.099583  -1.087240  4.202421
O    -2.574051  -0.966489  5.330441
H    -1.812043  0.210970  1.533573
H    -0.233663  -0.092064  4.000728
C    -1.769650  1.422326  3.992616
C    -3.157573  1.763980  3.445329
C    -3.659172  3.118009  3.946256
N    -4.984848  3.402162  3.420145
C    -5.597595  4.648634  3.414046
N    -4.767669  5.711261  3.772646
N    -6.806027  4.901146  3.036118
H    -1.035199  2.176085  3.670816
H    -1.798704  1.438810  5.090439
H    -3.868946  0.979493  3.751685
H    -3.160366  1.792113  2.343006
H    -2.977930  3.909963  3.601988
H    -3.634989  3.119745  5.054595
H    -5.636237  2.625595  3.429841
H    -5.303725  6.572530  3.823742
H    -4.179214  5.569395  4.588149
H    -7.263573  4.063464  2.666094
N    -2.248890  -2.198133  3.432190
C    -2.917973  -3.394003  3.904163
H    -1.772266  -2.205283  2.537432
H    -2.206831  -4.217947  4.060814
H    -3.687467  -3.720233  3.191721
H    -3.392388  -3.152771  4.861430
