35
Energy: -21190.1164506 eV PBE+vdW (tier 2 basis)
C    -0.867684  1.868240  1.255860
C    -0.225100  0.651566  1.883054
O    0.992222  0.593732  2.093537
H    -0.130463  2.675267  1.255208
H    -1.769297  2.192718  1.791017
H    -1.151050  1.657786  0.214373
N    -1.028479  -0.398797  2.237824
C    -2.359664  -0.692279  1.720108
C    -3.445190  -1.076329  2.749942
O    -4.619294  -0.891420  2.429944
H    -0.476191  -1.185493  2.563861
H    -2.754289  0.246934  1.316295
C    -2.346088  -1.698993  0.545048
C    -1.893718  -3.136981  0.838099
C    -0.392402  -3.371308  1.069958
N    0.426085  -2.787157  0.006955
C    1.815934  -2.670781  0.160145
N    2.213884  -2.059858  1.346305
N    2.565163  -3.144744  -0.777655
H    -1.705268  -1.274390  -0.241432
H    -3.371076  -1.727564  0.151062
H    -2.199333  -3.752430  -0.023203
H    -2.448849  -3.551214  1.695318
H    -0.222810  -4.461921  1.157512
H    -0.048215  -2.954252  2.024798
H    0.262025  -3.230997  -0.896242
H    3.220082  -1.950834  1.416324
H    1.730906  -1.190723  1.607801
H    3.541751  -2.865028  -0.646434
N    -3.142590  -1.621592  3.966566
C    -1.878697  -2.021401  4.568814
H    -3.985846  -1.808779  4.500818
H    -2.104056  -2.531104  5.511506
H    -1.230302  -1.164623  4.793418
H    -1.326181  -2.738535  3.944548
