35
Energy: -21190.5852286 eV PBE+vdW (tier 2 basis)
C    0.277105  0.549869  0.713216
C    0.032450  -0.363333  1.896545
O    0.725093  -1.368956  2.089027
H    -0.653810  0.913880  0.258659
H    0.862371  0.003777  -0.031706
H    0.861500  1.423749  1.036718
N    -1.000715  -0.058421  2.740940
C    -1.584474  1.254462  2.938623
C    -0.517059  2.303168  3.332572
O    0.472653  2.007784  4.000758
H    -0.963069  -0.608424  3.616243
H    -2.073662  1.578475  2.004248
C    -2.685378  1.197707  4.033552
C    -2.251879  1.140314  5.514654
C    -1.820203  -0.212977  6.091123
N    -0.622154  -0.738283  5.449986
C    -0.212891  -2.050988  5.709582
N    0.948034  -2.371874  5.011992
N    -0.898801  -2.786034  6.517600
H    -3.336393  0.341660  3.795775
H    -3.303733  2.098174  3.904518
H    -3.115586  1.464465  6.114435
H    -1.466352  1.888887  5.702400
H    -2.612584  -0.963731  5.963382
H    -1.680825  -0.106391  7.181008
H    0.141047  -0.069213  5.342914
H    1.214114  -3.347422  5.087070
H    0.991116  -2.029840  4.043755
H    -0.555782  -3.750231  6.508317
N    -0.790122  3.571088  2.915728
C    0.044066  4.711443  3.248005
H    -1.610321  3.717538  2.339201
H    -0.514845  5.458349  3.828565
H    0.442396  5.189246  2.342462
H    0.879625  4.341997  3.851587
