35
Energy: -21190.3670987 eV PBE+vdW (tier 2 basis)
C    -0.082254  0.478732  0.463114
C    0.177975  0.075795  1.906879
O    1.301761  0.145793  2.401038
H    0.876371  0.763375  0.021778
H    -0.765039  1.338865  0.405291
H    -0.521154  -0.337167  -0.125743
N    -0.887165  -0.369716  2.643874
C    -2.287897  -0.459240  2.276324
C    -3.112138  0.181169  3.410513
O    -2.753642  0.095635  4.582771
H    -0.696216  -0.513263  3.635024
H    -2.443468  0.101615  1.343228
C    -2.766738  -1.917922  2.088021
C    -2.057155  -2.666622  0.961635
C    -2.490804  -4.134909  0.853132
N    -2.182939  -4.913401  2.045494
C    -3.177647  -5.340024  2.904847
N    -2.683071  -6.191181  3.906258
N    -4.404228  -4.983555  2.727238
H    -3.853527  -1.922091  1.912042
H    -2.612509  -2.448182  3.039290
H    -0.967773  -2.620589  1.116139
H    -2.263044  -2.180550  -0.007250
H    -1.994852  -4.600689  -0.011242
H    -3.575776  -4.203047  0.693810
H    -1.354855  -5.494549  2.012024
H    -3.346801  -6.363482  4.653688
H    -1.771577  -5.929670  4.275082
H    -4.999131  -5.315664  3.488698
N    -4.262524  0.794126  3.014161
C    -5.222922  1.348736  3.950613
H    -4.483428  0.804170  2.025790
H    -4.785380  1.274871  4.951566
H    -6.169298  0.789534  3.933723
H    -5.426821  2.404153  3.725780
