35
Energy: -21190.5367481 eV PBE+vdW (tier 2 basis)
C    -1.275147  0.279116  -1.154974
C    -1.233588  0.046250  0.342480
O    -1.786668  -0.918503  0.869718
H    -0.906275  -0.620981  -1.661325
H    -0.685806  1.143455  -1.484484
H    -2.319805  0.421505  -1.459387
N    -0.521478  0.972019  1.060347
C    -0.487203  0.943167  2.517204
C    -1.542119  1.942296  3.025500
O    -1.416876  3.157320  2.804765
H    -0.236494  1.832498  0.604581
H    -0.761474  -0.082334  2.786669
C    0.919731  1.240020  3.053568
C    1.094543  0.978021  4.566552
C    1.202572  2.232125  5.447700
N    0.039050  3.100367  5.458970
C    -1.042968  2.828118  6.267192
N    -2.071375  3.769981  6.136245
N    -1.019743  1.838048  7.100747
H    1.189407  2.279527  2.804704
H    1.603552  0.598046  2.481379
H    2.013334  0.393891  4.723853
H    0.274859  0.353080  4.950606
H    2.063817  2.837164  5.123431
H    1.380412  1.923720  6.485365
H    -0.169880  3.586773  4.591092
H    -2.980951  3.447857  6.444547
H    -2.105097  4.284349  5.259454
H    -1.843983  1.852106  7.705948
N    -2.621538  1.446536  3.672781
C    -2.868370  0.080469  4.120598
H    -3.258726  2.168585  3.996118
H    -2.663679  -0.635372  3.315612
H    -3.929355  -0.005589  4.379713
H    -2.274042  -0.165826  5.013442
