35
Energy: -21190.7844271 eV PBE+vdW (tier 2 basis)
C    1.255193  -1.000366  2.124154
C    0.605991  -0.571028  3.422152
O    1.011753  -0.970433  4.524698
H    0.641424  -0.775218  1.243329
H    1.457888  -2.076340  2.164806
H    2.220718  -0.486334  2.022317
N    -0.433178  0.297082  3.289430
C    -1.199623  0.767638  4.438573
C    -2.265593  -0.295895  4.800443
O    -3.468962  -0.172886  4.527267
H    -0.914017  0.387925  2.380762
H    -0.489784  0.800968  5.277279
C    -1.795198  2.177940  4.240638
C    -2.088895  2.695695  2.819147
C    -3.076734  1.899433  1.954478
N    -2.408266  0.803977  1.230887
C    -3.079895  -0.369633  0.835628
N    -4.022211  -0.832310  1.727286
N    -2.735812  -0.875825  -0.302097
H    -1.100264  2.894777  4.700734
H    -2.723099  2.219995  4.828107
H    -1.146425  2.824826  2.262224
H    -2.493856  3.711866  2.939303
H    -3.565250  2.579061  1.235647
H    -3.867070  1.477897  2.583967
H    -1.889764  1.129914  0.415356
H    -4.378408  -1.760090  1.537082
H    -3.915544  -0.609965  2.722467
H    -3.182433  -1.783138  -0.457852
N    -1.739275  -1.377404  5.417946
C    -2.515928  -2.561302  5.730428
H    -0.715275  -1.413455  5.467560
H    -2.216182  -2.960004  6.707206
H    -2.380290  -3.348778  4.973052
H    -3.575062  -2.285446  5.761287
