35
Energy: -21190.2598902 eV PBE+vdW (tier 2 basis)
C    0.591878  0.907475  2.076651
C    -0.259098  -0.251603  1.601286
O    0.169134  -1.400875  1.520769
H    1.634737  0.580507  2.086486
H    0.303974  1.204546  3.095060
H    0.485275  1.798306  1.443935
N    -1.562465  0.025463  1.255642
C    -2.281565  1.290830  1.349136
C    -2.395907  1.842921  2.790740
O    -2.081515  3.016227  3.011766
H    -2.079327  -0.793692  0.947266
H    -1.709455  2.075726  0.830683
C    -3.637960  1.133036  0.632299
C    -4.382129  2.419449  0.246281
C    -4.944490  3.282313  1.394574
N    -5.639637  2.551710  2.455092
C    -6.675636  1.661598  2.229641
N    -7.562466  2.056112  1.228192
N    -6.722080  0.565987  2.916661
H    -4.301808  0.481547  1.219955
H    -3.425214  0.589435  -0.301659
H    -5.216230  2.118671  -0.404100
H    -3.727750  3.060616  -0.366042
H    -5.612218  4.043784  0.961947
H    -4.137334  3.833650  1.889870
H    -5.033516  2.203582  3.191504
H    -7.720293  3.056086  1.142718
H    -8.419455  1.517153  1.186968
H    -7.603938  0.067789  2.771832
N    -2.826885  1.035816  3.803773
C    -3.378095  -0.318585  3.784111
H    -2.826631  1.521497  4.696371
H    -3.378965  -0.692458  4.813777
H    -2.752632  -0.991418  3.188784
H    -4.416413  -0.335659  3.417308
