35
Energy: -21190.1710151 eV PBE+vdW (tier 2 basis)
C    0.355274  -1.440468  0.483745
C    0.176953  -0.567838  1.717364
O    1.131600  -0.183929  2.388417
H    -0.526287  -2.058667  0.267466
H    1.234014  -2.078472  0.623149
H    0.539794  -0.791327  -0.383506
N    -1.133086  -0.252901  1.978353
C    -1.583246  0.492093  3.142416
C    -1.270618  1.998115  3.002406
O    -0.493590  2.455395  2.178278
H    -1.842949  -0.890825  1.606442
H    -2.682665  0.405345  3.111010
C    -1.123196  -0.115029  4.494663
C    -1.930340  -1.366233  4.875272
C    -1.534070  -2.653676  4.113047
N    -2.641754  -3.558563  3.835384
C    -3.487609  -3.345716  2.770972
N    -4.582458  -4.219503  2.770517
N    -3.271962  -2.406062  1.902889
H    -1.230900  0.639598  5.285363
H    -0.047974  -0.326913  4.425068
H    -2.997929  -1.169819  4.685764
H    -1.838450  -1.548351  5.957132
H    -0.777950  -3.213663  4.679866
H    -1.085938  -2.407339  3.147784
H    -3.067156  -4.011804  4.637015
H    -5.122517  -4.204842  1.912325
H    -4.377122  -5.169184  3.069942
H    -3.936064  -2.473102  1.128722
N    -1.934436  2.829620  3.885102
C    -3.166869  2.550247  4.606181
H    -1.732419  3.806292  3.692423
H    -3.057186  1.699284  5.290470
H    -4.020859  2.347848  3.937670
H    -3.416934  3.425205  5.216685
