35
Energy: -21190.6203632 eV PBE+vdW (tier 2 basis)
C    1.144285  -0.470670  1.368357
C    0.594872  -1.000796  2.676032
O    1.257751  -1.751259  3.408952
H    2.057349  0.101923  1.575357
H    0.433893  0.164992  0.826338
H    1.427147  -1.319009  0.732794
N    -0.662801  -0.591200  2.985152
C    -1.356194  -1.024452  4.194560
C    -2.015260  -2.414100  3.977385
O    -3.232514  -2.577795  3.865558
H    -1.245282  -0.138785  2.268507
H    -0.567751  -1.165312  4.949708
C    -2.317623  0.043334  4.738229
C    -3.568458  0.463531  3.940014
C    -3.360771  1.314985  2.683881
N    -2.896350  0.509398  1.551794
C    -2.623816  1.039230  0.286968
N    -2.126710  2.340435  0.293350
N    -2.737287  0.257586  -0.729961
H    -1.712139  0.937544  4.959718
H    -2.672125  -0.332336  5.709228
H    -4.190790  1.063133  4.621093
H    -4.159372  -0.428640  3.691022
H    -2.609121  2.092762  2.899964
H    -4.310023  1.828873  2.443319
H    -3.385909  -0.379046  1.448558
H    -2.130347  2.797140  -0.610635
H    -2.415537  2.952994  1.048493
H    -2.434588  0.712431  -1.594609
N    -1.098411  -3.414706  3.918476
C    -1.454195  -4.783001  3.600113
H    -0.113482  -3.131054  3.921333
H    -0.992064  -5.478164  4.313510
H    -2.543656  -4.875579  3.660992
H    -1.133340  -5.057887  2.583986
