35
Energy: -21190.2133669 eV PBE+vdW (tier 2 basis)
C    0.133301  -1.330910  -0.151219
C    0.044707  -0.323509  0.983622
O    0.653238  0.744924  0.940858
H    1.190972  -1.530280  -0.360301
H    -0.299889  -0.878395  -1.052470
H    -0.377944  -2.280202  0.050113
N    -0.739002  -0.713271  2.035369
C    -1.105487  0.098941  3.204305
C    -2.298709  1.030797  2.835563
O    -3.426136  0.523541  2.859008
H    -1.304249  -1.542036  1.895267
H    -1.605286  -0.611202  3.877870
C    0.099128  0.661567  3.968495
C    -0.316068  1.349375  5.271237
C    0.866235  2.061469  5.939036
N    0.508858  2.881038  7.088425
C    -0.066651  4.124921  6.901563
N    -0.475489  4.706446  8.111622
N    -0.205690  4.622065  5.718235
H    0.678340  1.347544  3.342653
H    0.767949  -0.187407  4.183631
H    -0.755235  0.615680  5.967974
H    -1.093514  2.101027  5.074571
H    1.343559  2.730129  5.210863
H    1.623930  1.333430  6.266371
H    0.178033  2.380041  7.906691
H    -0.757876  5.676601  8.023946
H    0.165670  4.569647  8.889176
H    -0.526201  5.591898  5.762008
N    -2.134079  2.330957  2.476505
C    -0.947094  3.172915  2.339640
H    -3.031686  2.770102  2.292229
H    -0.137289  2.617814  1.855089
H    -0.614653  3.585889  3.304803
H    -1.212875  4.011650  1.685507
