35
Energy: -21189.8253527 eV PBE+vdW (tier 2 basis)
C    -0.800491  -0.857257  0.226620
C    -0.615356  -0.871082  1.727909
O    0.026536  -1.753669  2.291323
H    -0.294132  -1.737998  -0.176545
H    -0.361451  0.041090  -0.227995
H    -1.866307  -0.897677  -0.027528
N    -1.140286  0.157957  2.491566
C    -2.091536  1.224843  2.209286
C    -3.524041  0.685718  1.967538
O    -3.736314  -0.434652  1.516218
H    -0.993768  -0.036031  3.477917
H    -2.120022  1.795036  3.147706
C    -1.641109  2.231291  1.101908
C    -2.406257  2.207250  -0.225599
C    -1.695018  3.031117  -1.297258
N    -2.494015  3.089693  -2.505879
C    -2.143003  3.781997  -3.653521
N    -1.251744  4.841182  -3.452993
N    -2.720888  3.462471  -4.761816
H    -0.572308  2.046334  0.924853
H    -1.698706  3.247831  1.518401
H    -3.422467  2.608400  -0.094719
H    -2.526113  1.175389  -0.584873
H    -0.688777  2.595177  -1.472859
H    -1.542496  4.055106  -0.915899
H    -3.030213  2.258523  -2.736231
H    -0.834796  5.188616  -4.308631
H    -0.569857  4.738602  -2.708104
H    -2.433786  4.076221  -5.527209
N    -4.555276  1.527369  2.289340
C    -4.500318  2.902595  2.754075
H    -5.465288  1.145269  2.049017
H    -5.479332  3.172802  3.164240
H    -4.259434  3.618085  1.951429
H    -3.765181  3.024994  3.560225
