35
Energy: -21190.3443815 eV PBE+vdW (tier 2 basis)
C    -0.819527  -0.338052  -0.594834
C    -0.511467  -0.274817  0.888916
O    0.632097  -0.395546  1.329879
H    -0.293341  0.482589  -1.098813
H    -1.889720  -0.269476  -0.824954
H    -0.421909  -1.277618  -0.997227
N    -1.586539  -0.057220  1.701919
C    -1.461644  -0.059770  3.143936
C    -2.811260  -0.529280  3.705044
O    -3.832475  -0.494422  3.013134
H    -2.542579  -0.090171  1.354117
H    -0.660112  -0.769492  3.402201
C    -1.052973  1.327705  3.702575
C    -2.088813  2.429567  3.469574
C    -1.691895  3.783926  4.057313
N    -0.515532  4.348203  3.394266
C    -0.138755  5.677753  3.561623
N    -1.202171  6.586137  3.535852
N    1.109541  5.951067  3.733168
H    -0.096765  1.572328  3.217704
H    -0.841880  1.237247  4.779648
H    -3.049397  2.137309  3.921955
H    -2.270242  2.546464  2.390890
H    -1.527615  3.683850  5.149352
H    -2.528845  4.482457  3.937979
H    0.320390  3.773180  3.474460
H    -0.908810  7.554109  3.466318
H    -1.949480  6.364405  2.883184
H    1.282850  6.959146  3.691273
N    -2.852142  -0.953555  4.998531
C    -1.762828  -1.112604  5.946828
H    -3.790256  -1.188571  5.308956
H    -1.609108  -0.215808  6.566374
H    -0.825066  -1.339102  5.427616
H    -1.985020  -1.956517  6.610769
