35
Energy: -21190.6085757 eV PBE+vdW (tier 2 basis)
C    -1.784362  0.574752  -0.231341
C    -1.415998  -0.238138  0.994154
O    -0.956408  -1.379812  0.924724
H    -2.516648  0.005811  -0.817957
H    -0.892302  0.700898  -0.857695
H    -2.200840  1.560866  0.008161
N    -1.616239  0.387118  2.189938
C    -1.404886  -0.311808  3.436912
C    -2.430770  -1.454968  3.606858
O    -3.603539  -1.359233  3.233201
H    -2.121792  1.272295  2.250269
H    -0.406344  -0.774556  3.380796
C    -1.396534  0.688466  4.619477
C    -2.709162  1.108870  5.313677
C    -3.922374  1.526581  4.463752
N    -3.597520  2.315495  3.272904
C    -4.389755  2.254000  2.113076
N    -4.934321  1.013408  1.847125
N    -4.501900  3.338435  1.418532
H    -0.872891  1.582861  4.250504
H    -0.750042  0.269446  5.403922
H    -2.437860  1.929818  5.996232
H    -3.056565  0.291145  5.964300
H    -4.628934  2.073387  5.113174
H    -4.443092  0.626398  4.132723
H    -3.371203  3.292488  3.448935
H    -5.332642  0.906256  0.923384
H    -4.469794  0.176534  2.214478
H    -4.992279  3.165927  0.537165
N    -1.950264  -2.548007  4.251069
C    -2.748638  -3.740790  4.469561
H    -0.945054  -2.616727  4.359190
H    -2.474601  -4.206608  5.423746
H    -2.615564  -4.473051  3.659257
H    -3.802743  -3.447170  4.497522
