35
Energy: -21190.3538453 eV PBE+vdW (tier 2 basis)
C    0.499408  -1.186023  0.111512
C    0.596051  -0.607690  1.511632
O    1.663500  -0.270787  2.011790
H    0.969865  -0.486871  -0.590150
H    -0.527586  -1.385593  -0.218831
H    1.074433  -2.119987  0.077310
N    -0.603732  -0.474379  2.174944
C    -0.654129  -0.109530  3.595051
C    -2.018371  -0.460425  4.196475
O    -2.120152  -1.018848  5.289720
H    -1.396049  -0.984097  1.799326
H    0.079965  -0.718961  4.139941
C    -0.333632  1.390446  3.815772
C    -0.469110  1.847097  5.271857
C    0.570124  1.230469  6.227129
N    0.251665  1.452822  7.623677
C    -0.127642  0.472710  8.525359
N    -0.585247  -0.710985  7.956825
N    0.012771  0.726384  9.787246
H    -1.002737  1.985307  3.174095
H    0.687318  1.558825  3.446293
H    -1.472540  1.614091  5.659720
H    -0.382109  2.943364  5.310812
H    1.565872  1.645433  6.002725
H    0.654106  0.148124  6.062391
H    0.677240  2.242286  8.094956
H    -1.005123  -1.349288  8.620879
H    -1.079371  -0.687932  7.063821
H    -0.384651  -0.022064  10.359269
N    -3.101777  -0.087984  3.455327
C    -4.464799  -0.248294  3.933743
H    -2.941943  0.502396  2.645786
H    -5.127370  -0.516009  3.102108
H    -4.839957  0.668954  4.411392
H    -4.471346  -1.050630  4.678073
