35
Energy: -21190.2799052 eV PBE+vdW (tier 2 basis)
C    0.305988  -0.255904  0.972263
C    -0.097855  -0.077447  2.418544
O    0.719333  -0.141707  3.335987
H    0.126587  -1.303086  0.670371
H    1.379666  -0.058558  0.903018
H    -0.228124  0.398385  0.272608
N    -1.430755  0.116931  2.710072
C    -2.590896  0.209070  1.827018
C    -3.373170  1.473950  2.253253
O    -4.327144  1.410817  3.027021
H    -1.614679  0.168988  3.710091
H    -2.213461  0.335792  0.804091
C    -3.518874  -1.013844  1.859287
C    -2.935892  -2.315573  1.293036
C    -2.023950  -3.098990  2.251668
N    -1.665330  -4.428154  1.775677
C    -0.704309  -4.607033  0.802051
N    -0.577592  -5.953139  0.424232
N    -0.050794  -3.605717  0.313604
H    -4.414612  -0.744582  1.279863
H    -3.876640  -1.158539  2.890033
H    -2.389699  -2.126287  0.356911
H    -3.779730  -2.972601  1.026940
H    -2.527128  -3.222864  3.222753
H    -1.087947  -2.564803  2.443643
H    -2.409497  -5.117750  1.772247
H    0.215042  -6.133153  -0.182480
H    -0.619652  -6.616519  1.194044
H    0.712180  -3.922968  -0.288379
N    -2.933957  2.672872  1.765361
C    -1.752147  2.941724  0.963194
H    -3.430994  3.465941  2.158985
H    -1.751997  4.003666  0.695672
H    -1.759552  2.369922  0.024932
H    -0.818477  2.722114  1.501732
