35
Energy: -21190.3866701 eV PBE+vdW (tier 2 basis)
C    -0.509225  1.136296  -0.289159
C    -0.091724  0.023770  0.651164
O    1.063852  -0.380961  0.732632
H    0.388047  1.524261  -0.777460
H    -1.022127  1.951909  0.238634
H    -1.200508  0.761740  -1.057762
N    -1.082137  -0.526098  1.441392
C    -2.511315  -0.237656  1.414191
C    -2.900664  1.077501  2.124640
O    -3.952018  1.653574  1.845494
H    -0.769930  -1.334734  1.973840
H    -2.845774  -0.109068  0.374932
C    -3.257036  -1.440993  2.035503
C    -4.784666  -1.344343  2.093365
C    -5.455382  -1.303218  0.719714
N    -6.901708  -1.198471  0.853189
C    -7.734603  -1.771488  -0.093222
N    -9.076980  -1.402072  0.097325
N    -7.265613  -2.523508  -1.029431
H    -2.869646  -1.587444  3.057354
H    -2.966427  -2.332284  1.455965
H    -5.078641  -0.457046  2.673329
H    -5.164828  -2.219839  2.640418
H    -5.259998  -2.222041  0.152231
H    -5.062934  -0.463177  0.122286
H    -7.233003  -0.310312  1.218124
H    -9.729506  -1.944013  -0.458907
H    -9.368665  -1.349330  1.070474
H    -8.020476  -2.954786  -1.567732
N    -2.026503  1.501366  3.075630
C    -2.229573  2.707966  3.852119
H    -1.155371  0.987319  3.158411
H    -1.444285  3.449944  3.649888
H    -2.239663  2.488614  4.928605
H    -3.198928  3.128853  3.563942
