35
Energy: -21190.2820661 eV PBE+vdW (tier 2 basis)
C    0.254663  -0.380886  0.528525
C    -0.148687  0.568480  1.646302
O    0.456876  1.616729  1.857750
H    1.154377  0.022425  0.056890
H    -0.535839  -0.461757  -0.231688
H    0.465994  -1.393905  0.897689
N    -1.235591  0.216213  2.402963
C    -2.010199  -1.013098  2.345916
C    -3.452299  -0.638776  2.730546
O    -3.668132  0.025388  3.744072
H    -1.480597  0.859706  3.153638
H    -1.972124  -1.400650  1.320432
C    -1.473328  -2.093124  3.310649
C    -2.233204  -3.418200  3.253870
C    -1.595524  -4.482962  4.155858
N    -2.271571  -5.771829  4.147083
C    -2.134383  -6.630837  3.071871
N    -2.952451  -7.766144  3.194699
N    -1.348530  -6.342259  2.090096
H    -1.497660  -1.674618  4.328785
H    -0.413967  -2.259851  3.060954
H    -2.238268  -3.812061  2.226592
H    -3.282348  -3.267440  3.556799
H    -1.564712  -4.130837  5.197875
H    -0.560829  -4.660941  3.833927
H    -3.173546  -5.805874  4.610444
H    -2.759624  -8.481950  2.502286
H    -2.999675  -8.156446  4.132940
H    -1.257364  -7.131339  1.446277
N    -4.465771  -1.076244  1.931448
C    -4.380586  -1.813753  0.679160
H    -5.384118  -0.788348  2.255273
H    -5.396879  -1.950055  0.294942
H    -3.938048  -2.810285  0.811683
H    -3.807812  -1.267826  -0.084332
