35
Energy: -21189.8652652 eV PBE+vdW (tier 2 basis)
C    -0.036558  -0.247446  -0.005869
C    0.049858  -0.126394  1.504047
O    1.120829  -0.216701  2.097851
H    -0.557308  -1.171956  -0.290709
H    0.983538  -0.282247  -0.396695
H    -0.566751  0.596927  -0.465334
N    -1.113198  0.082868  2.208225
C    -2.497901  0.169609  1.744303
C    -2.906282  -1.141288  1.006356
O    -2.772459  -2.196839  1.619981
H    -0.966617  0.022260  3.210369
H    -3.096113  0.069201  2.663351
C    -2.847902  1.551640  1.163098
C    -2.662502  2.671574  2.189587
C    -2.936491  4.060245  1.591274
N    -2.864348  5.159168  2.536143
C    -3.907654  5.440985  3.413481
N    -3.555478  6.411698  4.356271
N    -5.090280  4.930011  3.445251
H    -3.897327  1.541609  0.831221
H    -2.237957  1.770827  0.274610
H    -1.634452  2.647759  2.581544
H    -3.331292  2.506493  3.049272
H    -3.932244  4.086636  1.121519
H    -2.216660  4.263894  0.783532
H    -1.939963  5.348936  2.911864
H    -4.367289  6.698745  4.895477
H    -3.045742  7.206765  3.979998
H    -5.184876  4.142925  2.800102
N    -3.453357  -1.155891  -0.250465
C    -3.583412  -0.148712  -1.293444
H    -3.702413  -2.106158  -0.509901
H    -4.379394  0.579673  -1.086251
H    -2.646016  0.392675  -1.469975
H    -3.841475  -0.666429  -2.223516
