35
Energy: -21190.2741657 eV PBE+vdW (tier 2 basis)
C    0.395387  0.797552  -0.141095
C    0.116216  0.254348  1.245173
O    0.995064  0.142352  2.096094
H    1.419174  1.179983  -0.150581
H    -0.298329  1.596394  -0.430118
H    0.304191  0.002903  -0.894399
N    -1.170084  -0.161814  1.530236
C    -2.406131  0.042377  0.770230
C    -2.335447  -0.589561  -0.646568
O    -2.678040  0.024169  -1.658574
H    -1.269806  -0.442131  2.501759
H    -3.161791  -0.557768  1.298424
C    -2.908429  1.500769  0.707846
C    -4.425962  1.693927  0.874581
C    -5.346217  0.927940  -0.089126
N    -5.532246  -0.458453  0.324049
C    -5.745654  -1.526548  -0.541613
N    -6.348616  -2.618187  0.106635
N    -5.386179  -1.651039  -1.769946
H    -2.598484  1.935314  -0.252401
H    -2.402522  2.064421  1.503960
H    -4.638802  2.767276  0.757257
H    -4.719905  1.448883  1.910592
H    -4.915355  0.932990  -1.097039
H    -6.319584  1.447560  -0.148577
H    -5.924119  -0.579720  1.252692
H    -6.536504  -3.356617  -0.566327
H    -7.180346  -2.389668  0.646336
H    -4.812025  -0.864946  -2.085106
N    -1.911335  -1.873266  -0.674120
C    -1.919064  -2.664639  -1.893634
H    -1.621528  -2.299933  0.197680
H    -1.367890  -3.593960  -1.716651
H    -1.435716  -2.109370  -2.707215
H    -2.949041  -2.899053  -2.200026
