35
Energy: -21190.189253 eV PBE+vdW (tier 2 basis)
C    -0.411507  -0.835391  -0.896643
C    0.015437  -0.320775  0.460118
O    1.194696  -0.128472  0.746795
H    0.444144  -1.345818  -1.347625
H    -0.672403  0.020070  -1.537802
H    -1.275231  -1.510211  -0.867659
N    -0.959904  -0.013040  1.389047
C    -2.399190  -0.286313  1.396502
C    -2.715474  -1.798953  1.250153
O    -3.427431  -2.226565  0.342683
H    -0.556893  0.381918  2.232698
H    -2.730175  0.007423  2.406438
C    -3.211367  0.526093  0.378810
C    -2.938698  2.027238  0.429302
C    -3.614112  2.793494  -0.723242
N    -3.208688  2.383697  -2.059376
C    -1.944613  2.665902  -2.565040
N    -1.662344  1.937582  -3.728365
N    -1.052480  3.468743  -2.098229
H    -4.277164  0.317190  0.554128
H    -2.997048  0.132578  -0.623403
H    -1.853998  2.204447  0.394448
H    -3.294863  2.453447  1.381974
H    -3.420178  3.871545  -0.620455
H    -4.706182  2.672731  -0.667714
H    -3.593477  1.498375  -2.372895
H    -0.808218  2.279315  -4.160465
H    -2.428256  1.885461  -4.395330
H    -1.316198  3.847534  -1.186653
N    -2.171429  -2.643014  2.175509
C    -1.317475  -2.340919  3.312514
H    -2.383134  -3.618195  1.989030
H    -0.273365  -2.156342  3.021115
H    -1.342609  -3.194278  3.999442
H    -1.685647  -1.467650  3.867918
