35
Energy: -21190.1272638 eV PBE+vdW (tier 2 basis)
C    -0.133684  -0.004691  0.017446
C    -0.115041  0.011772  1.532530
O    0.941795  0.077487  2.158205
H    -1.023000  0.441936  -0.436755
H    -0.071451  -1.046818  -0.327719
H    0.763103  0.517283  -0.328851
N    -1.300787  -0.115149  2.225126
C    -2.702403  -0.045615  1.804107
C    -3.007519  -0.817462  0.501319
O    -3.552654  -0.280655  -0.461497
H    -1.140432  -0.086547  3.229145
H    -3.255304  -0.599174  2.583626
C    -3.286934  1.380063  1.807339
C    -2.576617  2.415998  0.936065
C    -3.124350  3.842176  1.102653
N    -2.949764  4.418453  2.424708
C    -3.919071  4.410206  3.417073
N    -3.427635  4.906227  4.633170
N    -5.143086  4.010767  3.356546
H    -3.285598  1.721730  2.853526
H    -4.341502  1.302511  1.504610
H    -2.666959  2.137896  -0.123470
H    -1.500518  2.433984  1.173995
H    -4.196033  3.875259  0.859329
H    -2.628811  4.499152  0.371343
H    -1.993529  4.461477  2.762556
H    -4.188158  5.021676  5.297215
H    -2.870247  5.752823  4.549404
H    -5.353417  3.553279  2.467359
N    -2.694105  -2.147181  0.481122
C    -2.101154  -2.973355  1.519960
H    -2.921723  -2.588562  -0.404374
H    -2.344989  -4.021096  1.310671
H    -2.513864  -2.729389  2.507011
H    -1.007365  -2.871555  1.572331
