35
Energy: -21189.9886242 eV PBE+vdW (tier 2 basis)
C    1.307438  -0.036634  2.120097
C    0.180143  0.879510  1.669218
O    0.386979  2.064037  1.410320
H    1.775920  0.400362  3.010298
H    0.994911  -1.062884  2.349752
H    2.070447  -0.064962  1.331820
N    -1.039097  0.268307  1.560776
C    -2.365098  0.823831  1.252674
C    -2.929211  0.483950  -0.148755
O    -4.140180  0.280717  -0.244416
H    -1.053121  -0.716708  1.797228
H    -3.048480  0.257573  1.899871
C    -2.598977  2.312550  1.606613
C    -2.297635  3.355043  0.527876
C    -2.622667  4.778346  0.978778
N    -4.051467  4.936453  1.252299
C    -4.591265  6.099330  1.786318
N    -3.791503  6.719209  2.751469
N    -5.734809  6.510012  1.352089
H    -2.024236  2.540565  2.515658
H    -3.660479  2.392865  1.876570
H    -1.233590  3.322751  0.264269
H    -2.872221  3.128674  -0.385811
H    -2.274300  5.494590  0.211466
H    -2.051512  5.001219  1.891609
H    -4.653357  4.612771  0.497191
H    -3.240671  6.097265  3.336705
H    -4.277862  7.425552  3.291908
H    -6.087906  7.292512  1.909336
N    -2.120342  0.408890  -1.244712
C    -0.711011  0.723775  -1.423234
H    -2.647200  0.152375  -2.074610
H    -0.389689  1.537386  -0.765483
H    -0.559426  1.054145  -2.457673
H    -0.063088  -0.148115  -1.243053
