35
Energy: -21190.4627062 eV PBE+vdW (tier 2 basis)
C    -0.807616  -0.707495  0.125128
C    -0.559128  -0.522793  1.608917
O    0.570866  -0.547907  2.093045
H    -0.344047  -1.647878  -0.196542
H    -0.307845  0.104919  -0.417340
H    -1.869646  -0.717940  -0.149178
N    -1.682518  -0.334555  2.373464
C    -1.625017  -0.044498  3.801652
C    -2.479409  -1.091006  4.552640
O    -3.609000  -0.821891  4.979166
H    -2.585272  -0.277724  1.914985
H    -0.564423  -0.157032  4.069595
C    -2.085055  1.380102  4.117900
C    -1.858346  1.776085  5.589985
C    -2.970085  2.657674  6.159413
N    -4.226480  1.942428  6.141762
C    -5.417684  2.503434  6.536261
N    -6.494893  1.612752  6.463808
N    -5.623662  3.703043  6.973664
H    -3.153790  1.465433  3.873579
H    -1.542023  2.062948  3.450383
H    -0.898272  2.299304  5.697086
H    -1.784712  0.874881  6.219533
H    -3.058142  3.585768  5.564768
H    -2.696411  2.965272  7.185942
H    -4.188504  0.942682  5.948343
H    -7.376817  2.103613  6.573023
H    -6.488935  0.988001  5.662517
H    -4.745224  4.212464  7.090763
N    -1.952099  -2.333210  4.716397
C    -0.728242  -2.891656  4.163099
H    -2.600285  -2.977081  5.162679
H    -0.307801  -3.613946  4.873051
H    0.018477  -2.111671  3.984319
H    -0.909802  -3.403593  3.205450
