35
Energy: -21190.4588462 eV PBE+vdW (tier 2 basis)
C    -0.728880  1.458024  0.462738
C    -0.900798  0.700708  1.766200
O    -0.214272  0.942163  2.759034
H    -0.842716  2.531081  0.659367
H    -1.438818  1.158314  -0.317577
H    0.293757  1.299961  0.097650
N    -1.883660  -0.250734  1.760912
C    -2.062361  -1.187160  2.853888
C    -2.297742  -2.571925  2.225355
O    -2.745398  -2.686522  1.083044
H    -2.300141  -0.556410  0.882808
H    -1.131135  -1.178121  3.443256
C    -3.245863  -0.821864  3.776077
C    -3.086305  0.531972  4.471033
C    -4.192506  0.810217  5.491111
N    -4.117399  -0.124386  6.599809
C    -5.094882  -0.343684  7.551819
N    -6.378107  0.084723  7.194314
N    -4.772231  -0.990143  8.622818
H    -3.361994  -1.609778  4.535596
H    -4.170564  -0.829774  3.176478
H    -3.085765  1.340960  3.727264
H    -2.103995  0.588991  4.967040
H    -5.168483  0.689798  4.994269
H    -4.119083  1.864498  5.823887
H    -3.192685  -0.308729  6.976435
H    -7.029861  0.093890  7.970253
H    -6.440685  0.928311  6.632839
H    -5.578129  -1.123205  9.237258
N    -2.011731  -3.627281  3.032143
C    -2.255431  -5.006291  2.650464
H    -1.628616  -3.436383  3.950469
H    -1.325637  -5.590778  2.668766
H    -2.652697  -5.001551  1.630452
H    -2.988186  -5.479959  3.318410
