35
Energy: -21190.1414427 eV PBE+vdW (tier 2 basis)
C    0.840046  0.696236  0.512851
C    0.031987  -0.388049  1.206042
O    0.157075  -1.578004  0.935437
H    0.582136  1.715908  0.826038
H    0.693645  0.605909  -0.570442
H    1.904731  0.522649  0.713329
N    -0.853344  0.053955  2.153232
C    -1.679236  -0.847875  2.944805
C    -2.676232  -1.720154  2.145659
O    -2.846465  -2.888151  2.485143
H    -0.922401  1.048649  2.332689
H    -1.027178  -1.602229  3.408619
C    -2.383054  -0.037354  4.047850
C    -3.316687  -0.851819  4.942579
C    -3.849308  -0.015643  6.112970
N    -4.861391  -0.690426  6.909302
C    -6.181008  -0.696183  6.493638
N    -7.025582  -1.453521  7.315105
N    -6.553203  0.024859  5.489783
H    -2.958967  0.785662  3.591057
H    -1.595144  0.434884  4.659465
H    -2.790285  -1.741434  5.323026
H    -4.172065  -1.217935  4.359007
H    -4.317993  0.901650  5.732896
H    -3.026394  0.278406  6.783290
H    -4.549204  -1.504092  7.427267
H    -7.848424  -1.813652  6.845836
H    -6.588021  -2.148622  7.912421
H    -7.569523  0.004587  5.382275
N    -3.405200  -1.174167  1.125917
C    -3.398461  0.163786  0.561109
H    -4.002677  -1.863466  0.680675
H    -3.408050  0.935186  1.340582
H    -4.315835  0.290224  -0.025598
H    -2.538727  0.343263  -0.102121
