35
Energy: -21190.1009865 eV PBE+vdW (tier 2 basis)
C    0.399797  -0.026301  0.358627
C    0.289644  -0.214289  1.857644
O    1.266377  -0.208609  2.603363
H    1.459239  -0.039750  0.091201
H    -0.035496  0.934065  0.047423
H    -0.130870  -0.811787  -0.196245
N    -0.974280  -0.398753  2.372021
C    -2.247526  -0.281090  1.678042
C    -2.578890  1.126813  1.127181
O    -3.090073  1.229085  0.011409
H    -0.983508  -0.503079  3.383004
H    -2.226792  -0.903963  0.771407
C    -3.379186  -0.798829  2.585167
C    -4.727964  -0.943904  1.879010
C    -5.849475  -1.308468  2.860071
N    -7.150637  -1.498992  2.226879
C    -8.160949  -0.545765  2.201383
N    -7.707263  0.771087  2.308064
N    -9.428293  -0.767823  2.106837
H    -3.487435  -0.129709  3.455706
H    -3.060963  -1.776392  2.982534
H    -4.662843  -1.714054  1.095646
H    -4.979896  -0.010204  1.354941
H    -5.936712  -0.527174  3.631168
H    -5.589181  -2.241245  3.383910
H    -7.489737  -2.451012  2.179486
H    -8.480591  1.416480  2.174685
H    -6.908984  1.005586  1.723600
H    -9.641931  -1.765293  2.194462
N    -2.325902  2.235040  1.885143
C    -1.757834  2.372087  3.220034
H    -2.575673  3.090173  1.397876
H    -2.241245  1.701444  3.941877
H    -1.942615  3.397122  3.559969
H    -0.674498  2.191155  3.242605
