35
Energy: -21190.5940037 eV PBE+vdW (tier 2 basis)
C    3.321940  2.031530  1.996728
C    2.138232  1.780356  2.909173
O    2.117729  2.224780  4.070013
H    3.446348  3.114295  1.868648
H    4.228606  1.658274  2.489829
H    3.221325  1.559915  1.012240
N    1.130087  1.061217  2.357798
C    -0.047043  0.518440  3.050509
C    -1.100867  1.544491  3.529851
O    -2.293604  1.321634  3.298667
H    1.299598  0.663624  1.425133
H    -0.598345  -0.021374  2.274779
C    0.320755  -0.476127  4.191839
C    0.177400  -1.969420  3.861588
C    0.959407  -2.517253  2.649407
N    0.256106  -2.400440  1.379584
C    0.541458  -1.501023  0.379685
N    -0.513836  -1.300235  -0.501289
N    1.658867  -0.867951  0.176845
H    -0.317800  -0.267605  5.061820
H    1.346247  -0.256684  4.519365
H    -0.888583  -2.216323  3.726624
H    0.502192  -2.535582  4.748531
H    1.192888  -3.579102  2.819559
H    1.926189  -2.004220  2.554049
H    -0.627660  -2.891532  1.304606
H    -0.290322  -0.611038  -1.211933
H    -1.433981  -1.172165  -0.090071
H    2.408018  -1.251677  0.758868
N    -0.630843  2.601661  4.228571
C    -1.502157  3.618114  4.781175
H    0.387444  2.637440  4.382287
H    -1.474862  3.611789  5.880931
H    -2.525964  3.409121  4.452780
H    -1.207398  4.617477  4.431854
