35
Energy: -21190.4282515 eV PBE+vdW (tier 2 basis)
C    0.622663  -0.765266  0.582929
C    -0.842621  -0.841631  0.963109
O    -1.500702  -1.875457  0.828126
H    1.178492  0.001375  1.137722
H    0.680331  -0.522547  -0.488843
H    1.088177  -1.742437  0.743543
N    -1.365855  0.327728  1.439742
C    -2.781430  0.685833  1.578355
C    -3.730721  -0.534606  1.462210
O    -4.447374  -0.734067  0.484035
H    -0.729450  1.117670  1.459692
H    -2.915415  1.047407  2.612689
C    -3.175539  1.868297  0.654932
C    -2.557646  1.985156  -0.749185
C    -3.088525  1.056391  -1.851537
N    -2.646621  -0.316595  -1.767228
C    -1.532766  -0.776656  -2.413831
N    -1.326282  -2.155073  -2.235809
N    -0.808932  0.023557  -3.137329
H    -4.272892  1.867365  0.578488
H    -2.910468  2.786321  1.203238
H    -1.462215  1.881562  -0.711321
H    -2.741820  3.019392  -1.081696
H    -4.188427  1.061225  -1.842569
H    -2.749243  1.444915  -2.820801
H    -3.195843  -0.943040  -1.189596
H    -1.533186  -2.481332  -1.290252
H    -0.398724  -2.449021  -2.523332
H    -0.033624  -0.485959  -3.566857
N    -3.816650  -1.278039  2.602185
C    -4.494383  -2.563564  2.591003
H    -3.071057  -1.158505  3.279323
H    -5.446281  -2.458526  2.060800
H    -4.688933  -2.880708  3.621411
H    -3.893812  -3.329846  2.076549
