35
Energy: -21190.3141981 eV PBE+vdW (tier 2 basis)
C    0.151838  -0.949575  0.343467
C    0.006950  -0.961836  1.857042
O    0.899384  -1.380897  2.589135
H    1.133446  -1.362324  0.097357
H    0.085035  0.071702  -0.058884
H    -0.622070  -1.552357  -0.151017
N    -1.162769  -0.473437  2.381660
C    -2.300553  0.095549  1.690591
C    -2.957036  1.089532  2.670063
O    -2.802710  0.985198  3.885863
H    -1.197352  -0.389082  3.398052
H    -1.956099  0.654960  0.805929
C    -3.316188  -0.977976  1.203192
C    -3.992613  -1.804423  2.307703
C    -5.310411  -1.207051  2.803317
N    -5.870642  -2.016850  3.870868
C    -7.138023  -1.738238  4.376299
N    -7.440934  -2.509908  5.500844
N    -8.000843  -0.888168  3.935351
H    -2.761599  -1.650977  0.535379
H    -4.078204  -0.491745  0.571612
H    -3.293875  -1.924711  3.151134
H    -4.195620  -2.817983  1.934195
H    -6.032281  -1.193711  1.971054
H    -5.167019  -0.159908  3.125554
H    -5.198628  -2.295410  4.581624
H    -8.412613  -2.391330  5.771766
H    -7.174430  -3.488213  5.431944
H    -7.601285  -0.294413  3.205448
N    -3.733205  2.043608  2.089635
C    -4.534764  2.979722  2.859060
H    -3.813782  2.049396  1.079793
H    -4.405861  4.000186  2.477747
H    -4.192782  2.936942  3.897888
H    -5.602707  2.717408  2.830046
