35
Energy: -21190.0399694 eV PBE+vdW (tier 2 basis)
C    -0.222167  -0.448215  -0.121347
C    -0.251543  -0.564130  1.388031
O    0.773465  -0.708765  2.050608
H    -0.904014  0.312006  -0.518157
H    -0.507999  -1.406706  -0.577621
H    0.805127  -0.217991  -0.415915
N    -1.472372  -0.544998  2.029725
C    -2.827857  -0.333084  1.517911
C    -3.159554  -1.255410  0.317961
O    -3.478724  -0.805601  -0.780914
H    -1.368774  -0.624439  3.037173
H    -3.485551  -0.660890  2.339204
C    -3.144271  1.140926  1.208623
C    -4.638321  1.476580  1.118559
C    -5.371917  1.421539  2.457808
N    -6.783351  1.754362  2.268395
C    -7.742884  1.575940  3.261991
N    -7.245375  1.683413  4.560303
N    -8.996152  1.325390  3.089632
H    -2.665775  1.412210  0.259039
H    -2.669311  1.748305  1.994035
H    -5.119863  0.796627  0.398716
H    -4.745634  2.490193  0.703960
H    -4.906836  2.145788  3.146943
H    -5.265983  0.426649  2.928684
H    -7.136587  1.529099  1.343621
H    -6.549029  2.407779  4.708860
H    -8.005501  1.726216  5.232558
H    -9.209400  1.141135  2.105604
N    -3.096380  -2.600883  0.541320
C    -2.747185  -3.313927  1.759679
H    -3.302558  -3.149164  -0.287862
H    -3.099920  -4.347087  1.668524
H    -3.243983  -2.875636  2.635582
H    -1.663955  -3.326595  1.946207
