35
Energy: -21190.3384361 eV PBE+vdW (tier 2 basis)
C    -0.667777  2.198653  1.874174
C    -0.085421  0.800266  1.909204
O    1.077641  0.570571  2.225299
H    -0.936425  2.485133  0.847231
H    0.088912  2.892061  2.249186
H    -1.577763  2.282848  2.483720
N    -0.934961  -0.235878  1.572179
C    -2.307279  -0.145951  1.085651
C    -3.347601  0.119440  2.199304
O    -4.455589  0.579471  1.927999
H    -0.463286  -1.134372  1.504044
H    -2.406049  0.699614  0.388250
C    -2.651585  -1.442364  0.323438
C    -3.939097  -1.374801  -0.499349
C    -4.295075  -2.706748  -1.175101
N    -3.278924  -3.264577  -2.072799
C    -2.795964  -2.593062  -3.196042
N    -3.742289  -1.797803  -3.838176
N    -1.597311  -2.648048  -3.669810
H    -2.704860  -2.274834  1.047544
H    -1.802900  -1.651304  -0.347262
H    -3.838522  -0.597045  -1.270880
H    -4.781086  -1.070605  0.138007
H    -5.240507  -2.586835  -1.723633
H    -4.489943  -3.477454  -0.414352
H    -2.550482  -3.792525  -1.604959
H    -4.680138  -2.183426  -3.893642
H    -3.393962  -1.474366  -4.735397
H    -0.967901  -3.149948  -3.037256
N    -2.950213  -0.226767  3.452978
C    -3.793729  -0.062006  4.619787
H    -1.986845  -0.526387  3.562509
H    -4.760648  0.323463  4.278726
H    -3.355315  0.652038  5.331071
H    -3.951005  -1.020443  5.133539
