35
Energy: -21190.3427149 eV PBE+vdW (tier 2 basis)
C    0.207172  0.679559  2.954345
C    -0.166929  -0.665143  3.546141
O    0.561375  -1.272308  4.325534
H    0.380514  0.597456  1.871602
H    1.131196  1.013766  3.432568
H    -0.578668  1.431780  3.107304
N    -1.390892  -1.188621  3.183572
C    -2.341850  -0.682951  2.202990
C    -3.475214  0.194473  2.790324
O    -4.309118  0.702617  2.043898
H    -1.553946  -2.119929  3.560600
H    -1.807672  -0.017128  1.508920
C    -2.942793  -1.835386  1.384057
C    -1.936153  -2.505897  0.448919
C    -2.528796  -3.725251  -0.269002
N    -1.609908  -4.361268  -1.208372
C    -0.907261  -5.532528  -0.955588
N    -0.683533  -5.784891  0.399930
N    -0.475546  -6.376916  -1.830274
H    -3.785543  -1.423570  0.812114
H    -3.373293  -2.576635  2.080704
H    -1.039416  -2.813706  1.010915
H    -1.587534  -1.780461  -0.303251
H    -3.427456  -3.417315  -0.825017
H    -2.856425  -4.471819  0.470235
H    -1.796560  -4.204652  -2.190503
H    -0.077521  -6.593099  0.508782
H    -0.362130  -4.990092  0.946071
H    -0.836622  -6.166462  -2.764939
N    -3.454050  0.351787  4.139054
C    -4.428137  1.154225  4.852174
H    -2.706324  -0.110008  4.645954
H    -3.945093  1.986885  5.382014
H    -4.985074  0.547602  5.579436
H    -5.128723  1.559119  4.113917
