35
Energy: -21190.5527711 eV PBE+vdW (tier 2 basis)
C    0.473540  0.743953  0.830272
C    -0.044736  -0.235740  1.863386
O    0.699242  -1.056420  2.407146
H    1.439285  0.383752  0.465609
H    0.626871  1.728609  1.296011
H    -0.216173  0.872576  -0.014537
N    -1.382511  -0.203132  2.163183
C    -2.264904  0.935293  1.991615
C    -1.744524  2.184066  2.742228
O    -1.155045  2.097732  3.819130
H    -1.603891  -0.754929  3.007487
H    -2.342444  1.171823  0.916952
C    -3.697713  0.593956  2.484165
C    -3.981565  0.598725  4.001464
C    -3.546661  -0.621717  4.822059
N    -2.105441  -0.803535  4.838968
C    -1.527942  -1.945030  5.424652
N    -0.147352  -1.935492  5.311812
N    -2.143832  -2.921885  5.998381
H    -3.966103  -0.382549  2.050980
H    -4.372820  1.329727  2.023241
H    -5.072211  0.676712  4.123862
H    -3.566567  1.510144  4.458096
H    -3.998065  -1.532263  4.395381
H    -3.962839  -0.511346  5.841978
H    -1.565630  0.055550  4.961633
H    0.258220  -2.805665  5.641075
H    0.227103  -1.632826  4.406934
H    -3.136482  -2.714257  6.128732
N    -2.031779  3.369701  2.137379
C    -1.692778  4.657440  2.715689
H    -2.482090  3.345275  1.230075
H    -2.591769  5.265688  2.885591
H    -1.002712  5.214604  2.067332
H    -1.202056  4.467490  3.675910
