35
Energy: -21190.164683 eV PBE+vdW (tier 2 basis)
C    -0.416031  -0.214738  -0.155227
C    -0.032777  -0.802512  1.192173
O    0.965036  -1.499545  1.340477
H    -1.430083  -0.509234  -0.460931
H    0.299305  -0.580680  -0.895988
H    -0.374451  0.884028  -0.134215
N    -0.873431  -0.542877  2.252600
C    -1.966761  0.410393  2.272370
C    -1.453318  1.860285  2.441693
O    -0.420313  2.105209  3.060766
H    -0.472848  -0.824576  3.142918
H    -2.485666  0.322053  1.308608
C    -3.005700  0.066372  3.372938
C    -2.743938  0.593772  4.791329
C    -1.481055  0.062047  5.492956
N    -1.334359  0.518423  6.862885
C    -0.877176  1.805576  7.156419
N    -1.046446  2.112934  8.516653
N    -0.358615  2.678551  6.371083
H    -3.105588  -1.030363  3.381011
H    -3.981943  0.454843  3.048240
H    -3.617773  0.327846  5.407652
H    -2.705427  1.693532  4.783334
H    -0.578456  0.373079  4.947877
H    -1.490964  -1.039809  5.503264
H    -2.045780  0.182319  7.506030
H    -0.571540  2.984915  8.734630
H    -0.762171  1.367947  9.148699
H    -0.374760  2.406476  5.384333
N    -2.212726  2.857461  1.901156
C    -3.434713  2.742459  1.121536
H    -1.854695  3.787129  2.098723
H    -4.283234  2.372689  1.716330
H    -3.303312  2.087053  0.248787
H    -3.699985  3.736614  0.747485
