35
Energy: -21189.9974635 eV PBE+vdW (tier 2 basis)
C    -0.782681  -0.821996  -0.639408
C    -0.423743  -0.950819  0.828925
O    0.474950  -1.714090  1.184162
H    -1.824420  -1.098754  -0.842716
H    -0.122562  -1.499079  -1.187754
H    -0.628452  0.200463  -1.005576
N    -1.075823  -0.207936  1.790891
C    -2.210852  0.722832  1.860765
C    -3.327500  0.175950  2.789301
O    -3.652276  0.832510  3.781119
H    -0.680354  -0.420845  2.704739
H    -1.857322  1.597467  2.428234
C    -2.765074  1.245329  0.530689
C    -3.907353  2.246817  0.725621
C    -4.499925  2.732813  -0.605357
N    -5.006377  1.665754  -1.479277
C    -5.961303  0.756448  -1.032371
N    -7.038946  1.342801  -0.377882
N    -5.763297  -0.505518  -1.231685
H    -3.125416  0.415051  -0.088003
H    -1.945313  1.728874  -0.022771
H    -3.559489  3.120108  1.299065
H    -4.711483  1.793215  1.323279
H    -3.745251  3.278182  -1.190524
H    -5.304831  3.453446  -0.403085
H    -4.273915  1.150393  -1.960707
H    -7.814331  0.722441  -0.178788
H    -7.328293  2.256271  -0.713555
H    -6.600172  -1.055065  -1.016128
N    -3.929754  -1.014793  2.509983
C    -3.764034  -1.924991  1.382716
H    -4.639075  -1.247490  3.197989
H    -2.719127  -2.235725  1.266808
H    -4.138683  -1.499883  0.438937
H    -4.351389  -2.825383  1.593279
