35
Energy: -21190.343716 eV PBE+vdW (tier 2 basis)
C    -0.241056  0.010148  -0.089814
C    -0.192429  0.256002  1.405558
O    0.856908  0.653463  1.936345
H    -1.223806  -0.300030  -0.464462
H    0.494322  -0.765908  -0.337329
H    0.067632  0.926838  -0.606748
N    -1.356962  0.027933  2.067273
C    -1.716027  0.025879  3.500950
C    -1.248271  1.163652  4.452577
O    -1.817210  1.221834  5.543363
H    -2.117902  -0.275198  1.470020
H    -2.796581  0.231019  3.486180
C    -1.589448  -1.366065  4.175274
C    -0.325048  -2.215458  3.977280
C    1.042219  -1.577148  4.249747
N    1.057285  -0.750763  5.444232
C    2.005986  0.223298  5.718992
N    2.787904  0.612174  4.636613
N    2.213490  0.779756  6.868226
H    -2.437919  -1.980502  3.836383
H    -1.769531  -1.172357  5.241686
H    -0.292793  -2.609993  2.949375
H    -0.450433  -3.100566  4.622085
H    1.304048  -0.945200  3.396850
H    1.801892  -2.380972  4.288957
H    0.615267  -1.132560  6.272524
H    3.315337  1.450022  4.858413
H    2.339261  0.643318  3.724930
H    1.639727  0.350596  7.598779
N    -0.339403  2.060164  4.022090
C    0.121108  3.128507  4.897804
H    0.236957  1.783070  3.222682
H    0.670396  3.861052  4.295917
H    0.773565  2.748644  5.698464
H    -0.741464  3.619336  5.362864
