35
Energy: -21190.281229 eV PBE+vdW (tier 2 basis)
C    -0.385704  1.406225  1.441107
C    -0.780904  0.356121  2.462240
O    0.064260  -0.229862  3.143692
H    -0.370835  0.968038  0.433938
H    0.631724  1.727900  1.680613
H    -1.050676  2.279725  1.439416
N    -2.109621  0.067580  2.611874
C    -3.215988  0.422065  1.746654
C    -4.391455  0.877471  2.630732
O    -4.609732  0.328076  3.708279
H    -2.331599  -0.564651  3.378985
H    -2.882192  1.233406  1.089210
C    -3.707210  -0.758667  0.868292
C    -2.630601  -1.425017  -0.004258
C    -1.857023  -2.555392  0.701865
N    -0.864491  -3.225021  -0.129251
C    0.317208  -2.627489  -0.568077
N    0.792744  -1.603687  0.241445
N    0.974421  -2.938702  -1.635570
H    -4.519304  -0.379883  0.228692
H    -4.172876  -1.505709  1.531777
H    -1.915211  -0.677481  -0.378318
H    -3.114868  -1.853025  -0.895616
H    -2.567550  -3.324527  1.041132
H    -1.369961  -2.184612  1.611576
H    -1.247116  -3.867295  -0.814861
H    0.665315  -1.683242  1.247716
H    1.739664  -1.346646  -0.017326
H    0.462233  -3.619284  -2.203119
N    -5.198691  1.863418  2.144127
C    -5.031579  2.634179  0.922105
H    -5.974438  2.094225  2.757095
H    -5.034996  1.997897  0.025368
H    -4.107696  3.231661  0.927712
H    -5.873953  3.328063  0.835065
