35
Energy: -21190.0482066 eV PBE+vdW (tier 2 basis)
C    -0.281723  -1.273871  -0.788686
C    0.075578  -0.079926  0.068882
O    1.008948  0.675330  -0.227842
H    0.543553  -1.441133  -1.486021
H    -1.187344  -1.073597  -1.379555
H    -0.442272  -2.179544  -0.192473
N    -0.643719  0.146143  1.211344
C    -1.978519  -0.330530  1.584771
C    -1.955884  -1.862754  1.860598
O    -1.215369  -2.264892  2.755073
H    -0.279205  0.932935  1.738802
H    -2.123267  0.049074  2.607833
C    -3.078134  0.296425  0.708296
C    -3.128099  1.836076  0.824842
C    -3.132849  2.557166  -0.532429
N    -1.931628  2.345159  -1.310791
C    -1.796406  1.478489  -2.379423
N    -0.496654  1.444276  -2.873735
N    -2.713289  0.756034  -2.944421
H    -4.051645  -0.122426  0.997397
H    -2.916658  0.022675  -0.341474
H    -2.262800  2.206087  1.396180
H    -4.018179  2.147855  1.392040
H    -3.267115  3.638274  -0.373034
H    -3.998133  2.234055  -1.129877
H    -1.108453  2.878697  -1.058348
H    -0.405348  0.745209  -3.603887
H    0.241765  1.377414  -2.170271
H    -3.644977  0.976536  -2.585363
N    -2.758560  -2.749957  1.194008
C    -3.616048  -2.641273  0.020235
H    -2.636709  -3.683690  1.575718
H    -4.589547  -2.184041  0.247342
H    -3.801730  -3.655709  -0.349091
H    -3.145038  -2.078982  -0.793249
