35
Energy: -21190.1848339 eV PBE+vdW (tier 2 basis)
C    -2.702854  1.663439  -2.605858
C    -1.595773  1.878562  -1.603934
O    -0.726233  2.741194  -1.780939
H    -3.515459  2.374850  -2.402384
H    -3.087296  0.640360  -2.605352
H    -2.298235  1.902578  -3.594762
N    -1.525129  1.112612  -0.461954
C    -2.479023  0.221191  0.186475
C    -2.583180  -1.163058  -0.495906
O    -2.426791  -1.333093  -1.700134
H    -0.707625  1.361214  0.086059
H    -2.050881  0.051152  1.185816
C    -3.879298  0.843868  0.404759
C    -3.899712  2.002236  1.428122
C    -4.332663  3.357647  0.860375
N    -3.345629  3.888117  -0.051787
C    -3.641274  4.815289  -1.049417
N    -2.500615  5.256300  -1.704856
N    -4.804571  5.258587  -1.396139
H    -4.560714  0.046471  0.732893
H    -4.269290  1.182703  -0.563039
H    -2.904785  2.115920  1.890214
H    -4.580381  1.752702  2.254786
H    -4.551089  4.051970  1.694555
H    -5.275249  3.230440  0.305883
H    -2.394099  3.932841  0.299461
H    -2.730041  5.814634  -2.519997
H    -1.775015  4.554875  -1.872324
H    -5.532828  4.962634  -0.743269
N    -2.897391  -2.211184  0.329491
C    -2.986823  -2.233890  1.780592
H    -2.965790  -3.094973  -0.165279
H    -2.031484  -1.979818  2.265444
H    -3.255842  -3.248437  2.092527
H    -3.764485  -1.556937  2.162344
