35
Energy: -21190.2257017 eV PBE+vdW (tier 2 basis)
C    -0.456385  2.170216  0.075990
C    -0.037109  1.125646  1.090072
O    1.101583  1.060498  1.547113
H    0.434377  2.725490  -0.227812
H    -1.187657  2.870696  0.503763
H    -0.926377  1.717561  -0.807866
N    -0.998120  0.224599  1.491130
C    -2.420865  0.243215  1.191749
C    -3.209887  1.447787  1.758015
O    -4.053376  1.996638  1.045569
H    -0.660296  -0.442690  2.179625
H    -2.554226  0.354296  0.106371
C    -3.045180  -1.099414  1.626326
C    -4.558795  -1.224605  1.425782
C    -5.011572  -1.118472  -0.041771
N    -6.420650  -1.394214  -0.251739
C    -6.936859  -2.682687  -0.233085
N    -8.336568  -2.695828  -0.263101
N    -6.298305  -3.802343  -0.191487
H    -2.813504  -1.272614  2.689657
H    -2.526533  -1.893724  1.065546
H    -5.084725  -0.456436  2.013418
H    -4.879137  -2.195569  1.830590
H    -4.428876  -1.810685  -0.670909
H    -4.817199  -0.106329  -0.420132
H    -7.057171  -0.671741  0.069461
H    -8.678843  -3.642918  -0.398651
H    -8.751723  -2.045089  -0.925052
H    -5.295744  -3.663227  -0.049078
N    -2.983948  1.879194  3.032340
C    -2.071674  1.386653  4.056413
H    -3.555809  2.684583  3.267882
H    -2.152808  0.300204  4.187931
H    -2.354963  1.848040  5.008816
H    -1.023196  1.640231  3.848608
