35
Energy: -21190.4398147 eV PBE+vdW (tier 2 basis)
C    0.445165  0.125485  -0.046827
C    0.385950  0.141946  1.468758
O    1.394609  0.255049  2.166502
H    0.918241  1.053176  -0.391906
H    -0.536833  0.024986  -0.524620
H    1.086876  -0.705799  -0.364367
N    -0.863879  0.033373  2.007257
C    -1.078203  -0.068256  3.434289
C    -2.411273  -0.810948  3.632165
O    -3.211873  -0.959333  2.708527
H    -1.679755  -0.182222  1.437280
H    -0.252190  -0.661055  3.861228
C    -1.074290  1.312186  4.136742
C    -2.194102  2.250441  3.690025
C    -2.098544  3.626788  4.366583
N    -3.129812  4.582194  3.991739
C    -4.480209  4.420798  4.272762
N    -4.766269  3.837915  5.508840
N    -5.342036  4.899925  3.440919
H    -0.090306  1.762429  3.938555
H    -1.125435  1.154086  5.227117
H    -3.178989  1.805110  3.903464
H    -2.152408  2.386654  2.598873
H    -1.130229  4.090091  4.126520
H    -2.088546  3.511752  5.464174
H    -3.024957  4.998035  3.070534
H    -5.682966  3.413024  5.571816
H    -4.040282  3.284247  5.949813
H    -6.293388  4.843609  3.812717
N    -2.641551  -1.248460  4.899895
C    -3.857204  -1.940514  5.287207
H    -1.902326  -1.141625  5.584366
H    -4.332100  -1.448676  6.146840
H    -3.657801  -2.990600  5.543521
H    -4.541210  -1.911079  4.432988
