35
Energy: -21190.3664044 eV PBE+vdW (tier 2 basis)
C    -0.148765  1.838521  0.594110
C    -0.680537  0.684492  1.428092
O    -1.039058  -0.377673  0.919479
H    0.925708  1.685484  0.417919
H    -0.284241  2.811953  1.079583
H    -0.650465  1.828727  -0.378996
N    -0.747046  0.922240  2.774118
C    -1.032249  -0.171622  3.699689
C    -2.247746  -1.058782  3.351832
O    -2.167915  -2.269441  3.548448
H    -0.214104  1.735827  3.116830
H    -0.198227  -0.892768  3.684453
C    -1.218250  0.312920  5.152522
C    -0.071474  1.181642  5.702067
C    -0.423280  2.681426  5.700516
N    0.719592  3.581777  5.752045
C    1.473180  3.782727  4.615652
N    2.625323  4.536014  4.846373
N    1.105261  3.268767  3.485094
H    -1.335155  -0.595635  5.757146
H    -2.171269  0.859403  5.242533
H    0.839608  1.026737  5.106310
H    0.176095  0.873318  6.728306
H    -1.076714  2.917617  6.552658
H    -0.983836  2.937623  4.792131
H    1.236051  3.607800  6.624984
H    2.528417  5.290170  5.520572
H    3.111224  4.830843  4.006946
H    1.694165  3.593855  2.716226
N    -3.443816  -0.489239  3.000956
C    -3.755515  0.870179  2.595395
H    -4.136328  -1.200434  2.786403
H    -3.275304  1.601924  3.253340
H    -4.840739  1.011162  2.672159
H    -3.448012  1.085669  1.559960
