35
Energy: -21190.2450927 eV PBE+vdW (tier 2 basis)
C    -0.580817  -0.349622  -1.885166
C    0.030201  -0.048246  -0.538116
O    1.219705  0.291288  -0.447206
H    0.211963  -0.751699  -2.524081
H    -0.922888  0.592493  -2.338575
H    -1.410516  -1.059706  -1.831089
N    -0.727522  -0.135580  0.597653
C    -2.166987  -0.235157  0.815525
C    -2.685074  -1.679067  0.626623
O    -2.225527  -2.455791  -0.205425
H    -0.195381  0.144908  1.415616
H    -2.286530  0.019806  1.877952
C    -3.064870  0.762414  0.033425
C    -3.133443  2.188151  0.612014
C    -2.171464  3.233593  0.028047
N    -0.760527  2.924489  0.166014
C    -0.108193  2.993784  1.379170
N    1.258715  2.731947  1.260390
N    -0.771601  3.288407  2.453318
H    -4.080596  0.339376  0.033876
H    -2.765923  0.776508  -1.022973
H    -2.988363  2.163465  1.701540
H    -4.148003  2.582867  0.445801
H    -2.397480  4.200057  0.509137
H    -2.364998  3.347091  -1.048662
H    -0.175264  3.018495  -0.653074
H    1.736537  2.664292  2.152283
H    1.489232  1.947947  0.636352
H    -0.164095  3.237843  3.274452
N    -3.732017  -2.043889  1.430724
C    -4.339388  -1.301498  2.524379
H    -4.055709  -2.990075  1.257213
H    -5.154804  -1.904481  2.937343
H    -4.770294  -0.345730  2.193571
H    -3.628559  -1.099655  3.340003
