35
Energy: -21189.8485694 eV PBE+vdW (tier 2 basis)
C    0.405987  -0.238078  1.461352
C    -0.337449  -0.511032  2.754438
O    0.163825  -1.180771  3.654170
H    0.478500  0.835703  1.246533
H    -0.094975  -0.727599  0.614924
H    1.412919  -0.650826  1.562079
N    -1.600407  0.010314  2.908358
C    -2.467885  0.752414  1.986409
C    -2.873289  -0.153146  0.784505
O    -3.549060  -1.149165  1.033916
H    -2.042408  -0.329841  3.756551
H    -3.425518  0.804248  2.524467
C    -2.038686  2.214198  1.772947
C    -3.184862  3.101490  1.278316
C    -2.720187  4.535029  0.992289
N    -3.782134  5.456523  0.617118
C    -4.615650  5.983847  1.591634
N    -5.666455  6.731469  1.037716
N    -4.401480  5.745563  2.839875
H    -1.166600  2.297508  1.110762
H    -1.703341  2.583896  2.753306
H    -3.971001  3.140869  2.046427
H    -3.651299  2.677676  0.373057
H    -1.969500  4.541224  0.186036
H    -2.244297  4.949175  1.890852
H    -4.237469  5.271131  -0.271015
H    -6.203162  7.250661  1.724199
H    -5.404498  7.314312  0.246332
H    -5.018733  6.301230  3.436004
N    -2.525313  0.108204  -0.517753
C    -1.708021  1.128567  -1.157608
H    -2.914488  -0.604327  -1.128658
H    -1.634825  0.872733  -2.220149
H    -2.149890  2.132036  -1.089017
H    -0.687051  1.163349  -0.758370
