35
Energy: -21190.2070412 eV PBE+vdW (tier 2 basis)
C    0.378269  -0.586603  0.145986
C    0.535388  -0.288727  1.627891
O    1.621110  -0.359146  2.196387
H    1.359700  -0.870534  -0.242049
H    0.017032  0.290147  -0.410118
H    -0.329437  -1.408117  -0.032520
N    -0.595540  0.081769  2.316683
C    -1.975098  0.101485  1.836826
C    -2.653361  1.321668  2.500971
O    -3.250893  1.215370  3.569217
H    -0.449143  0.205112  3.316397
H    -1.943151  0.249195  0.749063
C    -2.744800  -1.188757  2.142392
C    -4.069815  -1.287338  1.383000
C    -4.877956  -2.549518  1.734215
N    -5.486265  -2.556375  3.051950
C    -6.673811  -1.878712  3.314536
N    -6.997252  -1.894691  4.674070
N    -7.457555  -1.279377  2.485412
H    -2.918401  -1.224189  3.228260
H    -2.097680  -2.040778  1.881199
H    -3.870644  -1.295316  0.297838
H    -4.688862  -0.400325  1.587104
H    -4.230057  -3.436946  1.658616
H    -5.681388  -2.697031  0.998233
H    -4.843400  -2.588085  3.836966
H    -7.923347  -1.507136  4.828292
H    -6.874256  -2.793479  5.132503
H    -7.047319  -1.212400  1.551818
N    -2.519616  2.521777  1.865208
C    -1.719708  2.821919  0.688280
H    -2.915132  3.298985  2.385202
H    -2.062447  2.262164  -0.193813
H    -0.651015  2.615273  0.847794
H    -1.829186  3.887097  0.460356
