35
Energy: -21190.261976 eV PBE+vdW (tier 2 basis)
C    1.425408  0.348932  1.058641
C    0.721115  0.266038  2.394372
O    1.321018  0.398270  3.461515
H    0.745602  0.370386  0.197697
H    2.081672  -0.531409  0.985065
H    2.059381  1.242842  1.045093
N    -0.623762  0.019402  2.333256
C    -1.512882  -0.276843  3.454535
C    -0.836096  -0.143122  4.842323
O    -0.503547  -1.128370  5.501479
H    -1.022432  -0.111877  1.410236
H    -2.308837  0.488605  3.449199
C    -2.243119  -1.632266  3.275843
C    -1.491337  -2.855579  2.725754
C    -0.496095  -3.574856  3.657553
N    0.848891  -3.025243  3.709848
C    1.773044  -3.102452  2.687217
N    1.506457  -4.077521  1.714582
N    2.825414  -2.366247  2.536505
H    -3.079817  -1.436718  2.585279
H    -2.704864  -1.882606  4.242268
H    -0.973905  -2.608897  1.786155
H    -2.267260  -3.587159  2.448308
H    -0.444238  -4.632827  3.358814
H    -0.879062  -3.567293  4.685988
H    0.945662  -2.228741  4.334524
H    2.334307  -4.220738  1.142992
H    1.132436  -4.953804  2.067374
H    2.849437  -1.618706  3.235466
N    -0.832723  1.106444  5.398025
C    -0.874578  2.373649  4.687385
H    -0.344516  1.109827  6.290061
H    -1.085232  3.174510  5.405398
H    -1.681579  2.376558  3.944598
H    0.074077  2.589390  4.172805
