35
Energy: -21190.1866006 eV PBE+vdW (tier 2 basis)
C    -1.102440  -2.419708  0.257016
C    -0.351485  -1.503429  1.200675
O    0.831218  -1.688787  1.483619
H    -1.721352  -3.121866  0.833941
H    -0.363497  -2.994167  -0.307919
H    -1.773211  -1.892292  -0.430443
N    -1.035053  -0.462872  1.789672
C    -2.388060  0.048019  1.552931
C    -3.470741  -1.053448  1.653203
O    -4.253947  -1.281529  0.734726
H    -0.433398  0.089626  2.393281
H    -2.577259  0.732903  2.397440
C    -2.539311  0.865749  0.263602
C    -1.570729  2.045520  0.190926
C    -1.796312  2.893381  -1.067343
N    -0.902571  4.035238  -1.197352
C    -1.123863  5.185139  -0.460068
N    -0.086073  6.119340  -0.615053
N    -2.170597  5.304560  0.284118
H    -3.578165  1.223043  0.215040
H    -2.413490  0.205729  -0.607383
H    -0.530621  1.681731  0.201014
H    -1.697522  2.698193  1.068637
H    -2.820266  3.289068  -1.065929
H    -1.679452  2.273297  -1.969360
H    0.075161  3.816522  -1.359665
H    -0.295851  7.028391  -0.216915
H    0.275099  6.199890  -1.562619
H    -2.251770  6.253283  0.656689
N    -3.531616  -1.755862  2.824928
C    -2.734516  -1.606350  4.031571
H    -4.254959  -2.467962  2.818408
H    -2.591066  -0.548123  4.287645
H    -1.744879  -2.077480  3.946891
H    -3.274789  -2.072951  4.863069
