35
Energy: -21190.598662 eV PBE+vdW (tier 2 basis)
C    1.108568  -0.045406  1.085913
C    0.598104  -0.261614  2.494430
O    1.344417  -0.637279  3.408621
H    1.798259  0.808984  1.091855
H    0.314086  0.152718  0.356260
H    1.678582  -0.927505  0.772247
N    -0.723305  -0.009583  2.694638
C    -1.335620  -0.000922  4.023462
C    -1.764532  -1.434993  4.442075
O    -2.942706  -1.788040  4.491541
H    -1.291610  0.285352  1.908887
H    -0.537528  0.331513  4.702850
C    -2.507396  0.978383  4.055806
C    -2.940975  1.395102  5.466916
C    -1.912699  2.224171  6.254746
N    -1.530281  3.491530  5.626465
C    -0.557756  3.610415  4.635267
N    0.520052  2.740324  4.779688
N    -0.570405  4.428687  3.635743
H    -3.366331  0.511007  3.552260
H    -2.223945  1.871681  3.479520
H    -3.200855  0.502607  6.057019
H    -3.871569  1.979528  5.384084
H    -1.001542  1.639560  6.432086
H    -2.323206  2.451947  7.249692
H    -2.311208  4.121252  5.466790
H    1.256959  2.958163  4.116510
H    0.868621  2.617165  5.725598
H    -1.474306  4.903449  3.557034
N    -0.705125  -2.229601  4.745875
C    -0.850377  -3.637759  5.055721
H    0.222075  -1.842969  4.543178
H    -0.245315  -3.903142  5.932572
H    -0.542565  -4.274265  4.212005
H    -1.905922  -3.833271  5.272497
