35
Energy: -21190.5119393 eV PBE+vdW (tier 2 basis)
C    -0.010275  -1.497953  1.353678
C    -0.376660  -0.742843  2.615114
O    -0.070933  -1.198900  3.728245
H    -0.490147  -2.484133  1.387153
H    1.074021  -1.663727  1.346885
H    -0.301792  -0.991813  0.425830
N    -1.018263  0.436801  2.424077
C    -1.592904  1.406626  3.379310
C    -0.701849  2.013980  4.496238
O    -1.104294  3.059246  5.009884
H    -1.172148  0.682374  1.453387
H    -1.760210  2.296224  2.755525
C    -3.005686  1.024840  3.883968
C    -3.223116  -0.207367  4.774654
C    -2.659118  -0.140301  6.205880
N    -1.389381  -0.836123  6.300324
C    -0.540359  -0.663352  7.372018
N    0.723726  -1.231507  7.154176
N    -0.760074  -0.040643  8.482494
H    -3.635788  0.909255  2.988058
H    -3.376208  1.918556  4.407313
H    -2.858583  -1.122131  4.282443
H    -4.312887  -0.334694  4.846733
H    -3.378838  -0.601327  6.902520
H    -2.557676  0.917129  6.514254
H    -0.938266  -1.041063  5.407333
H    1.240372  -1.302375  8.025677
H    0.714101  -2.105507  6.635617
H    -1.671646  0.421662  8.476145
N    0.469255  1.421971  4.810218
C    1.298182  1.953345  5.883794
H    0.598686  0.448991  4.532054
H    2.236092  1.390621  5.905834
H    0.805000  1.857745  6.861415
H    1.507114  3.014075  5.701293
