35
Energy: -21190.5056695 eV PBE+vdW (tier 2 basis)
C    0.185088  -0.048076  -0.390073
C    -0.188361  -0.257487  1.065943
O    0.283120  -1.174162  1.736790
H    1.272538  0.078065  -0.460344
H    -0.306257  0.817232  -0.851532
H    -0.075931  -0.952795  -0.953150
N    -1.066705  0.659522  1.577671
C    -1.649825  0.521823  2.898687
C    -3.166904  0.710934  2.755681
O    -3.643428  1.450808  1.893609
H    -1.573054  1.283867  0.954097
H    -1.408044  -0.495907  3.243833
C    -1.089589  1.547863  3.907653
C    0.391309  1.344879  4.221982
C    0.949968  2.389260  5.193487
N    0.263480  2.413499  6.486067
C    0.667982  1.568422  7.505478
N    0.023050  1.858290  8.721603
N    1.564250  0.667621  7.296574
H    -1.671228  1.481160  4.840137
H    -1.264969  2.558253  3.501391
H    0.984006  1.392712  3.296270
H    0.557151  0.342210  4.640396
H    0.846835  3.394572  4.758963
H    2.020802  2.194209  5.353906
H    -0.051899  3.323860  6.798626
H    0.156889  1.145166  9.430533
H    -0.957214  2.114852  8.632451
H    1.696039  0.074306  8.118595
N    -3.917659  0.039391  3.671131
C    -5.361858  0.152289  3.747485
H    -3.438512  -0.580619  4.313237
H    -5.845445  -0.820985  3.586128
H    -5.679979  0.841565  2.958421
H    -5.680346  0.551186  4.720921
