35
Energy: -21190.3733036 eV PBE+vdW (tier 2 basis)
C    0.017006  0.673882  0.273803
C    -0.266569  0.803751  1.756161
O    0.603401  1.068833  2.581031
H    1.080008  0.867527  0.111078
H    -0.579415  1.382272  -0.317427
H    -0.227944  -0.333270  -0.092200
N    -1.574439  0.619062  2.156705
C    -2.713961  0.207577  1.343286
C    -3.218282  1.303630  0.375623
O    -3.701329  1.005442  -0.713589
H    -1.689929  0.626537  3.167093
H    -2.437204  -0.633281  0.689106
C    -3.837224  -0.253991  2.291822
C    -5.145163  -0.654900  1.610542
C    -6.165643  -1.272117  2.579461
N    -6.542157  -0.445609  3.719907
C    -7.358454  0.658852  3.565768
N    -7.492809  1.387763  4.762505
N    -7.876272  0.943252  2.420343
H    -4.033379  0.562849  3.007522
H    -3.439390  -1.102781  2.875020
H    -4.945448  -1.389262  0.815021
H    -5.606158  0.212453  1.121756
H    -5.780689  -2.219996  2.986272
H    -7.085191  -1.497484  2.024838
H    -5.871794  -0.384116  4.477442
H    -8.206638  2.107275  4.713793
H    -7.605370  0.813918  5.595385
H    -8.548117  1.710121  2.497369
N    -3.114462  2.575503  0.847491
C    -3.568677  3.731613  0.101036
H    -2.611829  2.706140  1.718882
H    -4.302984  4.309504  0.678683
H    -4.043973  3.366878  -0.815861
H    -2.730754  4.390217  -0.168959
