35
Energy: -21190.4919541 eV PBE+vdW (tier 2 basis)
C    0.310908  0.164717  0.067870
C    0.187483  0.187070  1.579528
O    1.166724  0.312825  2.314981
H    0.811488  1.084152  -0.259577
H    -0.650934  0.075343  -0.451300
H    0.953846  -0.676724  -0.219249
N    -1.088188  0.077651  2.061499
C    -1.370278  -0.088621  3.474032
C    -2.443666  -1.182723  3.596349
O    -3.244940  -1.395509  2.685058
H    -1.850928  -0.200386  1.446864
H    -0.429975  -0.404298  3.954010
C    -1.865432  1.209354  4.149462
C    -0.851457  2.351016  4.099535
C    -1.296310  3.581815  4.901912
N    -1.490301  3.328335  6.328925
C    -0.548240  3.576876  7.318303
N    0.761205  3.689715  6.856411
N    -0.781505  3.725600  8.579994
H    -2.102706  0.985790  5.201546
H    -2.808751  1.516582  3.668339
H    -0.676492  2.659074  3.057980
H    0.121837  1.988656  4.466451
H    -2.250711  3.953482  4.499246
H    -0.563232  4.391776  4.773932
H    -2.443867  3.348666  6.665269
H    1.413292  3.734000  7.633198
H    1.048170  3.035119  6.135060
H    -1.786013  3.768750  8.772514
N    -2.455742  -1.847234  4.782311
C    -3.443327  -2.857510  5.115222
H    -1.733267  -1.628989  5.458321
H    -4.024097  -2.567959  6.001895
H    -2.967395  -3.829664  5.302742
H    -4.119816  -2.952502  4.259809
