35
Energy: -21190.1795275 eV PBE+vdW (tier 2 basis)
C    -0.872884  2.158497  1.761402
C    -0.317431  0.792958  2.111647
O    0.760916  0.639496  2.682024
H    -0.118822  2.907593  2.014983
H    -1.794373  2.370821  2.321925
H    -1.122283  2.236002  0.694194
N    -1.078058  -0.297261  1.758442
C    -2.434802  -0.306061  1.234620
C    -3.539354  0.196487  2.195829
O    -4.455981  0.879240  1.739288
H    -0.662074  -1.181501  2.038203
H    -2.501856  0.405778  0.398388
C    -2.799193  -1.698225  0.693104
C    -1.983623  -2.111229  -0.534970
C    -2.363526  -3.504673  -1.030866
N    -1.574331  -3.876612  -2.195489
C    -1.475087  -5.209905  -2.562268
N    -0.826937  -5.367439  -3.798461
N    -1.970505  -6.137918  -1.818479
H    -3.869955  -1.685585  0.443446
H    -2.679010  -2.448438  1.493334
H    -0.906149  -2.093024  -0.313231
H    -2.147515  -1.367926  -1.334117
H    -3.447909  -3.555462  -1.243023
H    -2.169510  -4.264028  -0.262246
H    -1.630114  -3.233172  -2.979568
H    -0.592135  -6.330461  -4.013945
H    -0.033718  -4.747366  -3.944159
H    -1.713489  -7.065211  -2.165030
N    -3.495309  -0.125097  3.522546
C    -2.577187  -0.978433  4.265363
H    -4.277304  0.272023  4.033982
H    -2.417063  -1.942486  3.764850
H    -3.031478  -1.193670  5.238881
H    -1.601889  -0.503746  4.439086
