35
Energy: -21190.0985258 eV PBE+vdW (tier 2 basis)
C    -1.584819  -0.271914  0.090258
C    -1.558316  -0.387939  1.604671
O    -1.415040  0.588924  2.333529
H    -0.570516  -0.036623  -0.258840
H    -2.230668  0.568345  -0.188141
H    -1.929118  -1.179449  -0.421400
N    -1.714572  -1.660375  2.090368
C    -1.569039  -2.051481  3.494303
C    -2.113997  -1.004190  4.501698
O    -1.431926  -0.616879  5.445198
H    -1.766719  -2.414278  1.415297
H    -2.221120  -2.933398  3.623298
C    -0.137895  -2.490929  3.848357
C    0.958633  -1.463031  3.565257
C    2.328058  -1.965080  4.014381
N    3.344490  -0.953947  3.770331
C    4.683915  -1.281211  3.763275
N    5.532053  -0.178436  3.568644
N    5.059546  -2.514239  3.839052
H    0.074798  -3.419831  3.292970
H    -0.132679  -2.751934  4.916358
H    0.708872  -0.527122  4.085126
H    1.002818  -1.231826  2.490346
H    2.632362  -2.864620  3.462633
H    2.297452  -2.252721  5.081808
H    3.103253  -0.014581  4.066539
H    6.453819  -0.293605  3.974375
H    5.141372  0.738705  3.764759
H    6.070210  -2.593753  3.703726
N    -3.431958  -0.649413  4.398461
C    -4.387106  -0.936357  3.345815
H    -3.681888  0.069826  5.070109
H    -5.398796  -0.798555  3.745960
H    -4.305482  -1.978063  3.012871
H    -4.267502  -0.280301  2.468938
