35
Energy: -21190.0928705 eV PBE+vdW (tier 2 basis)
C    -0.054574  0.027273  0.183319
C    -0.009451  0.009314  1.693914
O    1.072988  -0.037442  2.292108
H    0.312340  1.001024  -0.172544
H    -1.037719  -0.190377  -0.238552
H    0.657423  -0.727848  -0.168534
N    -1.169594  0.060804  2.427348
C    -2.534845  0.431095  2.065379
C    -3.276551  -0.691118  1.304219
O    -2.701196  -1.550715  0.645489
H    -0.968246  0.043717  3.423233
H    -3.047743  0.540208  3.032914
C    -2.639916  1.800107  1.335905
C    -2.732971  3.025818  2.264429
C    -1.703892  3.136136  3.389804
N    -0.336961  3.160057  2.902085
C    0.701422  3.317425  3.813983
N    1.904414  2.776680  3.352685
N    0.490606  3.969129  4.908563
H    -3.521785  1.797667  0.678903
H    -1.785891  1.894972  0.653099
H    -3.727564  3.035249  2.738539
H    -2.680096  3.929973  1.639034
H    -1.852424  2.320013  4.127852
H    -1.874432  4.063073  3.951227
H    -0.126312  2.509055  2.155790
H    2.653480  2.824803  4.034769
H    1.828294  1.842136  2.940948
H    1.334336  3.991070  5.485551
N    -4.642829  -0.669291  1.399753
C    -5.494384  0.226591  2.165119
H    -5.088184  -1.401465  0.855860
H    -5.172457  0.302896  3.213316
H    -6.511296  -0.179406  2.165071
H    -5.537050  1.241418  1.741375
