35
Energy: -21190.6246809 eV PBE+vdW (tier 2 basis)
C    0.744464  -2.057125  0.911115
C    0.406593  -0.918643  1.848814
O    1.274156  -0.139885  2.268184
H    1.523838  -2.676763  1.370916
H    1.163731  -1.636462  -0.011701
H    -0.114488  -2.688888  0.655010
N    -0.901315  -0.805124  2.202730
C    -1.452873  0.291414  3.000440
C    -1.200770  0.136233  4.531947
O    -2.108770  0.238032  5.364419
H    -1.551051  -1.517210  1.889702
H    -0.900276  1.197548  2.701941
C    -2.940878  0.481501  2.696525
C    -3.795754  -0.801515  2.719649
C    -5.235054  -0.552707  3.210355
N    -5.326868  -0.350246  4.647791
C    -5.160688  -1.443784  5.509929
N    -4.489622  -1.105185  6.678016
N    -5.613633  -2.641329  5.342303
H    -3.042387  0.973613  1.718631
H    -3.314756  1.190035  3.447667
H    -3.358929  -1.559440  3.389119
H    -3.836135  -1.248169  1.712455
H    -5.873106  -1.403797  2.938213
H    -5.666805  0.325751  2.706984
H    -4.837340  0.477430  4.978791
H    -3.624814  -0.583294  6.528678
H    -4.372768  -1.913174  7.281634
H    -6.211364  -2.698537  4.513601
N    0.091242  -0.061547  4.861965
C    0.520046  -0.184965  6.243354
H    0.779974  -0.032232  4.101424
H    0.013424  -1.024683  6.737852
H    0.295889  0.726656  6.815496
H    1.600087  -0.361509  6.260052
