35
Energy: -21190.4243208 eV PBE+vdW (tier 2 basis)
C    -2.730195  0.916452  -0.397647
C    -1.904683  0.542396  0.817810
O    -0.700671  0.300338  0.744142
H    -2.628643  0.124294  -1.149415
H    -2.317435  1.835045  -0.833347
H    -3.793233  1.072349  -0.177471
N    -2.588863  0.519736  2.004232
C    -1.978305  0.049177  3.231163
C    -2.973306  -0.909415  3.903414
O    -4.188843  -0.759932  3.774768
H    -3.605809  0.547687  2.015720
H    -1.054122  -0.474643  2.939753
C    -1.623148  1.197195  4.204626
C    -0.677519  2.238915  3.606214
C    -0.287780  3.316473  4.631147
N    0.542233  4.397186  4.123847
C    1.838224  4.238948  3.651289
N    2.601209  3.272947  4.311549
N    2.257579  5.044786  2.735444
H    -1.171983  0.753246  5.108020
H    -2.559478  1.678725  4.531029
H    -1.156095  2.725165  2.743609
H    0.224368  1.748277  3.209368
H    0.207562  2.853632  5.502167
H    -1.196818  3.781139  5.041850
H    0.061049  5.095533  3.564636
H    2.103108  2.532314  4.793271
H    3.387008  2.927281  3.774145
H    3.255607  4.916946  2.551845
N    -2.408916  -1.882242  4.668949
C    -3.187066  -2.837828  5.435948
H    -1.399142  -1.962950  4.666103
H    -2.941784  -2.781174  6.505366
H    -3.015030  -3.864368  5.084098
H    -4.244080  -2.588627  5.297358
