35
Energy: -21189.9973798 eV PBE+vdW (tier 2 basis)
C    -1.298345  2.223409  -0.033129
C    -1.042444  2.132969  1.463003
O    -0.561419  3.077899  2.086128
H    -0.345333  2.425951  -0.537409
H    -1.955355  3.081107  -0.223626
H    -1.747875  1.324309  -0.472472
N    -1.407376  0.942833  2.031464
C    -1.221435  0.442587  3.400640
C    -2.491609  0.382656  4.283849
O    -2.584214  -0.546224  5.088166
H    -1.801594  0.260074  1.395287
H    -1.004535  -0.625853  3.266627
C    -0.021895  1.010309  4.198292
C    -0.269358  2.249037  5.063539
C    0.926077  2.601466  5.947088
N    1.177439  1.543764  6.928646
C    2.187536  1.608327  7.883971
N    3.297968  2.358721  7.501017
N    2.180951  1.054574  9.049732
H    0.798102  1.206493  3.493326
H    0.312794  0.191892  4.849978
H    -1.148505  2.089887  5.710910
H    -0.490135  3.110369  4.421840
H    0.748706  3.575348  6.437264
H    1.814848  2.728145  5.309635
H    0.329139  1.122851  7.297466
H    4.070291  2.209314  8.143099
H    3.573194  2.283118  6.526705
H    1.268593  0.641376  9.260957
N    -3.477782  1.318790  4.181561
C    -3.535524  2.574819  3.447971
H    -4.247028  1.114706  4.813068
H    -3.955519  2.448405  2.438330
H    -2.548327  3.039308  3.358967
H    -4.180121  3.267553  4.001703
