35
Energy: -21190.1007574 eV PBE+vdW (tier 2 basis)
C    -0.213671  0.313962  -0.102864
C    -0.181833  -0.290224  1.289945
O    0.719179  -1.032366  1.668492
H    -0.077092  -0.487228  -0.838764
H    0.636367  1.000519  -0.206497
H    -1.137716  0.859862  -0.331343
N    -1.236659  0.038420  2.099703
C    -1.306644  -0.358738  3.500074
C    -1.198854  -1.874186  3.782017
O    -0.580916  -2.242351  4.778042
H    -1.934449  0.687509  1.755210
H    -0.431980  0.045444  4.032498
C    -2.586706  0.226521  4.121826
C    -2.693065  0.039147  5.634456
C    -3.923320  0.731766  6.236071
N    -3.966861  2.178882  6.020920
C    -3.575053  3.128232  6.958771
N    -2.683608  2.656069  7.919421
N    -3.968159  4.356273  7.017581
H    -3.471617  -0.215664  3.631951
H    -2.604638  1.306819  3.900969
H    -1.774587  0.419730  6.109247
H    -2.732436  -1.029478  5.890505
H    -3.970739  0.523146  7.314631
H    -4.834348  0.302978  5.791304
H    -4.688253  2.514322  5.396006
H    -2.334871  3.419313  8.491014
H    -1.945415  2.041983  7.588948
H    -4.728892  4.539100  6.357417
N    -1.875675  -2.777235  3.008053
C    -2.594583  -2.608230  1.756831
H    -1.680495  -3.730307  3.299704
H    -1.923547  -2.489165  0.892239
H    -3.271810  -1.747582  1.793090
H    -3.209156  -3.501577  1.593964
