35
Energy: -21190.071737 eV PBE+vdW (tier 2 basis)
C    0.022728  -0.029229  0.483819
C    -0.272701  0.028387  1.968787
O    0.632567  0.118568  2.795947
H    0.934757  0.549323  0.308860
H    -0.779512  0.339835  -0.160870
H    0.228304  -1.072469  0.204149
N    -1.575377  -0.083142  2.405117
C    -2.857555  -0.110904  1.698405
C    -2.853951  -0.988478  0.426005
O    -3.223066  -0.557764  -0.665175
H    -1.627633  -0.011426  3.418032
H    -3.541647  -0.639839  2.386315
C    -3.483000  1.277058  1.463056
C    -2.642095  2.294136  0.693167
C    -3.387978  3.626322  0.537675
N    -2.615912  4.666886  -0.122145
C    -1.687689  5.406185  0.586874
N    -0.974061  6.319767  -0.201839
N    -1.599691  5.286317  1.868535
H    -3.721571  1.694627  2.454833
H    -4.442578  1.118215  0.947712
H    -2.398833  1.898454  -0.303327
H    -1.701372  2.493289  1.225978
H    -3.660046  4.018618  1.526453
H    -4.316162  3.478040  -0.035254
H    -2.430014  4.527613  -1.108540
H    -0.058972  6.555904  0.164265
H    -0.954829  6.148744  -1.202857
H    -0.952236  5.974147  2.258895
N    -2.472698  -2.292971  0.572641
C    -2.064940  -3.011299  1.769082
H    -2.493475  -2.805134  -0.303597
H    -2.210469  -4.083600  1.595071
H    -2.681761  -2.730421  2.632082
H    -1.011187  -2.838533  2.031879
