35
Energy: -21190.0968337 eV PBE+vdW (tier 2 basis)
C    -0.225342  -0.174881  -0.149478
C    0.043783  -0.043998  1.335625
O    1.189995  -0.046545  1.778693
H    -1.172320  0.252872  -0.489501
H    -0.221817  -1.241590  -0.415555
H    0.606831  0.301484  -0.676727
N    -1.016499  0.024815  2.215533
C    -2.464523  0.108809  2.020690
C    -3.005070  -0.802617  0.895088
O    -3.709088  -0.364983  -0.013438
H    -0.688690  0.119832  3.173369
H    -2.895130  -0.320024  2.943392
C    -3.010387  1.547225  1.928775
C    -2.423742  2.439063  0.834993
C    -3.067226  3.837402  0.799366
N    -2.941445  4.636205  2.007098
C    -1.758648  5.263375  2.372841
N    -1.839311  5.840555  3.648830
N    -0.660995  5.361903  1.706189
H    -2.830419  2.014897  2.910122
H    -4.101510  1.474111  1.800820
H    -2.589344  1.978033  -0.148376
H    -1.337675  2.539884  0.977718
H    -4.142061  3.738920  0.585667
H    -2.641989  4.415488  -0.034510
H    -3.542257  4.375726  2.781327
H    -1.008081  6.395892  3.833031
H    -2.689237  6.374570  3.814008
H    -0.675864  4.792135  0.857893
N    -2.714356  -2.134668  0.980560
C    -1.961688  -2.856403  1.993940
H    -3.098760  -2.667547  0.206639
H    -2.257543  -3.911062  1.958613
H    -2.189764  -2.483528  3.000428
H    -0.874220  -2.792349  1.843838
