35
Energy: -21190.0855735 eV PBE+vdW (tier 2 basis)
C    -1.400826  -0.041273  -0.190071
C    -0.673608  0.066344  1.139654
O    0.550344  0.089931  1.207505
H    -0.799216  -0.646304  -0.875458
H    -1.489781  0.968318  -0.615195
H    -2.407239  -0.471560  -0.108271
N    -1.511604  0.110848  2.232048
C    -1.170939  0.526381  3.587268
C    -1.238017  2.074442  3.693269
O    -1.201626  2.791725  2.699353
H    -2.492985  0.222768  2.002865
H    -1.981351  0.122738  4.214820
C    0.156980  -0.068665  4.130566
C    1.393743  0.826659  4.027882
C    2.663840  0.063657  4.392793
N    3.824494  0.933020  4.301737
C    5.073717  0.513113  4.743563
N    6.082209  1.431742  4.431376
N    5.375874  -0.571234  5.371628
H    0.335425  -1.007210  3.589737
H    -0.001819  -0.347271  5.183297
H    1.301667  1.700268  4.691759
H    1.476107  1.197865  2.997429
H    2.759230  -0.822348  3.735507
H    2.597741  -0.307930  5.428369
H    3.851587  1.508996  3.464266
H    6.955909  1.171805  4.879715
H    5.837389  2.403932  4.599202
H    4.584756  -1.217956  5.403295
N    -1.375977  2.607306  4.947204
C    -1.372008  1.935384  6.234833
H    -1.355212  3.622744  4.944984
H    -1.843687  2.591230  6.975235
H    -0.357687  1.691937  6.588961
H    -1.958689  1.008671  6.200544
