35
Energy: -21190.2013321 eV PBE+vdW (tier 2 basis)
C    0.092735  -0.132952  0.214892
C    0.010732  -0.031381  1.728347
O    1.017237  -0.000338  2.430600
H    1.149868  -0.090639  -0.059381
H    -0.439283  0.682299  -0.293238
H    -0.328577  -1.081001  -0.144502
N    -1.237853  0.018997  2.305160
C    -2.560419  0.002170  1.684621
C    -3.385406  1.142331  2.329210
O    -4.187909  0.921239  3.233377
H    -1.208647  0.044137  3.322540
H    -2.424170  0.212325  0.614776
C    -3.294651  -1.335215  1.847565
C    -2.607340  -2.512020  1.157980
C    -3.370766  -3.828385  1.377946
N    -2.775652  -4.998394  0.759272
C    -1.682806  -5.656341  1.314818
N    -1.179828  -6.648392  0.463074
N    -1.120042  -5.460767  2.456222
H    -4.316411  -1.209400  1.455814
H    -3.415510  -1.533646  2.922964
H    -1.578069  -2.627014  1.529436
H    -2.532355  -2.326017  0.072961
H    -4.397257  -3.731509  0.992586
H    -3.471794  -4.028794  2.455642
H    -2.804870  -5.020152  -0.255437
H    -0.468144  -7.194701  0.940522
H    -1.890537  -7.241020  0.041135
H    -1.480689  -4.628327  2.927210
N    -3.158927  2.410296  1.872958
C    -2.169086  2.861360  0.909463
H    -3.669050  3.115896  2.395333
H    -1.138762  2.735631  1.273702
H    -2.336515  3.926056  0.715975
H    -2.270683  2.337226  -0.051154
