35
Energy: -21190.282797 eV PBE+vdW (tier 2 basis)
C    -1.325542  0.421335  -0.201525
C    -0.787899  0.265928  1.210096
O    0.406185  0.120845  1.444343
H    -0.665587  1.094455  -0.759469
H    -2.354959  0.798195  -0.248168
H    -1.289541  -0.558602  -0.696579
N    -1.742135  0.319615  2.203286
C    -1.512998  -0.016708  3.613705
C    -0.260059  0.677456  4.210175
O    0.457932  0.110722  5.033612
H    -2.710381  0.358246  1.905951
H    -2.360244  0.440048  4.152731
C    -1.537201  -1.517983  3.932514
C    -0.399069  -2.353684  3.334047
C    -0.075513  -3.594057  4.191418
N    1.272961  -4.087214  3.999245
C    2.364873  -3.696898  4.754284
N    2.173066  -2.548625  5.517868
N    3.422472  -4.443490  4.726328
H    -2.520570  -1.915683  3.635357
H    -1.494927  -1.593844  5.029786
H    0.506904  -1.741955  3.262289
H    -0.627900  -2.659452  2.302661
H    -0.776373  -4.411919  3.970424
H    -0.222029  -3.340064  5.254871
H    1.412689  -4.991606  3.567552
H    1.549288  -1.813440  5.185309
H    3.023803  -2.178405  5.922826
H    4.187217  -4.017321  5.254318
N    -0.103642  1.980658  3.859697
C    1.078270  2.732839  4.240702
H    -0.639359  2.305364  3.062679
H    0.846204  3.803996  4.246870
H    1.917508  2.547247  3.552752
H    1.381867  2.423896  5.246027
