35
Energy: -21190.043358 eV PBE+vdW (tier 2 basis)
C    0.144142  -0.148848  0.322314
C    0.124561  0.320011  1.761884
O    1.156043  0.588039  2.374159
H    -0.640045  0.300437  -0.297058
H    0.003708  -1.238297  0.279010
H    1.127986  0.089644  -0.090300
N    -1.088734  0.411006  2.411418
C    -2.457649  0.221058  1.927256
C    -2.641164  -1.129389  1.188829
O    -3.018137  -1.184637  0.020108
H    -0.980804  0.745329  3.364576
H    -3.070466  0.153522  2.842227
C    -2.991398  1.399182  1.098214
C    -4.518806  1.450210  1.028475
C    -5.018871  2.612086  0.172184
N    -6.470346  2.655550  0.175518
C    -7.233374  3.605929  -0.481783
N    -6.591988  4.829058  -0.701029
N    -8.465820  3.327723  -0.746942
H    -2.576959  1.340890  0.081988
H    -2.605772  2.321612  1.557842
H    -4.941407  1.551234  2.041497
H    -4.897077  0.506348  0.607620
H    -4.600730  2.509251  -0.850077
H    -4.629398  3.554138  0.593382
H    -6.946227  1.758353  0.184056
H    -7.060321  5.419320  -1.378241
H    -5.586614  4.807456  -0.838307
H    -8.948334  4.125116  -1.167170
N    -2.375741  -2.262880  1.902138
C    -1.926127  -2.398053  3.278420
H    -2.492611  -3.110083  1.355078
H    -2.123639  -3.424267  3.607328
H    -2.481739  -1.727887  3.947812
H    -0.852772  -2.191214  3.394818
