35
Energy: -21190.5615562 eV PBE+vdW (tier 2 basis)
C    -0.203746  0.947823  0.158313
C    0.104892  0.098671  1.373877
O    1.265900  -0.113317  1.745322
H    0.697317  1.505162  -0.111255
H    -1.033813  1.644340  0.334392
H    -0.479773  0.308981  -0.693623
N    -0.946649  -0.418102  2.080996
C    -2.314653  -0.648429  1.625077
C    -3.378154  0.221732  2.329515
O    -4.567592  0.105748  2.036980
H    -0.637607  -1.106394  2.788104
H    -2.388837  -0.380096  0.561695
C    -2.666185  -2.151739  1.737797
C    -2.959339  -2.745452  3.134654
C    -2.025659  -2.426908  4.313427
N    -0.608412  -2.520537  3.970454
C    0.357560  -2.028873  4.859062
N    1.633230  -2.075937  4.289320
N    0.001328  -1.600408  6.019404
H    -1.843660  -2.700902  1.254996
H    -3.558511  -2.327055  1.122930
H    -3.016203  -3.837997  3.003410
H    -3.966850  -2.434663  3.446727
H    -2.283387  -3.081253  5.162386
H    -2.187991  -1.403181  4.675853
H    -0.315287  -3.352496  3.464805
H    2.352657  -1.693209  4.895034
H    1.679209  -1.654335  3.354558
H    0.783795  -1.139615  6.491816
N    -2.892650  1.085498  3.257373
C    -3.740661  1.955591  4.045514
H    -1.888863  1.066405  3.411726
H    -4.775125  1.791519  3.724302
H    -3.480963  3.011879  3.889754
H    -3.656643  1.725180  5.116892
