35
Energy: -21190.5305894 eV PBE+vdW (tier 2 basis)
C    -1.740754  -2.000705  2.927728
C    -0.419157  -1.476269  2.408055
O    0.460745  -2.235594  1.980804
H    -1.545633  -2.707706  3.743351
H    -2.236568  -2.558403  2.123344
H    -2.417524  -1.215790  3.286336
N    -0.260441  -0.125713  2.438709
C    0.914717  0.571773  1.912319
C    2.106923  0.574494  2.915952
O    2.598022  1.618929  3.349520
H    -0.976217  0.438612  2.882248
H    1.243361  -0.008730  1.035714
C    0.543707  1.990006  1.475924
C    -0.098431  2.863420  2.575921
C    0.606463  4.218552  2.730224
N    0.096423  4.986976  3.854466
C    0.534906  4.731783  5.154817
N    0.009443  5.657749  6.069195
N    1.322745  3.804823  5.566688
H    -0.122604  1.916777  0.605001
H    1.469655  2.465878  1.123877
H    -0.044587  2.359999  3.552352
H    -1.164308  3.040402  2.369756
H    0.459283  4.821508  1.823051
H    1.690360  4.036935  2.828397
H    -0.101212  5.964159  3.669298
H    0.237145  5.381024  7.020064
H    -0.983947  5.842913  5.955351
H    1.753838  3.272063  4.805047
N    2.549166  -0.667115  3.226864
C    3.626746  -0.903720  4.167358
H    2.064728  -1.455815  2.786488
H    3.295245  -1.559424  4.984201
H    3.934908  0.060667  4.584266
H    4.490854  -1.369457  3.672312
