35
Energy: -21190.1412426 eV PBE+vdW (tier 2 basis)
C    -2.490721  0.794131  -0.491387
C    -1.993973  1.097074  0.911402
O    -1.228680  2.025239  1.151680
H    -2.954332  1.698608  -0.903097
H    -3.212838  -0.030669  -0.540070
H    -1.627756  0.551055  -1.124105
N    -2.473586  0.266275  1.894856
C    -1.952826  0.329797  3.265152
C    -2.074289  -1.040532  3.949879
O    -1.076514  -1.602410  4.396716
H    -2.945154  -0.582236  1.604608
H    -0.870694  0.500034  3.190837
C    -2.568022  1.490397  4.084800
C    -2.221736  1.471168  5.577241
C    -0.726972  1.652202  5.869401
N    -0.444139  1.684064  7.301382
C    -0.562413  2.863223  8.013146
N    -0.071080  2.745580  9.325904
N    -1.046098  3.921887  7.458564
H    -3.659428  1.485387  3.962253
H    -2.212091  2.424145  3.626939
H    -2.563656  0.533470  6.045634
H    -2.763112  2.289776  6.070638
H    -0.376354  2.585286  5.400075
H    -0.150965  0.816992  5.450962
H    0.298649  1.070811  7.614356
H    -0.326418  3.525046  9.922842
H    -0.272181  1.854849  9.774308
H    -1.139739  4.683847  8.133698
N    -3.305138  -1.649685  4.024941
C    -4.634727  -1.066251  3.900909
H    -3.246291  -2.530305  4.530399
H    -4.671027  -0.336089  3.086211
H    -4.960857  -0.564013  4.825517
H    -5.350567  -1.863715  3.667844
