35
Energy: -21190.0787232 eV PBE+vdW (tier 2 basis)
C    -0.077940  1.057355  0.224176
C    -0.179305  0.312430  1.534429
O    0.717443  -0.425185  1.944199
H    0.744226  1.788019  0.305643
H    -1.001638  1.579058  -0.058753
H    0.189630  0.343583  -0.563908
N    -1.322479  0.547574  2.262726
C    -1.580236  -0.113877  3.537500
C    -2.965119  -0.783511  3.623559
O    -3.060097  -1.947741  4.001655
H    -1.989377  1.205231  1.882171
H    -0.876543  -0.955893  3.552849
C    -1.301461  0.731544  4.803203
C    0.144084  1.244558  4.901843
C    0.401110  2.561858  4.141098
N    1.602069  2.468146  3.309246
C    1.986367  3.509464  2.478331
N    1.856623  4.778039  3.051683
N    2.387065  3.247608  1.277915
H    -1.517331  0.074486  5.658418
H    -2.006635  1.575046  4.883173
H    0.402421  1.380178  5.960583
H    0.822822  0.467751  4.522994
H    0.516490  3.385317  4.859644
H    -0.481228  2.817326  3.525027
H    1.689582  1.576114  2.821513
H    2.052151  4.831241  4.047730
H    2.315230  5.515457  2.528560
H    2.779273  4.077696  0.824892
N    -4.094222  -0.058474  3.331824
C    -4.243370  1.312726  2.881770
H    -4.937889  -0.618563  3.410294
H    -4.177422  1.415726  1.784653
H    -3.498471  1.970546  3.346163
H    -5.228409  1.683679  3.188797
