35
Energy: -21190.206733 eV PBE+vdW (tier 2 basis)
C    -0.086036  0.130420  0.550764
C    -0.197300  -0.262107  2.016478
O    0.635238  -0.992697  2.549073
H    0.823813  -0.328137  0.155248
H    -0.017017  1.220295  0.423657
H    -0.946379  -0.218608  -0.036173
N    -1.268702  0.214267  2.725309
C    -2.325053  1.107650  2.292782
C    -2.469456  2.210294  3.360347
O    -2.281372  1.956287  4.548211
H    -1.245723  0.024624  3.726817
H    -2.036742  1.543150  1.327712
C    -3.702024  0.415271  2.134382
C    -3.778572  -0.686909  1.067372
C    -3.285696  -2.072685  1.529513
N    -3.501886  -3.133177  0.562939
C    -4.749324  -3.698482  0.337601
N    -4.748513  -4.566836  -0.761729
N    -5.843927  -3.514860  0.993359
H    -4.442922  1.194716  1.897939
H    -3.995213  0.013119  3.117491
H    -3.222986  -0.382598  0.165226
H    -4.825926  -0.790616  0.747961
H    -3.796569  -2.351104  2.464583
H    -2.216100  -2.054736  1.769817
H    -2.878597  -3.136208  -0.237705
H    -5.629713  -5.070658  -0.811973
H    -3.952409  -5.198787  -0.798203
H    -5.750332  -2.775906  1.693402
N    -2.862002  3.446469  2.939088
C    -3.057082  3.906481  1.573373
H    -2.975029  4.116192  3.693674
H    -3.841206  3.339895  1.050698
H    -2.131541  3.857443  0.980498
H    -3.374354  4.953775  1.605414
