35
Energy: -21190.3359073 eV PBE+vdW (tier 2 basis)
C    0.224231  0.489498  0.625125
C    -0.468750  -0.540485  1.495271
O    -0.926222  -1.585586  1.031963
H    0.656847  1.324906  1.188943
H    -0.501582  0.884783  -0.097060
H    1.016758  -0.008169  0.053656
N    -0.531305  -0.233752  2.829269
C    -1.274110  -1.058390  3.772726
C    -2.646328  -0.396027  4.016551
O    -2.715355  0.698971  4.577013
H    -0.305881  0.710602  3.125270
H    -1.381142  -2.032610  3.282288
C    -0.513946  -1.220915  5.092906
C    -1.224872  -2.141074  6.086086
C    -0.442729  -2.345047  7.389506
N    -0.260512  -1.111945  8.149179
C    0.956087  -0.663195  8.635566
N    2.049225  -0.946934  7.805271
N    0.986452  -0.062611  9.777364
H    -0.378612  -0.229535  5.552393
H    0.482689  -1.624290  4.849598
H    -2.218474  -1.729514  6.324953
H    -1.395549  -3.130528  5.630005
H    0.549502  -2.763478  7.172686
H    -0.963960  -3.091883  8.011657
H    -1.001335  -0.880970  8.804078
H    2.905899  -0.491477  8.099323
H    1.881457  -0.838274  6.808404
H    1.902024  0.358281  9.954368
N    -3.751291  -1.054391  3.573786
C    -3.822780  -2.322976  2.857588
H    -4.618677  -0.562073  3.766015
H    -4.818469  -2.407053  2.408757
H    -3.679370  -3.186066  3.525824
H    -3.081976  -2.364065  2.048765
