35
Energy: -21190.5891426 eV PBE+vdW (tier 2 basis)
C    0.856564  -2.127739  1.227358
C    0.823555  -0.914759  2.134568
O    1.863276  -0.323072  2.453843
H    0.942272  -3.040938  1.833631
H    1.747284  -2.054534  0.596240
H    -0.034007  -2.223022  0.593500
N    -0.387406  -0.481518  2.581770
C    -1.660862  -1.173566  2.552154
C    -2.719872  -0.138256  2.981552
O    -2.417419  0.854753  3.642016
H    -0.378892  0.346781  3.179031
H    -1.886944  -1.494600  1.521681
C    -1.714367  -2.424692  3.471825
C    -1.435766  -2.155517  4.965608
C    -0.198661  -2.891556  5.493403
N    1.019764  -2.450577  4.843968
C    1.978754  -3.330336  4.381159
N    3.137860  -2.674875  3.958996
N    1.754321  -4.605655  4.384303
H    -0.984462  -3.150879  3.088388
H    -2.700309  -2.896559  3.344627
H    -2.300714  -2.463174  5.570849
H    -1.322770  -1.075364  5.146853
H    -0.270217  -3.970721  5.304510
H    -0.130800  -2.761139  6.587624
H    1.340513  -1.508753  5.036820
H    3.774874  -3.271813  3.443574
H    2.981923  -1.779414  3.485749
H    2.527794  -5.109048  3.945064
N    -3.993754  -0.434112  2.608636
C    -5.137567  0.371896  2.995437
H    -4.150009  -1.266302  2.052452
H    -5.678767  0.737323  2.112364
H    -4.760847  1.229377  3.562022
H    -5.831145  -0.198235  3.629129
