35
Energy: -21190.5045786 eV PBE+vdW (tier 2 basis)
C    -3.041161  -1.929181  0.702576
C    -2.443409  -1.229629  1.907996
O    -1.838007  -0.161184  1.815913
H    -3.820944  -1.285820  0.275361
H    -3.476648  -2.909187  0.932827
H    -2.260959  -2.049146  -0.058530
N    -2.630316  -1.861636  3.104183
C    -2.118267  -1.320463  4.347558
C    -1.710909  -2.511693  5.223892
O    -2.401842  -3.529770  5.274969
H    -3.098123  -2.761043  3.166676
H    -1.248281  -0.697459  4.086723
C    -3.169378  -0.434470  5.054822
C    -2.627334  0.344070  6.253397
C    -3.637214  1.311579  6.892964
N    -4.137868  2.354287  6.018155
C    -5.342253  2.278045  5.327900
N    -5.521853  3.373780  4.475590
N    -6.250504  1.365722  5.375528
H    -4.013982  -1.073183  5.356337
H    -3.550743  0.264398  4.297734
H    -1.737770  0.919790  5.941196
H    -2.285041  -0.344260  7.042970
H    -3.167193  1.786056  7.768921
H    -4.503470  0.755942  7.279790
H    -3.434878  2.940474  5.579071
H    -5.294429  4.275493  4.886467
H    -6.454638  3.362314  4.073368
H    -5.951252  0.551500  5.915371
N    -0.568173  -2.339063  5.943147
C    -0.059385  -3.332769  6.870094
H    -0.045553  -1.482906  5.802779
H    0.014232  -2.925548  7.888067
H    0.929731  -3.696636  6.559686
H    -0.762185  -4.172404  6.870503
