35
Energy: -21190.5161965 eV PBE+vdW (tier 2 basis)
C    -0.024375  -0.038048  -0.036048
C    -0.044072  -0.198780  1.469197
O    0.986790  -0.418218  2.116205
H    0.644751  0.793425  -0.290302
H    -1.011857  0.153177  -0.473444
H    0.397758  -0.945792  -0.484520
N    -1.262973  -0.080383  2.067174
C    -1.452352  -0.175461  3.515629
C    -1.574633  -1.662421  3.952720
O    -2.645494  -2.160024  4.297904
H    -2.090056  -0.002745  1.485781
H    -0.535883  0.236974  3.965330
C    -2.666036  0.628190  3.967653
C    -2.562130  2.133710  3.728246
C    -3.779150  2.902130  4.260820
N    -3.924069  2.831821  5.714269
C    -5.036313  2.324127  6.380445
N    -5.704868  1.307335  5.697865
N    -5.478811  2.706275  7.531098
H    -2.797410  0.437453  5.042315
H    -3.565312  0.218689  3.477271
H    -2.460809  2.353312  2.653186
H    -1.649096  2.524241  4.207094
H    -4.701734  2.509806  3.811339
H    -3.705045  3.958055  3.954581
H    -3.463413  3.571925  6.230819
H    -6.435312  0.915894  6.285401
H    -5.113129  0.586504  5.292535
H    -5.003911  3.555661  7.849922
N    -0.390263  -2.325960  3.904111
C    -0.277868  -3.745665  4.175044
H    0.401727  -1.819805  3.500719
H    0.550215  -3.941399  4.868823
H    -0.107730  -4.322043  3.253161
H    -1.215910  -4.080840  4.629783
