35
Energy: -21190.0613437 eV PBE+vdW (tier 2 basis)
C    -0.648728  -1.535334  -0.543059
C    -1.090063  -2.098728  0.786251
O    -0.951818  -3.289944  1.059487
H    -0.312591  -2.371943  -1.161069
H    0.186176  -0.834050  -0.413412
H    -1.476770  -1.013497  -1.036305
N    -1.622798  -1.262782  1.750677
C    -2.106285  0.119878  1.792891
C    -3.417649  0.309374  1.016276
O    -3.558992  -0.124303  -0.135006
H    -1.889908  -1.816912  2.559505
H    -2.329219  0.256418  2.858333
C    -1.060524  1.235091  1.479930
C    -0.869334  1.813205  0.059398
C    -1.680132  3.064847  -0.298322
N    -3.048120  2.770493  -0.703369
C    -4.111527  3.511417  -0.258222
N    -5.357613  2.940983  -0.612606
N    -3.946113  4.572632  0.460371
H    -1.287931  2.078730  2.149761
H    -0.102341  0.828192  1.833111
H    -1.025218  1.049309  -0.712242
H    0.189941  2.097608  -0.026288
H    -1.163268  3.593280  -1.117014
H    -1.727963  3.768308  0.545290
H    -3.243085  1.806419  -0.965978
H    -6.114230  3.618257  -0.607199
H    -5.346476  2.421458  -1.488860
H    -4.840760  5.020694  0.669039
N    -4.411797  1.001123  1.634190
C    -4.331922  1.783333  2.860793
H    -5.157144  1.269951  0.988587
H    -5.345927  2.101011  3.126479
H    -3.716048  2.688059  2.743765
H    -3.950781  1.183069  3.696405
