35
Energy: -21189.8502744 eV PBE+vdW (tier 2 basis)
C    -0.089239  0.377938  -0.059419
C    0.048794  0.134838  1.430183
O    1.150354  0.065393  1.969170
H    0.915970  0.501636  -0.470117
H    -0.674812  1.280867  -0.275325
H    -0.574188  -0.474627  -0.552718
N    -1.091170  -0.004790  2.190905
C    -2.512382  -0.087207  1.830268
C    -2.801324  -1.426165  1.081639
O    -2.723598  -2.455260  1.752208
H    -0.864056  -0.289452  3.138854
H    -3.003537  -0.300150  2.790148
C    -3.107682  1.250255  1.359522
C    -4.636921  1.250858  1.357975
C    -5.225195  2.599218  0.919144
N    -6.650617  2.525978  0.652944
C    -7.141463  2.072947  -0.565592
N    -8.535461  2.074999  -0.611417
N    -6.467524  1.687010  -1.596383
H    -2.731616  1.551133  0.373370
H    -2.735876  2.012589  2.062261
H    -5.015139  1.005047  2.362462
H    -5.025471  0.468364  0.691084
H    -4.682057  2.973096  0.030629
H    -5.069336  3.351763  1.704044
H    -7.244622  3.185134  1.141934
H    -8.876190  1.647297  -1.467159
H    -8.995517  1.711208  0.218301
H    -5.472526  1.898764  -1.489421
N    -3.087157  -1.517759  -0.255239
C    -3.368201  -0.542742  -1.300366
H    -3.255601  -2.489723  -0.503383
H    -3.167668  -1.016705  -2.268348
H    -2.713098  0.328753  -1.229514
H    -4.416527  -0.207628  -1.301587
