35
Energy: -21190.3079864 eV PBE+vdW (tier 2 basis)
C    0.314681  0.859825  0.763250
C    0.206236  -0.020113  1.993100
O    1.190046  -0.358470  2.647325
H    1.375787  1.069277  0.602350
H    -0.208569  1.816292  0.913831
H    -0.100734  0.384711  -0.139664
N    -1.049100  -0.455208  2.355535
C    -2.325794  -0.047185  1.809277
C    -3.117762  0.739698  2.868872
O    -3.062310  0.434164  4.057907
H    -1.083430  -0.898227  3.272143
H    -2.128646  0.581626  0.934004
C    -3.173875  -1.270557  1.380054
C    -2.626906  -1.987825  0.143160
C    -3.018870  -1.289935  -1.167114
N    -2.435522  -1.883368  -2.356833
C    -1.198250  -1.482072  -2.816554
N    -0.735831  -2.218200  -3.912077
N    -0.613013  -0.452734  -2.299103
H    -4.213889  -0.948788  1.201205
H    -3.216228  -1.954644  2.239859
H    -3.004974  -3.022277  0.124422
H    -1.530685  -2.055148  0.207666
H    -2.689333  -0.242634  -1.160919
H    -4.114843  -1.293974  -1.279533
H    -2.735440  -2.821427  -2.592907
H    -1.113626  -3.152934  -4.034631
H    0.269829  -2.193334  -4.035004
H    0.247556  -0.226785  -2.801591
N    -3.918044  1.750971  2.418280
C    -4.052806  2.238809  1.054626
H    -4.447903  2.212023  3.151177
H    -4.769818  3.066332  1.054069
H    -4.435864  1.467410  0.370061
H    -3.103016  2.621551  0.652707
