35
Energy: -21190.1471583 eV PBE+vdW (tier 2 basis)
C    -1.403178  0.085627  -0.419972
C    -0.703618  0.515193  0.852685
O    0.227560  1.319147  0.844508
H    -1.054137  -0.912737  -0.720198
H    -1.133615  0.797436  -1.204731
H    -2.493272  0.027112  -0.323540
N    -1.098878  -0.052289  2.044102
C    -2.235283  -0.925293  2.355057
C    -2.276981  -2.190459  1.462805
O    -3.262421  -2.479541  0.789642
H    -0.558838  0.303223  2.827149
H    -2.034373  -1.287377  3.378540
C    -3.589830  -0.205831  2.369513
C    -3.653028  0.941226  3.378845
C    -4.914404  1.795552  3.232687
N    -4.915922  2.519114  1.968934
C    -6.108302  2.864476  1.355205
N    -5.901979  3.691341  0.237950
N    -7.238797  2.464607  1.826690
H    -4.371350  -0.947664  2.585190
H    -3.815245  0.175972  1.364772
H    -2.766866  1.589594  3.271152
H    -3.619586  0.546413  4.407514
H    -5.004349  2.487254  4.088867
H    -5.821081  1.177297  3.237382
H    -4.170761  3.199396  1.853518
H    -6.732823  3.820614  -0.329406
H    -5.095484  3.444453  -0.331004
H    -8.006856  2.703705  1.195336
N    -1.166006  -2.988619  1.468188
C    0.069004  -2.847088  2.222015
H    -1.257472  -3.791116  0.853373
H    -0.127832  -2.552197  3.261511
H    0.754456  -2.110767  1.778721
H    0.571146  -3.820770  2.249180
