35
Energy: -21190.3140632 eV PBE+vdW (tier 2 basis)
C    -1.134219  0.517041  -0.021941
C    -0.378554  0.282421  1.274109
O    0.843592  0.362387  1.349896
H    -0.816920  -0.236077  -0.754288
H    -0.851349  1.498748  -0.420827
H    -2.225588  0.472452  0.082123
N    -1.154105  -0.014875  2.363404
C    -0.589008  -0.338591  3.672340
C    0.378195  0.762929  4.180537
O    1.451631  0.481557  4.721311
H    -2.154588  -0.107746  2.241090
H    -1.444571  -0.316706  4.368137
C    0.055066  -1.747884  3.715603
C    -0.465073  -2.674762  4.825302
C    0.118846  -2.436670  6.230781
N    -0.025103  -1.091665  6.767031
C    -1.256518  -0.563249  7.103223
N    -1.233406  0.834298  7.230332
N    -2.381546  -1.175369  7.277120
H    1.144770  -1.631586  3.784564
H    -0.152048  -2.220287  2.746974
H    -0.224263  -3.714989  4.554931
H    -1.565264  -2.621469  4.862708
H    1.197425  -2.646850  6.213611
H    -0.323691  -3.154676  6.939021
H    0.643381  -0.430571  6.368987
H    -2.053859  1.158477  7.734565
H    -0.372351  1.209606  7.619291
H    -2.297139  -2.173681  7.075997
N    -0.026141  2.058341  4.087346
C    -1.339873  2.593874  3.778102
H    0.664756  2.700950  4.459977
H    -1.421089  3.586778  4.235123
H    -2.133858  1.971618  4.211898
H    -1.512738  2.696251  2.697288
