35
Energy: -21190.3468954 eV PBE+vdW (tier 2 basis)
C    -0.653115  -1.552606  0.081943
C    -0.065911  -0.856122  1.299716
O    1.063766  -1.109998  1.711840
H    0.080263  -2.282322  -0.270562
H    -0.862065  -0.839675  -0.728584
H    -1.592639  -2.071817  0.317135
N    -0.847276  0.086549  1.916289
C    -2.233388  0.435543  1.623558
C    -2.335672  1.948878  1.892340
O    -2.168115  2.381982  3.034083
H    -0.441288  0.511376  2.747832
H    -2.423901  0.218209  0.566287
C    -3.233244  -0.367917  2.481502
C    -4.681790  -0.347170  1.978436
C    -5.430746  0.975715  2.197129
N    -6.805516  0.955366  1.715450
C    -7.087458  1.111125  0.373489
N    -8.445403  0.908765  0.087980
N    -6.155626  1.384229  -0.480465
H    -3.167244  -0.004756  3.518930
H    -2.877133  -1.408310  2.490457
H    -5.237546  -1.148071  2.492185
H    -4.708650  -0.588933  0.904536
H    -4.933339  1.802183  1.678393
H    -5.448205  1.230161  3.266899
H    -7.442720  0.344390  2.215959
H    -8.711352  1.173161  -0.854249
H    -9.090070  1.281539  0.780491
H    -6.554323  1.584534  -1.400454
N    -2.570798  2.769565  0.834762
C    -2.825700  2.405978  -0.555574
H    -2.602718  3.752471  1.087345
H    -1.992270  1.829058  -0.980981
H    -2.909483  3.332748  -1.133431
H    -3.771859  1.854588  -0.666732
