35
Energy: -21190.6266006 eV PBE+vdW (tier 2 basis)
C    -2.703187  -0.767151  -0.311262
C    -1.608819  -0.744664  0.734793
O    -0.513564  -1.272389  0.568726
H    -2.287523  -1.209690  -1.220024
H    -3.089349  0.237248  -0.532268
H    -3.565641  -1.368643  0.014814
N    -1.877292  -0.072006  1.916581
C    -3.153730  0.469406  2.352710
C    -3.270084  2.004285  2.253831
O    -4.317602  2.571668  2.591088
H    -1.147707  -0.195565  2.615538
H    -3.902758  0.116816  1.634196
C    -3.550797  -0.031891  3.766530
C    -4.626261  -1.127215  3.758510
C    -6.061608  -0.582977  3.592664
N    -6.285494  0.291250  2.450076
C    -6.270587  -0.201084  1.154632
N    -6.065034  0.797577  0.198109
N    -6.375340  -1.425020  0.751585
H    -3.899176  0.821416  4.365919
H    -2.643197  -0.409368  4.259925
H    -4.594562  -1.681614  4.708963
H    -4.398137  -1.859499  2.968518
H    -6.328757  -0.001231  4.486879
H    -6.774900  -1.419903  3.550219
H    -5.854019  1.215649  2.553022
H    -6.338470  0.488044  -0.729171
H    -6.423961  1.717041  0.436570
H    -6.440037  -2.074200  1.537876
N    -2.189741  2.645842  1.757927
C    -2.147720  4.076386  1.528933
H    -1.406187  2.059530  1.485197
H    -2.078912  4.305941  0.456253
H    -1.289903  4.529245  2.043521
H    -3.073295  4.506714  1.925647
