35
Energy: -21189.8664325 eV PBE+vdW (tier 2 basis)
C    0.515517  0.542414  1.334407
C    0.092966  0.165087  2.740691
O    0.880598  0.199086  3.683522
H    0.019647  1.466903  1.008846
H    0.278870  -0.248309  0.610415
H    1.595600  0.709140  1.343804
N    -1.215421  -0.200514  2.951724
C    -2.320743  -0.373607  2.006080
C    -2.020706  -1.574374  1.056074
O    -1.797758  -2.662878  1.582092
H    -1.362597  -0.551409  3.892226
H    -3.123195  -0.805975  2.622804
C    -2.895261  0.943024  1.454808
C    -3.355932  1.930995  2.540538
C    -2.254711  2.886003  3.033673
N    -2.738408  3.951906  3.897030
C    -3.404777  5.041428  3.370121
N    -3.903068  5.894171  4.369335
N    -3.540113  5.179487  2.093938
H    -3.760645  0.681217  0.828638
H    -2.185358  1.456200  0.792627
H    -3.784844  1.382253  3.396027
H    -4.157765  2.556258  2.125530
H    -1.789084  3.370579  2.164577
H    -1.471409  2.345644  3.579338
H    -3.017097  3.682194  4.834028
H    -4.251603  6.776874  4.011111
H    -3.277895  6.033410  5.159762
H    -3.943058  6.090309  1.863127
N    -2.030544  -1.477483  -0.311132
C    -2.159252  -0.359469  -1.235727
H    -1.855507  -2.388058  -0.726539
H    -1.447957  0.447075  -1.019237
H    -3.173462  0.061544  -1.255976
H    -1.933887  -0.734941  -2.239658
