35
Energy: -21190.5296425 eV PBE+vdW (tier 2 basis)
C    1.014147  -0.806171  0.138384
C    0.527740  -0.751675  1.574274
O    1.274183  -0.960860  2.530658
H    1.808076  -0.060375  0.006410
H    0.225153  -0.622435  -0.600955
H    1.458529  -1.792094  -0.045126
N    -0.792256  -0.438192  1.733739
C    -1.432539  -0.454407  3.031086
C    -2.922916  -0.742185  2.784592
O    -3.416180  -0.680413  1.655387
H    -1.436365  -0.419181  0.944982
H    -0.996793  -1.282414  3.615612
C    -1.173214  0.846602  3.837678
C    -1.629302  2.158396  3.189787
C    -3.146619  2.421756  3.232440
N    -3.532614  3.767625  2.844769
C    -3.389998  4.853239  3.699363
N    -3.654298  6.070257  3.059584
N    -3.060282  4.856094  4.945890
H    -0.087586  0.880720  4.001074
H    -1.626254  0.744349  4.838240
H    -1.284384  2.190352  2.144223
H    -1.120543  2.988083  3.701970
H    -3.533272  2.240172  4.248054
H    -3.681244  1.728081  2.570823
H    -3.423139  3.986390  1.859465
H    -3.679202  6.828362  3.735687
H    -4.478653  6.065448  2.464324
H    -2.761642  3.931022  5.262083
N    -3.641822  -1.041767  3.897130
C    -5.078440  -1.246970  3.880767
H    -3.156767  -1.070431  4.786175
H    -5.341991  -2.195788  4.365703
H    -5.398242  -1.278321  2.834450
H    -5.606318  -0.426842  4.388966
