35
Energy: -21190.0299803 eV PBE+vdW (tier 2 basis)
C    0.340421  -0.926707  -0.402098
C    0.303144  -0.356247  1.004180
O    1.280527  -0.370837  1.745809
H    1.147501  -0.436064  -0.959542
H    -0.599007  -0.808398  -0.956373
H    0.587276  -1.993983  -0.340407
N    -0.898365  0.194755  1.382358
C    -1.142664  0.617891  2.766164
C    -2.653550  0.633738  3.056298
O    -3.119382  -0.063185  3.952206
H    -1.706062  -0.004541  0.803208
H    -0.751803  -0.162433  3.434591
C    -0.421111  1.935171  3.123467
C    -0.754249  2.444113  4.526477
C    0.100649  3.662457  4.909989
N    -0.200678  4.258656  6.201645
C    -1.394603  4.898939  6.505121
N    -1.953749  5.642238  5.463157
N    -1.830962  4.844477  7.717710
H    -0.650672  2.707878  2.375116
H    0.655776  1.732041  3.038114
H    -0.595526  1.645947  5.268199
H    -1.821155  2.710895  4.599425
H    0.032483  4.435786  4.125731
H    1.162467  3.376453  4.926039
H    0.117421  3.733360  7.011276
H    -1.673943  5.416156  4.515288
H    -2.945918  5.819729  5.556100
H    -2.638519  5.457349  7.854277
N    -3.480864  1.407126  2.274387
C    -3.155819  2.507434  1.378488
H    -4.445514  1.348462  2.590845
H    -3.023548  3.462287  1.913379
H    -3.971335  2.629559  0.655424
H    -2.239720  2.299701  0.816353
