35
Energy: -21190.1887031 eV PBE+vdW (tier 2 basis)
C    -1.255464  -0.816291  0.334289
C    -1.006834  0.038557  1.565454
O    0.098665  0.132732  2.088862
H    -1.080065  -1.867586  0.596276
H    -0.522775  -0.546008  -0.435315
H    -2.266372  -0.720025  -0.081401
N    -2.102860  0.708465  2.043570
C    -2.095536  1.501076  3.272970
C    -0.928768  2.522915  3.343628
O    -0.250588  2.639162  4.358147
H    -2.993065  0.554553  1.587189
H    -3.024243  2.097604  3.242114
C    -2.116038  0.640778  4.542642
C    -3.312400  -0.306003  4.619049
C    -3.355159  -1.110700  5.930476
N    -3.538986  -0.327533  7.140618
C    -4.771004  0.207535  7.493869
N    -4.677376  1.088580  8.576896
N    -5.923694  -0.007890  6.956844
H    -2.113926  1.332077  5.396155
H    -1.171116  0.081123  4.597516
H    -3.281729  -1.026809  3.786071
H    -4.252333  0.261057  4.512750
H    -2.417571  -1.675111  6.044835
H    -4.159916  -1.859466  5.887003
H    -2.738534  0.223986  7.432310
H    -5.602561  1.342970  8.910720
H    -4.073160  0.773993  9.331548
H    -5.846038  -0.566518  6.104667
N    -0.742677  3.358407  2.275914
C    -1.449806  3.438366  1.012263
H    0.062154  3.963594  2.402400
H    -2.530203  3.304738  1.149991
H    -1.099290  2.698567  0.275731
H    -1.297939  4.440164  0.592607
