35
Energy: -21190.3530472 eV PBE+vdW (tier 2 basis)
C    -1.891785  1.560453  0.521886
C    -1.227194  1.003469  1.768846
O    -0.020815  1.113212  1.978795
H    -2.987168  1.588043  0.579735
H    -1.599573  0.943645  -0.338570
H    -1.513268  2.572932  0.342177
N    -2.071008  0.377790  2.647787
C    -1.585120  -0.368134  3.808840
C    -2.686039  -1.262480  4.407334
O    -2.407639  -2.376677  4.846934
H    -3.024375  0.197588  2.352058
H    -0.819539  -1.081342  3.471232
C    -0.900977  0.512210  4.897433
C    -1.379912  1.952973  5.123813
C    -2.787017  2.196820  5.683655
N    -3.801304  2.182762  4.625872
C    -5.130680  2.560974  4.833870
N    -5.628338  2.259723  6.097398
N    -5.786130  3.027655  3.827656
H    0.158700  0.582258  4.623035
H    -0.942163  -0.051935  5.842097
H    -1.255902  2.538390  4.198965
H    -0.673015  2.399112  5.838601
H    -2.791232  3.166673  6.214573
H    -3.023138  1.413115  6.423493
H    -3.476405  2.564160  3.739962
H    -6.501010  2.715180  6.334697
H    -4.972352  2.220127  6.869971
H    -6.769754  3.190324  4.055316
N    -3.946028  -0.746418  4.412734
C    -5.042171  -1.467955  5.037105
H    -4.037379  0.272970  4.313510
H    -5.965964  -0.901406  4.880994
H    -4.882350  -1.606024  6.117619
H    -5.145396  -2.463003  4.587782
