35
Energy: -21190.0574826 eV PBE+vdW (tier 2 basis)
C    1.342559  2.807548  1.351796
C    1.049853  1.592312  2.211965
O    1.949632  0.864265  2.617705
H    2.197941  2.589104  0.704897
H    1.623795  3.634359  2.019104
H    0.492269  3.130196  0.737625
N    -0.287136  1.388899  2.463207
C    -0.862031  0.564644  3.525439
C    -0.442890  1.129119  4.914583
O    0.412869  2.000098  5.024109
H    -0.884563  2.147565  2.156595
H    -1.944678  0.762519  3.453013
C    -0.746268  -0.967347  3.300323
C    0.594734  -1.700379  3.439120
C    1.268464  -1.599137  4.818402
N    2.446937  -2.425553  4.975261
C    3.706677  -2.144260  4.467163
N    3.946208  -0.809536  4.163787
N    4.558450  -3.119191  4.413744
H    -1.131010  -1.141559  2.284300
H    -1.474178  -1.446183  3.971663
H    1.296641  -1.354476  2.672384
H    0.396567  -2.764783  3.231645
H    0.554237  -1.892254  5.605494
H    1.545108  -0.559017  5.036029
H    2.309971  -3.426426  5.066321
H    4.807463  -0.663788  3.651441
H    3.183561  -0.243881  3.791029
H    5.465321  -2.793213  4.072108
N    -1.108338  0.666487  6.018614
C    -2.231432  -0.246067  6.132931
H    -0.752735  1.078775  6.875748
H    -2.787348  -0.004367  7.046465
H    -1.922580  -1.301475  6.190994
H    -2.926341  -0.133941  5.291008
