35
Energy: -21190.4406222 eV PBE+vdW (tier 2 basis)
C    -0.135243  -0.014813  -0.095788
C    -0.098787  -0.068292  1.419954
O    0.946410  -0.253703  2.043429
H    0.564780  0.756454  -0.439678
H    -1.130769  0.195606  -0.504855
H    0.219173  -0.975903  -0.489212
N    -1.304308  0.125502  2.037394
C    -1.480524  -0.075564  3.462230
C    -2.768506  -0.892076  3.645133
O    -3.650750  -0.876060  2.783266
H    -2.169596  0.077428  1.501938
H    -0.595392  -0.627443  3.813296
C    -1.589571  1.254074  4.243528
C    -0.311522  2.090709  4.194113
C    -0.451199  3.395305  4.973349
N    0.785999  4.159979  4.913760
C    0.957638  5.263454  5.729567
N    2.129418  5.975369  5.416720
N    0.085493  5.559198  6.631994
H    -1.842763  1.034903  5.292856
H    -2.438986  1.822881  3.832850
H    -0.061168  2.308080  3.143318
H    0.533350  1.510107  4.594018
H    -0.664060  3.204179  6.033809
H    -1.307177  3.983455  4.592567
H    1.194195  4.249451  3.988100
H    2.370357  6.678912  6.106709
H    2.929659  5.390940  5.186113
H    0.412203  6.330054  7.219694
N    -2.914655  -1.604027  4.796953
C    -1.995400  -1.723055  5.915497
H    -3.823252  -2.050974  4.877949
H    -0.956303  -1.674008  5.571655
H    -2.139006  -2.698371  6.395079
H    -2.147355  -0.938465  6.673132
