35
Energy: -21190.7839896 eV PBE+vdW (tier 2 basis)
C    -1.280729  -0.995227  0.795410
C    -0.608517  -0.531383  2.073736
O    0.624504  -0.619882  2.206440
H    -0.841897  -1.954791  0.499131
H    -1.063107  -0.273773  -0.003885
H    -2.367331  -1.100811  0.894896
N    -1.442956  0.002332  2.999693
C    -1.134224  0.300024  4.405517
C    -0.133592  1.437447  4.715929
O    -0.379307  2.199073  5.655986
H    -2.450359  -0.167586  2.853962
H    -2.071531  0.707207  4.802281
C    -0.769626  -0.971747  5.212575
C    -1.771243  -2.115736  5.010476
C    -3.202300  -1.784771  5.477933
N    -4.257886  -2.483355  4.758203
C    -4.741854  -2.023715  3.557341
N    -5.729082  -2.855819  3.022229
N    -4.284153  -0.941067  3.004548
H    -0.710467  -0.681048  6.272435
H    0.231911  -1.314282  4.917884
H    -1.407402  -3.013519  5.532389
H    -1.805858  -2.376546  3.943020
H    -3.411741  -0.715943  5.354872
H    -3.319151  -2.008360  6.547666
H    -4.338052  -3.482704  4.909157
H    -6.187048  -2.488987  2.195693
H    -6.389233  -3.240353  3.692337
H    -4.869586  -0.665293  2.213369
N    0.980661  1.489365  3.952170
C    2.018889  2.475075  4.168667
H    1.097826  0.741635  3.251550
H    2.307123  2.944538  3.218419
H    2.916385  2.025836  4.621315
H    1.632797  3.240644  4.850518
