35
Energy: -21190.5105643 eV PBE+vdW (tier 2 basis)
C    -0.313172  1.206983  -0.879245
C    -0.140990  1.255591  0.622730
O    0.981556  1.356573  1.134862
H    -1.294664  1.551411  -1.227893
H    -0.168778  0.168774  -1.209853
H    0.473721  1.818097  -1.332039
N    -1.248162  1.177509  1.411013
C    -2.603247  0.797162  1.061242
C    -3.449672  1.049361  2.326864
O    -2.936869  1.087455  3.444302
H    -1.083492  1.214343  2.419144
H    -2.979003  1.451784  0.256167
C    -2.759364  -0.672708  0.588054
C    -2.371786  -1.771212  1.589963
C    -0.872349  -1.971523  1.847362
N    -0.148307  -2.175830  0.590410
C    1.243267  -2.349950  0.575066
N    1.948412  -1.475518  1.386368
N    1.713806  -3.300392  -0.164148
H    -2.173359  -0.797409  -0.332536
H    -3.812535  -0.815225  0.299131
H    -2.785019  -2.719602  1.208692
H    -2.863484  -1.601184  2.559682
H    -0.750897  -2.832570  2.531326
H    -0.447843  -1.105884  2.365937
H    -0.542145  -2.931322  0.029556
H    2.953173  -1.526326  1.263347
H    1.613110  -0.508194  1.434253
H    2.735367  -3.254903  -0.216599
N    -4.784930  1.179182  2.106822
C    -5.750224  1.341608  3.179337
H    -5.118312  1.162041  1.150380
H    -6.302164  2.285281  3.073806
H    -5.196025  1.357852  4.123127
H    -6.466513  0.508685  3.198761
