35
Energy: -21190.5399164 eV PBE+vdW (tier 2 basis)
C    -0.044118  1.739420  1.111846
C    -0.426785  0.879941  2.301948
O    -0.869843  1.359899  3.345646
H    0.339511  1.165568  0.259569
H    0.716602  2.462591  1.430882
H    -0.923991  2.311277  0.791764
N    -0.258907  -0.464710  2.131125
C    -0.474382  -1.407326  3.207720
C    0.398872  -2.637235  2.900773
O    0.897637  -2.812291  1.787719
H    0.234105  -0.847192  1.326081
H    -0.141734  -0.935715  4.147157
C    -1.966301  -1.784973  3.377938
C    -2.561098  -2.528845  2.183265
C    -4.055762  -2.789165  2.352356
N    -4.582055  -3.524039  1.215100
C    -5.901001  -3.965016  1.194555
N    -6.253198  -4.521777  -0.040094
N    -6.773838  -3.909656  2.140348
H    -2.509680  -0.846788  3.561481
H    -2.078847  -2.390659  4.291928
H    -2.045808  -3.489873  2.030514
H    -2.393116  -1.934648  1.270110
H    -4.586176  -1.828778  2.506086
H    -4.225446  -3.393908  3.257684
H    -4.231371  -3.219849  0.310860
H    -5.558724  -5.150896  -0.434385
H    -7.173152  -4.950054  0.009773
H    -6.439193  -3.353236  2.930024
N    0.540612  -3.511739  3.931425
C    1.277626  -4.757175  3.818340
H    0.125038  -3.271348  4.823577
H    2.143720  -4.769416  4.494235
H    1.632816  -4.838912  2.786225
H    0.634987  -5.618474  4.046426
