35
Energy: -21190.5440262 eV PBE+vdW (tier 2 basis)
C    0.823612  0.803451  0.287310
C    0.400182  0.348642  1.668049
O    1.212088  0.219548  2.591069
H    1.584273  0.112206  -0.095759
H    1.293024  1.791478  0.372544
H    -0.002907  0.862810  -0.431208
N    -0.931480  0.104071  1.834103
C    -1.494543  -0.328880  3.113652
C    -1.342656  -1.869431  3.252162
O    -2.265881  -2.643240  3.006605
H    -1.541102  0.116083  1.024118
H    -0.881138  0.154968  3.888479
C    -2.950811  0.107772  3.245249
C    -3.482479  -0.021912  4.675282
C    -4.940398  0.445468  4.824691
N    -5.943924  -0.399091  4.202232
C    -6.411072  -1.560627  4.809927
N    -7.275556  -2.276286  3.973973
N    -6.151550  -2.013676  5.987339
H    -3.557918  -0.510681  2.564830
H    -3.027951  1.157090  2.917103
H    -2.858193  0.584036  5.352458
H    -3.399664  -1.066676  5.008568
H    -5.048798  1.458471  4.405257
H    -5.196159  0.530282  5.890692
H    -5.927375  -0.438395  3.188281
H    -7.974826  -1.708774  3.502114
H    -7.691462  -3.055663  4.475666
H    -5.399684  -1.491264  6.441531
N    -0.097614  -2.246706  3.645655
C    0.303826  -3.638757  3.714754
H    0.616634  -1.516132  3.646646
H    0.936902  -3.806551  4.594876
H    0.858055  -3.951145  2.816125
H    -0.599218  -4.252800  3.794926
