35
Energy: -21190.2633434 eV PBE+vdW (tier 2 basis)
C    -0.200091  1.172619  -0.077662
C    -0.182073  0.206484  1.093327
O    0.779216  -0.520645  1.326225
H    -0.204538  0.590434  -1.008286
H    0.725607  1.759549  -0.064909
H    -1.059763  1.854144  -0.083762
N    -1.308684  0.218000  1.874052
C    -1.587028  -0.704309  2.978743
C    -0.326656  -1.124303  3.779727
O    -0.061852  -2.310151  3.983340
H    -2.075415  0.812329  1.581269
H    -2.200005  -0.131544  3.697229
C    -2.409517  -1.924220  2.542965
C    -1.787996  -2.777701  1.417957
C    -2.058524  -4.270341  1.605572
N    -1.336905  -4.752086  2.765474
C    -1.636713  -5.945716  3.382178
N    -0.957351  -6.121890  4.593481
N    -2.458665  -6.863178  2.987377
H    -3.405357  -1.569617  2.234928
H    -2.568995  -2.541460  3.438445
H    -0.701176  -2.624929  1.377183
H    -2.183646  -2.463733  0.442177
H    -1.748606  -4.818733  0.699071
H    -3.146531  -4.443323  1.724057
H    -0.852487  -4.036187  3.310279
H    -1.006551  -7.088884  4.898611
H    -0.011182  -5.752388  4.613947
H    -2.954181  -6.576950  2.140536
N    0.392670  -0.142757  4.393102
C    0.293844  1.296795  4.246219
H    1.215835  -0.508522  4.862109
H    0.757052  1.769048  5.120365
H    -0.754169  1.617652  4.215454
H    0.799569  1.666153  3.340498
