35
Energy: -21189.8390923 eV PBE+vdW (tier 2 basis)
C    -0.083202  -0.003330  0.536914
C    -0.322008  -0.445925  1.967636
O    0.597532  -0.846239  2.678014
H    0.993499  -0.036172  0.352407
H    -0.448120  1.015437  0.354504
H    -0.584987  -0.680901  -0.167484
N    -1.602041  -0.392866  2.464591
C    -2.878116  -0.038205  1.831396
C    -3.245094  -1.090281  0.741901
O    -3.437064  -2.244931  1.117546
H    -1.665009  -0.824845  3.380973
H    -3.622307  -0.287228  2.601968
C    -3.043814  1.469025  1.576798
C    -4.510003  1.892344  1.460964
C    -4.695926  3.392445  1.209369
N    -4.114931  4.227320  2.258245
C    -4.832824  4.481006  3.416461
N    -4.202868  5.432866  4.233369
N    -5.960152  3.894409  3.627133
H    -2.471211  1.810305  0.703778
H    -2.598384  1.980639  2.441464
H    -5.045196  1.628486  2.384923
H    -5.021436  1.348135  0.650887
H    -5.770925  3.609770  1.114869
H    -4.205822  3.677327  0.266333
H    -3.543077  5.000699  1.940847
H    -4.606247  5.504630  5.161273
H    -3.189129  5.359647  4.271757
H    -6.329117  4.116734  4.554156
N    -3.374736  -0.791591  -0.591666
C    -3.153646  0.410532  -1.382318
H    -3.641319  -1.625366  -1.107560
H    -3.867569  1.211300  -1.146968
H    -3.295994  0.142215  -2.434685
H    -2.134015  0.801963  -1.278970
