35
Energy: -21190.3034334 eV PBE+vdW (tier 2 basis)
C    -2.296193  0.617450  0.874311
C    -1.215206  0.400654  1.921391
O    -0.100126  -0.033530  1.630661
H    -2.509409  -0.341915  0.386092
H    -1.912829  1.296877  0.102711
H    -3.225833  1.028349  1.286850
N    -1.570926  0.750254  3.188913
C    -0.736332  0.486454  4.351629
C    0.755960  0.883023  4.179789
O    1.659574  0.129473  4.531269
H    -2.551555  0.983139  3.404975
H    -1.111147  1.176581  5.127351
C    -0.851333  -0.964917  4.878175
C    -1.131344  -1.067257  6.385761
C    -2.620581  -1.120875  6.761572
N    -3.414043  0.001131  6.249414
C    -4.261241  -0.059346  5.165534
N    -4.986871  -1.237984  5.057997
N    -4.302736  0.941935  4.335219
H    0.093223  -1.469290  4.643430
H    -1.645722  -1.473183  4.314050
H    -0.640033  -0.232782  6.913695
H    -0.667540  -1.977695  6.794726
H    -2.724480  -1.167577  7.857193
H    -3.059161  -2.042585  6.357484
H    -2.978623  0.916113  6.315513
H    -5.679731  -1.254548  4.319883
H    -5.299354  -1.667255  5.923086
H    -5.104439  0.868398  3.704095
N    1.034923  2.155034  3.761411
C    0.147466  3.189403  3.262468
H    2.032237  2.301492  3.642219
H    0.653766  4.157400  3.363304
H    -0.777351  3.235766  3.848636
H    -0.123447  3.045351  2.204835
