35
Energy: -21190.3308116 eV PBE+vdW (tier 2 basis)
C    0.049755  0.750891  0.835014
C    -0.118096  0.333292  2.281176
O    0.720729  0.578870  3.143262
H    1.062745  1.143993  0.714093
H    -0.666562  1.551114  0.592272
H    -0.119801  -0.067703  0.119129
N    -1.268123  -0.359681  2.611379
C    -2.435805  -0.544883  1.769800
C    -3.348681  0.702084  1.789795
O    -3.545414  1.328802  2.828242
H    -1.425017  -0.385637  3.617001
H    -2.084793  -0.740282  0.750285
C    -3.279572  -1.737772  2.274191
C    -2.553150  -3.082902  2.413628
C    -2.321014  -3.869096  1.118770
N    -1.370192  -3.236075  0.208554
C    -1.666313  -2.730708  -1.035957
N    -2.703843  -3.388753  -1.703584
N    -1.015124  -1.695271  -1.464459
H    -4.152671  -1.850821  1.611858
H    -3.683902  -1.449239  3.257284
H    -3.148235  -3.728264  3.078018
H    -1.589945  -2.933652  2.926899
H    -3.273960  -3.988200  0.584941
H    -1.968223  -4.880974  1.379041
H    -0.595848  -2.741658  0.642090
H    -2.808574  -3.106484  -2.671636
H    -2.732224  -4.398891  -1.592579
H    -1.195554  -1.520981  -2.455881
N    -3.946867  1.051242  0.612207
C    -3.840757  0.390346  -0.680452
H    -4.588292  1.833320  0.701750
H    -4.305293  1.034266  -1.435184
H    -4.355332  -0.583710  -0.703069
H    -2.794446  0.229609  -0.970945
