35
Energy: -21190.3454923 eV PBE+vdW (tier 2 basis)
C    0.351176  -1.253451  1.155847
C    0.263111  -0.058344  2.090893
O    1.269454  0.449810  2.579217
H    1.400308  -1.369097  0.871335
H    -0.252255  -1.134180  0.245849
H    0.026273  -2.176178  1.657181
N    -0.981894  0.436552  2.394515
C    -2.287806  0.029997  1.914201
C    -3.059715  1.299326  1.507792
O    -2.994010  2.320877  2.186897
H    -0.976622  1.284993  2.959818
H    -2.151368  -0.617361  1.037092
C    -3.111799  -0.717306  2.994818
C    -2.480559  -2.032365  3.456912
C    -2.607968  -3.158757  2.430158
N    -1.740419  -4.271479  2.767325
C    -1.596372  -5.354091  1.904183
N    -0.815210  -6.371684  2.456865
N    -2.087023  -5.494631  0.721070
H    -4.128011  -0.895702  2.606049
H    -3.222935  -0.035606  3.850015
H    -2.955132  -2.345265  4.400017
H    -1.417931  -1.864281  3.688415
H    -2.307441  -2.798459  1.433435
H    -3.669317  -3.465756  2.346107
H    -1.706571  -4.512820  3.754021
H    -0.618858  -7.092424  1.768495
H    0.024297  -6.055315  2.934744
H    -2.756510  -4.754287  0.500566
N    -3.830706  1.177650  0.391417
C    -4.676199  2.249820  -0.103099
H    -3.795904  0.306317  -0.123617
H    -4.371506  2.562113  -1.111197
H    -4.563959  3.097869  0.580207
H    -5.731316  1.944665  -0.126573
