35
Energy: -21190.5012555 eV PBE+vdW (tier 2 basis)
C    -1.232886  -1.506366  -0.314918
C    -1.578084  -1.889144  1.112829
O    -2.049051  -2.991594  1.400524
H    -0.490365  -2.215662  -0.701594
H    -0.839244  -0.487510  -0.413760
H    -2.133440  -1.606821  -0.933216
N    -1.316479  -0.936273  2.051474
C    -1.685369  -1.103239  3.442399
C    -1.840886  0.320066  4.012058
O    -1.460723  1.300856  3.365212
H    -1.066136  0.019255  1.799132
H    -2.652674  -1.631899  3.476204
C    -0.653560  -1.955520  4.222569
C    0.631624  -1.216592  4.587433
C    1.656501  -2.096225  5.321215
N    1.151514  -2.849168  6.465819
C    0.729225  -2.232325  7.623666
N    0.196114  -3.148151  8.548971
N    0.804822  -0.950390  7.764439
H    -0.446251  -2.836714  3.596980
H    -1.131043  -2.336538  5.135918
H    0.403284  -0.354245  5.228167
H    1.114949  -0.823026  3.679679
H    2.481505  -1.463632  5.675260
H    2.082916  -2.838958  4.631038
H    0.698641  -3.731141  6.256470
H    0.701040  -4.028933  8.615489
H    0.032518  -2.745543  9.465691
H    0.578883  -0.673742  8.722950
N    -2.399376  0.468485  5.242676
C    -2.834028  -0.549770  6.184420
H    -2.373810  1.429925  5.569157
H    -3.618078  -0.126186  6.823422
H    -2.010550  -0.903406  6.823912
H    -3.269215  -1.405539  5.655552
