35
Energy: -21190.1166192 eV PBE+vdW (tier 2 basis)
C    0.422443  0.322122  0.148234
C    0.022907  0.755574  1.548983
O    0.498850  1.749689  2.086968
H    1.449699  -0.064270  0.184358
H    0.424360  1.200735  -0.506533
H    -0.227472  -0.450069  -0.282566
N    -0.918081  -0.036978  2.154591
C    -1.298149  0.052410  3.567217
C    -1.383327  1.514286  4.081827
O    -0.760720  1.879767  5.072380
H    -1.189050  -0.886384  1.672556
H    -2.327094  -0.347998  3.625522
C    -0.388829  -0.813319  4.450413
C    -0.963210  -1.110197  5.837125
C    -0.149251  -2.134229  6.637548
N    -0.176622  -3.487698  6.097447
C    0.852575  -4.004795  5.337799
N    0.542309  -5.285843  4.836640
N    1.930759  -3.332999  5.118477
H    0.587369  -0.319709  4.545459
H    -0.213286  -1.758064  3.914112
H    -2.003648  -1.474454  5.742787
H    -1.013086  -0.178795  6.417651
H    -0.525888  -2.166079  7.671651
H    0.906651  -1.838845  6.675185
H    -1.092567  -3.883437  5.916091
H    1.343412  -5.753062  4.424488
H    0.071491  -5.892669  5.504787
H    2.630067  -3.902494  4.637578
N    -2.294260  2.343093  3.479893
C    -3.027786  2.151935  2.243458
H    -2.234256  3.290466  3.840770
H    -3.877092  2.845797  2.229996
H    -3.433857  1.135165  2.181093
H    -2.413250  2.334795  1.347437
