35
Energy: -21190.1550108 eV PBE+vdW (tier 2 basis)
C    0.193176  -0.910239  -0.143492
C    -0.044400  -0.877079  1.356348
O    0.760564  -1.331423  2.163046
H    0.463660  -1.931654  -0.436171
H    1.050523  -0.265892  -0.377297
H    -0.667683  -0.580197  -0.738946
N    -1.225042  -0.306045  1.752882
C    -1.570405  -0.119692  3.154076
C    -1.802062  -1.395257  3.997098
O    -1.546118  -1.349409  5.197851
H    -1.851743  0.056941  1.045236
H    -0.711259  0.345313  3.660241
C    -2.789832  0.801991  3.298517
C    -2.571243  2.229200  2.790277
C    -3.713549  3.174745  3.194786
N    -3.805577  3.370629  4.630662
C    -3.026759  4.308508  5.301838
N    -3.317923  4.349107  6.668742
N    -2.135915  5.100340  4.814622
H    -3.030996  0.841655  4.369611
H    -3.662906  0.347632  2.796285
H    -2.476086  2.257548  1.692972
H    -1.623286  2.617786  3.192706
H    -4.675022  2.760479  2.858276
H    -3.597391  4.142444  2.675272
H    -4.700849  3.173739  5.061578
H    -2.663669  4.954938  7.155867
H    -3.393439  3.436849  7.111577
H    -2.113789  5.069067  3.792863
N    -2.347497  -2.520386  3.443803
C    -2.773307  -2.815454  2.086609
H    -2.412163  -3.272685  4.122474
H    -1.930401  -3.012566  1.407731
H    -3.381918  -2.006157  1.664650
H    -3.402822  -3.712615  2.117520
