35
Energy: -21190.5810203 eV PBE+vdW (tier 2 basis)
C    0.405520  0.134402  -0.027863
C    0.205397  0.457125  1.441210
O    1.129211  0.835223  2.163172
H    1.159514  -0.657846  -0.114267
H    0.805479  1.022205  -0.533278
H    -0.511666  -0.185503  -0.537150
N    -1.069012  0.308555  1.904498
C    -1.411100  0.490806  3.299760
C    -2.685551  -0.318851  3.550895
O    -3.433978  -0.606789  2.600289
H    -1.809216  -0.098394  1.336037
H    -0.576000  0.103263  3.903166
C    -1.575639  1.991175  3.675205
C    -2.610325  2.803658  2.872935
C    -3.962748  3.051290  3.556834
N    -4.813912  1.871289  3.626016
C    -5.401185  1.325327  4.742437
N    -5.324681  2.089650  5.911870
N    -5.959069  0.154971  4.810847
H    -0.579408  2.428422  3.528471
H    -1.790024  2.071555  4.750914
H    -2.773361  2.345228  1.884377
H    -2.183738  3.794938  2.660528
H    -4.484073  3.861522  3.016939
H    -3.780492  3.413112  4.578209
H    -4.729576  1.218137  2.851547
H    -5.941832  1.695200  6.616454
H    -5.476415  3.087233  5.794720
H    -5.893289  -0.326935  3.908966
N    -2.988241  -0.670787  4.820716
C    -2.293087  -0.311144  6.044986
H    -3.963489  -0.959574  4.934800
H    -2.464001  -1.096147  6.791197
H    -2.655551  0.643014  6.458049
H    -1.213370  -0.241156  5.876089
