35
Energy: -21190.4082633 eV PBE+vdW (tier 2 basis)
C    -1.704318  -1.186123  0.445380
C    -1.136565  -0.248438  1.495604
O    -0.302593  0.612079  1.227896
H    -0.883735  -1.754660  -0.010067
H    -2.161241  -0.583907  -0.349573
H    -2.453555  -1.884947  0.838209
N    -1.606601  -0.454964  2.771691
C    -1.354179  0.502012  3.843267
C    -0.185721  0.137235  4.783013
O    0.051823  0.823809  5.775700
H    -2.424637  -1.057680  2.901227
H    -1.026363  1.431960  3.351110
C    -2.640986  0.791772  4.642319
C    -3.052525  -0.214432  5.732414
C    -3.126016  -1.708367  5.378037
N    -3.756843  -2.071684  4.085380
C    -5.153234  -2.081141  3.883888
N    -5.838425  -1.046220  4.498891
N    -5.805819  -2.946986  3.189177
H    -3.446963  0.926801  3.903474
H    -2.512692  1.762547  5.137525
H    -4.015664  0.112597  6.150407
H    -2.336878  -0.136099  6.563793
H    -3.617554  -2.236851  6.211969
H    -2.102492  -2.102237  5.310573
H    -3.377532  -2.951848  3.744906
H    -5.379697  -0.142452  4.524548
H    -6.805668  -1.005367  4.193620
H    -5.214820  -3.733348  2.906753
N    0.528066  -0.964204  4.428736
C    1.731275  -1.372515  5.124871
H    0.281024  -1.397408  3.545513
H    2.629864  -1.185540  4.519102
H    1.693164  -2.439551  5.382707
H    1.799102  -0.781843  6.044941
