35
Energy: -21190.2659516 eV PBE+vdW (tier 2 basis)
C    0.337588  1.765198  1.472500
C    0.017509  0.286244  1.522430
O    0.883347  -0.580177  1.621615
H    1.413679  1.874948  1.316172
H    0.064832  2.248908  2.421172
H    -0.210081  2.289280  0.678137
N    -1.311304  -0.070286  1.460374
C    -2.481976  0.794716  1.384415
C    -2.665252  1.753189  2.583350
O    -2.942698  2.935871  2.353432
H    -1.458827  -1.075499  1.489862
H    -2.377722  1.483114  0.531072
C    -3.721462  -0.089226  1.133132
C    -5.017288  0.621016  0.713497
C    -5.761014  1.433329  1.785751
N    -6.028108  0.661084  2.982752
C    -5.912062  1.124115  4.279610
N    -6.289794  0.158330  5.229135
N    -5.447531  2.251262  4.697681
H    -3.912451  -0.714824  2.018230
H    -3.444844  -0.778054  0.319542
H    -5.699250  -0.153169  0.324564
H    -4.818148  1.294096  -0.134440
H    -6.696595  1.818683  1.343397
H    -5.164155  2.307763  2.066376
H    -6.420655  -0.265241  2.861188
H    -6.322523  0.581641  6.152822
H    -7.157296  -0.330115  5.019832
H    -5.116795  2.844776  3.933298
N    -2.526342  1.303036  3.859623
C    -2.481712  -0.062115  4.365545
H    -2.829398  2.005218  4.532208
H    -3.468279  -0.550203  4.339244
H    -2.153438  -0.026318  5.410029
H    -1.757535  -0.664656  3.809979
