35
Energy: -21190.0386856 eV PBE+vdW (tier 2 basis)
C    0.160760  -0.556795  0.325195
C    0.074820  -0.282011  1.817829
O    1.029679  -0.490301  2.564823
H    -0.735305  -0.272014  -0.240153
H    0.344366  -1.628804  0.179030
H    1.026855  -0.020074  -0.080787
N    -1.125166  0.223675  2.238748
C    -1.609179  0.454421  3.607334
C    -1.608134  1.922228  4.094317
O    -2.514445  2.267895  4.858968
H    -1.824955  0.356184  1.518611
H    -2.687321  0.255774  3.545456
C    -1.058037  -0.531394  4.675387
C    0.126811  -0.070412  5.539071
C    -0.256243  0.649626  6.844186
N    -0.923249  -0.196530  7.818997
C    -2.301988  -0.267529  7.992554
N    -2.645515  -1.270249  8.919532
N    -3.237553  0.416253  7.438365
H    -0.796440  -1.455622  4.147001
H    -1.898815  -0.782783  5.336041
H    0.811792  0.562891  4.959855
H    0.725306  -0.956707  5.802190
H    -0.907349  1.511706  6.651610
H    0.660238  1.051931  7.304863
H    -0.425893  -1.043800  8.075204
H    -3.638708  -1.213191  9.128777
H    -2.087389  -1.255792  9.770357
H    -2.916083  1.030643  6.684552
N    -0.656802  2.819538  3.715127
C    0.548950  2.679491  2.912396
H    -0.844828  3.736371  4.111007
H    1.253320  3.462545  3.216074
H    0.348441  2.796339  1.836247
H    1.033394  1.710656  3.074913
