35
Energy: -21190.4894114 eV PBE+vdW (tier 2 basis)
C    -2.011210  2.101928  0.765658
C    -1.335781  1.339460  1.888965
O    -0.136727  1.068427  1.865977
H    -1.539004  3.088848  0.676607
H    -3.090599  2.232920  0.909441
H    -1.834122  1.570043  -0.176899
N    -2.149122  1.031048  2.953520
C    -1.725634  0.103466  3.992664
C    -2.723308  -1.065106  3.979227
O    -3.879721  -0.905055  3.581208
H    -3.157557  1.010671  2.797018
H    -0.715415  -0.232487  3.716641
C    -1.702187  0.738604  5.406629
C    -0.453651  1.554637  5.759057
C    -0.159291  2.781859  4.877002
N    -1.285027  3.679656  4.656946
C    -1.759208  4.493234  5.665439
N    -2.935245  5.169648  5.289656
N    -1.163135  4.557510  6.808476
H    -1.805540  -0.063066  6.153625
H    -2.609403  1.352932  5.515141
H    0.433982  0.901529  5.724480
H    -0.558270  1.897147  6.797934
H    0.205652  2.469144  3.890218
H    0.636822  3.366387  5.355434
H    -1.987506  3.334289  4.010360
H    -3.207055  5.896332  5.943402
H    -2.933515  5.514214  4.332346
H    -1.568086  5.292519  7.392930
N    -2.287613  -2.261429  4.460348
C    -0.940733  -2.610108  4.886833
H    -3.001381  -2.982721  4.474268
H    -0.913661  -3.684355  5.095916
H    -0.640919  -2.080557  5.803063
H    -0.198130  -2.401823  4.104221
