35
Energy: -21190.2548361 eV PBE+vdW (tier 2 basis)
C    -1.025558  1.706299  1.357881
C    -0.490733  0.713637  2.375326
O    0.616205  0.836625  2.891717
H    -1.183987  1.241590  0.373520
H    -0.285189  2.503244  1.251650
H    -1.977035  2.148358  1.687124
N    -1.303302  -0.343952  2.715485
C    -2.607943  -0.688161  2.159570
C    -3.534835  -1.257299  3.251783
O    -4.563234  -0.673837  3.582981
H    -0.884068  -0.964099  3.403016
H    -3.101944  0.249032  1.879695
C    -2.505617  -1.606340  0.923929
C    -3.846391  -1.990289  0.289379
C    -4.724759  -0.798310  -0.160988
N    -4.037862  0.279131  -0.855427
C    -3.424217  0.123654  -2.088026
N    -2.606451  1.214784  -2.418244
N    -3.506493  -0.870355  -2.903564
H    -1.955155  -2.522092  1.194177
H    -1.874395  -1.098324  0.179997
H    -4.446987  -2.590927  0.990903
H    -3.632832  -2.645002  -0.567025
H    -5.213114  -0.346615  0.712430
H    -5.537118  -1.174512  -0.801622
H    -3.632191  0.995776  -0.264243
H    -2.291783  1.137228  -3.381788
H    -3.022906  2.124921  -2.236149
H    -4.042688  -1.643921  -2.506020
N    -3.128568  -2.437844  3.806293
C    -3.884591  -3.117577  4.843438
H    -2.336404  -2.920007  3.397017
H    -3.229671  -3.401589  5.677105
H    -4.382893  -4.018528  4.456957
H    -4.649531  -2.422662  5.204317
