35
Energy: -21190.1135928 eV PBE+vdW (tier 2 basis)
C    -0.569853  -0.218556  -0.093107
C    -0.569792  0.222716  1.360761
O    0.216023  1.059123  1.793341
H    0.371169  -0.745029  -0.298461
H    -0.590969  0.672653  -0.731212
H    -1.407090  -0.874666  -0.362394
N    -1.521050  -0.369445  2.150742
C    -1.615807  -0.183963  3.599313
C    -1.470260  1.302155  4.030081
O    -0.674101  1.638363  4.899980
H    -2.100274  -1.090617  1.738255
H    -2.643804  -0.483849  3.868847
C    -0.628973  -1.074049  4.370742
C    -1.039464  -1.327141  5.822291
C    0.022033  -2.123304  6.589236
N    -0.338068  -2.433460  7.974685
C    -1.367865  -3.313694  8.303539
N    -1.494203  -4.398780  7.433043
N    -2.173563  -3.222881  9.306739
H    0.361420  -0.599243  4.328066
H    -0.559194  -2.034299  3.835617
H    -1.990526  -1.883168  5.854976
H    -1.199109  -0.366418  6.332097
H    0.964951  -1.557975  6.617570
H    0.245850  -3.060696  6.059885
H    -0.330671  -1.620935  8.584156
H    -2.134040  -5.085994  7.820751
H    -0.617204  -4.813976  7.131024
H    -2.074968  -2.321013  9.781265
N    -2.341759  2.207063  3.488372
C    -3.324817  2.033495  2.436495
H    -2.141366  3.155565  3.789688
H    -4.062740  2.841136  2.512604
H    -3.865529  1.086118  2.552357
H    -2.883440  2.059979  1.427674
