35
Energy: -21190.3214867 eV PBE+vdW (tier 2 basis)
C    -0.771242  0.341122  -0.241365
C    -0.051250  0.311386  1.091569
O    1.144960  0.570867  1.184324
H    -1.103101  1.369222  -0.443367
H    -1.644983  -0.317098  -0.298733
H    -0.050023  0.068347  -1.018134
N    -0.767044  -0.035492  2.224245
C    -2.212379  -0.196738  2.415666
C    -2.795356  -1.487982  1.779696
O    -4.001523  -1.605282  1.579603
H    -0.200736  0.061756  3.062292
H    -2.325972  -0.368133  3.499756
C    -3.064691  1.032163  2.066792
C    -2.677033  2.275306  2.867798
C    -3.502190  3.513665  2.515773
N    -4.910532  3.316536  2.810070
C    -5.871681  4.232259  2.395216
N    -7.145060  3.913101  2.879668
N    -5.711931  5.278944  1.661636
H    -4.111373  0.759399  2.246589
H    -2.998635  1.246875  0.990388
H    -1.617453  2.522727  2.701796
H    -2.770680  2.068842  3.949273
H    -3.408504  3.717735  1.437262
H    -3.087263  4.393178  3.044302
H    -5.108107  2.887715  3.710229
H    -7.846496  4.523179  2.469610
H    -7.395279  2.931320  2.793150
H    -4.722804  5.480688  1.500361
N    -1.884012  -2.466973  1.535399
C    -2.246524  -3.759388  0.988958
H    -0.910472  -2.248270  1.717543
H    -1.949324  -4.572298  1.665693
H    -1.775298  -3.924436  0.009790
H    -3.334890  -3.775723  0.867715
