35
Energy: -21190.2618815 eV PBE+vdW (tier 2 basis)
C    -0.081519  -0.027638  0.102500
C    -0.079112  0.182497  1.604090
O    0.954869  0.419297  2.220911
H    0.746368  0.550496  -0.318096
H    -1.016839  0.248793  -0.394880
H    0.105936  -1.090243  -0.107856
N    -1.270372  0.023855  2.292199
C    -2.641086  0.020944  1.766472
C    -2.905710  -1.184635  0.825788
O    -3.649746  -1.102059  -0.148651
H    -1.164653  0.270147  3.273262
H    -3.273932  -0.173968  2.649266
C    -3.094927  1.363494  1.166023
C    -4.612443  1.569363  1.205386
C    -5.067620  2.909283  0.609832
N    -4.608052  4.098535  1.328312
C    -3.343432  4.653933  1.181249
N    -2.865197  4.660630  -0.132739
N    -2.729129  5.086667  2.231031
H    -2.744293  1.451275  0.128243
H    -2.597730  2.158109  1.739650
H    -5.108885  0.759934  0.651108
H    -4.966803  1.505831  2.249586
H    -6.166922  2.939137  0.586025
H    -4.735028  2.977594  -0.434598
H    -4.860939  4.114383  2.313948
H    -2.031402  5.222886  -0.260296
H    -3.561735  4.835206  -0.852126
H    -1.884480  5.608891  1.983995
N    -2.287422  -2.334772  1.210087
C    -2.401096  -3.574055  0.468072
H    -1.621538  -2.263978  1.972453
H    -2.712946  -4.397484  1.124548
H    -1.449273  -3.846105  -0.011727
H    -3.158184  -3.428588  -0.309698
