35
Energy: -21190.5517263 eV PBE+vdW (tier 2 basis)
C    -0.935757  0.324418  -0.617724
C    -1.143295  0.022623  0.855296
O    -1.828161  0.742604  1.583426
H    -1.915401  0.401091  -1.105255
H    -0.331525  -0.426722  -1.140786
H    -0.448706  1.303323  -0.710124
N    -0.524323  -1.103724  1.312028
C    -0.539688  -1.495932  2.705768
C    0.646672  -2.457729  2.900167
O    1.233857  -2.960647  1.940490
H    0.116232  -1.641704  0.730558
H    -0.390743  -0.594361  3.323312
C    -1.883786  -2.134758  3.130519
C    -2.231753  -3.420436  2.379631
C    -3.652393  -3.915740  2.655414
N    -4.637282  -2.955449  2.192061
C    -5.983328  -3.073304  2.510766
N    -6.762765  -2.100200  1.876216
N    -6.547042  -3.940239  3.280458
H    -2.660699  -1.376130  2.969281
H    -1.863347  -2.328580  4.215234
H    -1.528474  -4.225385  2.641945
H    -2.109308  -3.258335  1.296072
H    -3.795058  -4.049913  3.739836
H    -3.791620  -4.910008  2.189559
H    -4.451426  -2.545524  1.281027
H    -7.718575  -2.126511  2.219320
H    -6.371650  -1.161867  1.900352
H    -5.895205  -4.677424  3.557606
N    0.963205  -2.723546  4.194843
C    2.018258  -3.642872  4.580267
H    0.448295  -2.240873  4.921761
H    1.624448  -4.458609  5.201895
H    2.813776  -3.125218  5.133772
H    2.441564  -4.064320  3.663008
