35
Energy: -21190.0809935 eV PBE+vdW (tier 2 basis)
C    0.148087  -0.528362  0.478990
C    0.415330  0.598135  1.456034
O    1.531228  1.109171  1.578192
H    1.110321  -0.920197  0.139508
H    -0.410271  -0.160551  -0.393852
H    -0.447163  -1.337497  0.922920
N    -0.639370  1.066828  2.195514
C    -2.000948  0.567009  2.256317
C    -2.770843  0.563356  0.916215
O    -3.521575  -0.376703  0.658069
H    -0.355932  1.691883  2.958005
H    -2.023295  -0.493194  2.561095
C    -2.840787  1.363273  3.279407
C    -2.435867  1.253356  4.764567
C    -1.501784  2.348153  5.307788
N    -0.117142  2.245516  4.844605
C    0.802845  1.278650  5.322706
N    0.323397  0.479220  6.357265
N    1.962838  1.055923  4.828177
H    -3.867746  0.988496  3.172366
H    -2.872384  2.424150  2.979872
H    -1.995857  0.266882  4.971404
H    -3.354907  1.303930  5.367982
H    -1.571227  2.358291  6.411257
H    -1.869878  3.332179  4.981705
H    0.335590  3.126300  4.628406
H    1.047958  -0.149187  6.691292
H    -0.178014  0.946091  7.106886
H    2.105581  1.539504  3.935530
N    -2.648643  1.617194  0.053040
C    -1.852455  2.834553  0.131042
H    -3.207654  1.482108  -0.783807
H    -2.263326  3.552092  -0.588923
H    -0.792859  2.667846  -0.109087
H    -1.906306  3.293286  1.124586
