35
Energy: -21190.5170753 eV PBE+vdW (tier 2 basis)
C    -1.984078  0.642089  -0.091007
C    -1.822911  -0.073120  1.235196
O    -0.900432  0.214590  2.009452
H    -1.083862  0.465032  -0.693142
H    -2.044962  1.721140  0.095389
H    -2.862671  0.325741  -0.665896
N    -2.752575  -1.030755  1.504757
C    -2.784400  -1.948595  2.656153
C    -3.139250  -1.284201  4.008909
O    -4.029559  -1.777292  4.707364
H    -3.494598  -1.149570  0.826567
H    -3.643312  -2.606099  2.472694
C    -1.519813  -2.834393  2.724787
C    -1.575664  -3.938757  3.792992
C    -1.102015  -3.502961  5.192265
N    -1.135836  -4.557280  6.188743
C    -2.319987  -4.918691  6.834604
N    -2.148369  -6.083756  7.602585
N    -3.467870  -4.345266  6.806755
H    -0.632704  -2.201695  2.872520
H    -1.409364  -3.292950  1.730960
H    -0.931569  -4.769358  3.464543
H    -2.593671  -4.350547  3.867929
H    -1.707268  -2.671825  5.574647
H    -0.068642  -3.128139  5.126581
H    -0.512549  -5.340032  6.011411
H    -2.976534  -6.247252  8.168928
H    -1.303370  -6.085870  8.169436
H    -3.537635  -3.584990  6.124277
N    -2.385427  -0.217838  4.362457
C    -2.558104  0.469879  5.627036
H    -1.659815  0.081391  3.699849
H    -2.741316  1.541270  5.467956
H    -1.667865  0.357645  6.263014
H    -3.417708  0.029056  6.142749
