35
Energy: -21190.2961844 eV PBE+vdW (tier 2 basis)
C    -0.491084  -0.130190  -0.273978
C    -0.274860  0.142113  1.197990
O    0.825643  0.463723  1.650133
H    -1.436432  -0.641275  -0.492823
H    0.343303  -0.729707  -0.653928
H    -0.480180  0.832019  -0.803862
N    -1.376825  0.017144  1.994725
C    -1.408766  0.484409  3.379647
C    -0.833703  1.929077  3.449093
O    -1.141881  2.742356  2.583820
H    -2.267780  -0.095890  1.527773
H    -2.475504  0.658186  3.593357
C    -0.963191  -0.598638  4.393062
C    0.376314  -1.327052  4.200736
C    1.642599  -0.556815  4.611368
N    2.858030  -1.342699  4.541514
C    3.723340  -1.432341  3.451541
N    3.546076  -0.482116  2.463393
N    4.706971  -2.269352  3.357338
H    -1.753607  -1.364016  4.367640
H    -1.026534  -0.173475  5.410074
H    0.479672  -1.658527  3.158556
H    0.333236  -2.246624  4.806896
H    1.527639  -0.199745  5.653038
H    1.775481  0.332571  3.985237
H    2.905913  -2.146214  5.156888
H    4.167540  -0.653264  1.680853
H    2.604798  -0.201644  2.188684
H    4.801175  -2.828406  4.209709
N    -0.110930  2.247378  4.555723
C    0.484600  3.559171  4.734194
H    0.197571  1.499873  5.163410
H    0.370949  3.892323  5.773449
H    -0.033282  4.256690  4.068479
H    1.553252  3.555647  4.472552
