35
Energy: -21189.8715309 eV PBE+vdW (tier 2 basis)
C    0.059619  0.006200  0.553534
C    0.082625  0.189602  2.056060
O    0.962164  -0.310461  2.752023
H    0.899032  -0.641944  0.288782
H    0.176076  0.963670  0.027896
H    -0.881436  -0.463966  0.242930
N    -0.879549  0.976950  2.665089
C    -2.142478  1.542630  2.208395
C    -3.209929  0.451971  1.942540
O    -2.913522  -0.690210  1.607715
H    -0.764780  0.941754  3.673820
H    -2.488515  2.124709  3.073280
C    -2.017988  2.551237  1.020604
C    -2.570281  2.111413  -0.339773
C    -2.062145  3.012212  -1.472950
N    -2.559791  2.635947  -2.791543
C    -1.831607  1.916089  -3.732043
N    -0.813981  1.129718  -3.190732
N    -2.002014  1.930549  -5.010829
H    -0.950189  2.795849  0.928822
H    -2.507299  3.491922  1.313931
H    -3.670817  2.125701  -0.341018
H    -2.290368  1.070510  -0.551174
H    -0.961274  2.999590  -1.489129
H    -2.359738  4.054324  -1.277987
H    -3.257787  3.244239  -3.199399
H    -0.394529  0.551054  -3.912549
H    -1.056765  0.594878  -2.361317
H    -2.666153  2.656797  -5.293123
N    -4.517363  0.825989  2.102822
C    -5.058581  2.136573  2.417029
H    -5.171627  0.090692  1.851867
H    -6.104604  2.019691  2.720195
H    -5.028366  2.830048  1.561147
H    -4.526304  2.600667  3.257701
