35
Energy: -21190.1613221 eV PBE+vdW (tier 2 basis)
C    -0.203294  -0.097085  -0.103159
C    -0.110246  -0.165065  1.410871
O    0.935561  -0.421143  1.999090
H    0.415886  0.738064  -0.455001
H    -1.224461  0.036724  -0.481955
H    0.219951  -1.016516  -0.524861
N    -1.279543  0.070100  2.085446
C    -1.343994  0.137347  3.538621
C    -0.888766  -1.123361  4.305530
O    -0.301455  -0.974636  5.375701
H    -2.114881  0.294136  1.557448
H    -0.628169  0.896697  3.884351
C    -2.775784  0.540051  3.949408
C    -3.018425  0.702582  5.453531
C    -2.244975  1.857903  6.090486
N    -2.582218  1.969036  7.500506
C    -2.223286  3.096248  8.235838
N    -2.512787  2.947719  9.596494
N    -1.688089  4.190258  7.816396
H    -3.480123  -0.213003  3.559946
H    -3.014413  1.486949  3.435967
H    -2.761901  -0.234398  5.971436
H    -4.093048  0.871020  5.617150
H    -2.531175  2.801629  5.600116
H    -1.159533  1.719313  5.941584
H    -2.488371  1.099779  8.020240
H    -2.362429  3.820760  10.093584
H    -3.423696  2.542487  9.794561
H    -1.383573  4.112135  6.843725
N    -1.224035  -2.372690  3.863689
C    -1.859818  -2.811075  2.632856
H    -0.827763  -3.093720  4.459100
H    -2.751992  -2.217107  2.403891
H    -2.185546  -3.848889  2.770145
H    -1.181812  -2.774884  1.766693
