35
Energy: -21190.522337 eV PBE+vdW (tier 2 basis)
C    -0.339377  -0.037637  -0.327448
C    -0.197274  -0.134277  1.182211
O    0.839368  -0.530539  1.712022
H    -0.177483  -1.032809  -0.759990
H    0.450178  0.619227  -0.712848
H    -1.313438  0.342573  -0.659460
N    -1.297544  0.266534  1.891125
C    -1.387186  0.180911  3.343011
C    -2.429128  -0.899003  3.679854
O    -3.621577  -0.725256  3.408104
H    -2.157443  0.467434  1.390664
H    -0.382804  -0.089114  3.689806
C    -1.789194  1.540695  3.938267
C    -2.067282  1.554482  5.447223
C    -0.907318  1.162892  6.376742
N    0.297778  1.966979  6.216110
C    1.367267  1.506729  5.469438
N    2.297235  2.517656  5.183689
N    1.426978  0.279558  5.079086
H    -2.700513  1.887043  3.427759
H    -0.989193  2.252456  3.684551
H    -2.915750  0.889083  5.671696
H    -2.410452  2.567403  5.716664
H    -0.602222  0.122487  6.217513
H    -1.250202  1.242633  7.419881
H    0.153584  2.970666  6.175561
H    3.175946  2.166573  4.818096
H    2.447941  3.186610  5.934956
H    2.287318  0.082319  4.565824
N    -1.989308  -2.040495  4.276808
C    -0.613959  -2.486383  4.481632
H    -2.728002  -2.729477  4.393278
H    0.029203  -1.662974  4.816583
H    -0.176554  -2.910348  3.565154
H    -0.614389  -3.257161  5.261337
