35
Energy: -21190.5333389 eV PBE+vdW (tier 2 basis)
C    0.516363  1.637078  3.281715
C    0.299141  0.448624  4.202288
O    1.030636  0.229422  5.166881
H    -0.382854  2.261483  3.190575
H    0.783171  1.304561  2.267946
H    1.336561  2.235921  3.685644
N    -0.767221  -0.375888  3.924264
C    -1.640843  -0.303173  2.759465
C    -2.741092  0.777828  2.849046
O    -3.349191  1.139951  1.842895
H    -0.753120  -1.270283  4.446388
H    -1.066030  -0.054123  1.852445
C    -2.327929  -1.664926  2.551519
C    -1.335300  -2.802499  2.285173
C    -1.795765  -4.184349  2.786119
N    -2.395798  -4.239352  4.116871
C    -1.800884  -3.799580  5.273830
N    -2.535931  -4.143417  6.415528
N    -0.714790  -3.094989  5.244903
H    -3.050074  -1.558868  1.731811
H    -2.910925  -1.881922  3.460755
H    -0.376835  -2.576704  2.765683
H    -1.137256  -2.889697  1.205959
H    -0.932819  -4.867812  2.755529
H    -2.555313  -4.599199  2.108994
H    -3.388025  -4.425405  4.170351
H    -2.089865  -3.884266  7.288459
H    -2.900837  -5.091824  6.434466
H    -0.326031  -2.953365  6.179513
N    -2.988495  1.237185  4.104151
C    -3.999244  2.231120  4.396261
H    -2.387913  0.878721  4.840841
H    -4.486391  2.495839  3.451145
H    -3.554946  3.135883  4.835108
H    -4.756352  1.838736  5.090027
