35
Energy: -21190.1212251 eV PBE+vdW (tier 2 basis)
C    -0.526349  0.699705  0.134929
C    -0.338714  1.049645  1.600301
O    0.767831  1.129102  2.123638
H    0.135078  1.334072  -0.466495
H    -1.557615  0.811012  -0.222751
H    -0.210369  -0.340286  -0.019036
N    -1.494110  1.287633  2.300013
C    -1.529117  1.504743  3.746774
C    -0.466112  2.520881  4.230428
O    0.254462  2.286759  5.201201
H    -2.378806  1.152491  1.825837
H    -2.502270  1.985941  3.943708
C    -1.479290  0.154431  4.494434
C    -1.616308  0.176950  6.025178
C    -2.719621  1.097830  6.572413
N    -2.727450  1.236356  8.018041
C    -1.871633  2.068244  8.737149
N    -1.130698  2.962480  7.972574
N    -1.792839  2.124433  10.026881
H    -0.535600  -0.340410  4.227515
H    -2.288969  -0.454540  4.060010
H    -0.657760  0.473322  6.464603
H    -1.813647  -0.851658  6.366800
H    -3.712271  0.734569  6.259528
H    -2.623838  2.112807  6.161673
H    -3.064970  0.441539  8.547222
H    -0.500440  3.489371  8.568990
H    -0.670246  2.616730  7.129853
H    -2.490520  1.517495  10.466597
N    -0.437180  3.746755  3.632397
C    -1.193394  4.260034  2.505783
H    0.301924  4.333849  4.006425
H    -1.180420  5.355333  2.551404
H    -2.242440  3.943201  2.553056
H    -0.777955  3.947401  1.535481
