35
Energy: -21190.4680241 eV PBE+vdW (tier 2 basis)
C    -0.786428  1.605409  -0.555898
C    -0.477843  0.574291  0.516916
O    0.440339  -0.238718  0.390000
H    -1.839120  1.571472  -0.869809
H    -0.144107  1.401380  -1.416355
H    -0.593674  2.627296  -0.198894
N    -1.265662  0.577529  1.637093
C    -2.261196  1.576478  1.981627
C    -1.718719  2.990996  2.308702
O    -2.351044  3.978825  1.930181
H    -1.010588  -0.118314  2.361915
H    -2.908389  1.768896  1.111948
C    -3.175340  1.114103  3.133907
C    -4.109878  -0.057806  2.796612
C    -3.510058  -1.472007  2.844038
N    -3.070356  -1.904168  4.163059
C    -1.766491  -1.859212  4.586194
N    -1.591374  -2.418799  5.856545
N    -0.843134  -1.308907  3.863387
H    -3.792143  1.983018  3.402429
H    -2.571951  0.875659  4.022630
H    -4.536955  0.092866  1.791623
H    -4.965911  -0.027666  3.490786
H    -2.649560  -1.563161  2.172469
H    -4.270957  -2.186214  2.492963
H    -3.775318  -2.004743  4.883792
H    -0.623674  -2.485073  6.151511
H    -2.105944  -3.277869  6.030809
H    0.092040  -1.501223  4.224961
N    -0.562057  3.130523  3.020071
C    0.317591  2.129857  3.610843
H    -0.305498  4.105692  3.139183
H    0.909332  2.620489  4.393033
H    1.006714  1.686636  2.877497
H    -0.247777  1.317255  4.081048
