35
Energy: -21190.1727436 eV PBE+vdW (tier 2 basis)
C    -0.558289  0.917182  0.241149
C    -0.417146  0.288907  1.618484
O    0.569798  -0.378752  1.920017
H    -0.619092  0.112359  -0.502688
H    0.349125  1.493167  0.024482
H    -1.433902  1.568283  0.127552
N    -1.467387  0.538163  2.465061
C    -1.744672  0.010232  3.807738
C    -1.564655  1.054894  4.935053
O    -2.509160  1.243836  5.715250
H    -2.202997  1.125820  2.090778
H    -2.832395  -0.146805  3.832931
C    -1.110474  -1.362099  4.119980
C    -1.678218  -2.013743  5.393242
C    -0.944157  -1.624065  6.692505
N    -1.521014  -2.164652  7.907379
C    -2.731018  -1.754539  8.456932
N    -3.081311  -0.430398  8.228525
N    -3.363623  -2.602073  9.203444
H    -0.017195  -1.292834  4.176829
H    -1.317796  -2.005285  3.253816
H    -2.749506  -1.782325  5.498559
H    -1.614354  -3.106755  5.285838
H    -0.872761  -0.532707  6.795392
H    0.096744  -1.977716  6.636437
H    -1.391078  -3.159222  8.065964
H    -4.042501  -0.214080  8.460952
H    -2.772127  0.047385  7.382023
H    -4.186685  -2.172304  9.632362
N    -0.399091  1.730776  5.088726
C    0.840465  1.668588  4.331180
H    -0.442731  2.392491  5.859482
H    0.905832  2.482647  3.592978
H    0.936420  0.719199  3.795561
H    1.686546  1.758641  5.023545
