35
Energy: -21190.1500895 eV PBE+vdW (tier 2 basis)
C    -0.116714  -0.150549  -0.003826
C    -0.029184  0.023944  1.505443
O    1.052231  0.200084  2.064259
H    0.445048  -1.050951  -0.283095
H    0.377022  0.703225  -0.483419
H    -1.139230  -0.237568  -0.392025
N    -1.234836  -0.035106  2.151764
C    -1.558010  0.023159  3.585292
C    -2.230290  1.349169  4.022620
O    -3.319994  1.294572  4.597895
H    -2.042702  -0.163360  1.554073
H    -2.383263  -0.691545  3.719051
C    -0.455500  -0.397734  4.568700
C    -0.002996  -1.848996  4.404432
C    0.913115  -2.306125  5.545473
N    0.248963  -2.319356  6.844199
C    0.585028  -1.424609  7.841947
N    -0.082486  -1.705645  9.048043
N    1.441862  -0.484751  7.632819
H    -0.893605  -0.269640  5.569800
H    0.413871  0.266313  4.516430
H    0.545543  -1.967535  3.458577
H    -0.883841  -2.512140  4.355100
H    1.777448  -1.633886  5.630811
H    1.295986  -3.315236  5.331744
H    -0.107994  -3.210771  7.164995
H    0.005226  -0.964262  9.735050
H    -1.054103  -1.986707  8.935035
H    1.512385  0.137515  8.440290
N    -1.617016  2.544655  3.799479
C    -0.352091  2.856946  3.156421
H    -2.179669  3.324217  4.128277
H    0.332509  2.003765  3.180316
H    0.126266  3.688906  3.688506
H    -0.488600  3.150525  2.103266
