35
Energy: -21190.5388278 eV PBE+vdW (tier 2 basis)
C    1.718632  -2.241106  0.810479
C    1.727337  -0.883662  1.482812
O    2.771837  -0.357689  1.879484
H    2.105917  -2.986892  1.516163
H    2.403956  -2.213904  -0.045431
H    0.726584  -2.556973  0.465141
N    0.511689  -0.276016  1.612586
C    0.361496  1.023229  2.270626
C    0.205519  0.805092  3.802420
O    -0.900881  0.808439  4.346699
H    -0.327473  -0.798427  1.386331
H    1.305047  1.553840  2.084030
C    -0.828179  1.789276  1.685974
C    -0.791785  3.320661  1.824963
C    -0.644530  3.893951  3.241402
N    0.742673  3.832762  3.681037
C    1.208968  3.860122  4.986424
N    0.235574  3.764523  5.968555
N    2.452920  3.880371  5.343531
H    -1.742830  1.403391  2.161891
H    -0.887018  1.554705  0.612553
H    -1.726201  3.714211  1.397981
H    0.015289  3.732403  1.193764
H    -1.255353  3.300490  3.935876
H    -1.029202  4.932280  3.247262
H    1.432875  4.119838  2.996831
H    0.619020  3.919355  6.894136
H    -0.655221  4.217898  5.804804
H    3.072553  3.821936  4.531288
N    1.378734  0.583617  4.437622
C    1.483054  0.378006  5.869091
H    2.216591  0.540899  3.860350
H    1.817414  -0.643133  6.104430
H    0.491417  0.539131  6.303335
H    2.185576  1.102375  6.301564
