35
Energy: -21190.8624396 eV PBE+vdW (tier 2 basis)
C    -1.878954  0.154652  2.089952
C    -0.370356  0.055698  2.049706
O    0.218768  -1.012329  1.817712
H    -2.228841  1.090562  2.543405
H    -2.278060  -0.702501  2.644001
H    -2.265284  0.090041  1.063501
N    0.288677  1.224672  2.274467
C    1.746383  1.312262  2.257811
C    2.339843  0.863195  3.624015
O    2.896351  1.625672  4.428452
H    -0.260935  2.006732  2.650237
H    2.066014  0.537827  1.544449
C    2.281950  2.671169  1.745311
C    1.406415  3.929118  1.881751
C    1.407478  4.654388  3.242021
N    1.093585  3.865372  4.423280
C    -0.122039  3.236835  4.580335
N    -0.128475  2.281791  5.581760
N    -1.224209  3.451393  3.916745
H    2.481983  2.540360  0.673329
H    3.256424  2.842854  2.225857
H    0.377752  3.702929  1.565384
H    1.771225  4.663441  1.146837
H    0.721993  5.515116  3.187801
H    2.405828  5.077066  3.421883
H    1.888470  3.318165  4.758679
H    -0.965566  1.711771  5.590665
H    0.739839  1.789161  5.764875
H    -1.128041  4.261208  3.300351
N    2.184771  -0.462201  3.839329
C    2.580758  -1.110118  5.073993
H    1.638041  -0.977769  3.137811
H    2.972426  -2.111420  4.859236
H    1.736690  -1.209822  5.774898
H    3.361095  -0.510293  5.554158
