35
Energy: -21190.1739679 eV PBE+vdW (tier 2 basis)
C    0.225494  0.635961  0.351092
C    0.246080  0.169614  1.792034
O    1.256494  0.208106  2.490650
H    1.253289  0.851125  0.048735
H    -0.379138  1.547083  0.238059
H    -0.206447  -0.118443  -0.320278
N    -0.934988  -0.314903  2.308108
C    -2.255642  -0.289054  1.697326
C    -2.837240  1.121172  1.435699
O    -3.412261  1.345691  0.370839
H    -0.859048  -0.599378  3.280935
H    -2.199343  -0.724635  0.688741
C    -3.223126  -1.149223  2.530705
C    -4.592822  -1.358849  1.884173
C    -5.537756  -2.156177  2.796930
N    -6.821142  -2.488150  2.207257
C    -6.967394  -3.551557  1.320078
N    -8.240977  -3.581530  0.742867
N    -6.106066  -4.453232  0.996544
H    -3.347611  -0.698909  3.530534
H    -2.736732  -2.125578  2.688834
H    -4.475371  -1.885823  0.925561
H    -5.055013  -0.390142  1.642177
H    -5.728735  -1.588528  3.721063
H    -5.061962  -3.097058  3.114754
H    -7.425508  -1.696228  2.008739
H    -8.369380  -4.433101  0.203834
H    -9.006370  -3.421202  1.392541
H    -5.177477  -4.249319  1.371855
N    -2.727620  2.093681  2.390293
C    -2.102858  2.075448  3.706299
H    -3.131199  2.972523  2.080823
H    -2.421877  1.208788  4.299318
H    -2.428899  2.971710  4.245772
H    -1.005197  2.082355  3.657624
