35
Energy: -21190.2793215 eV PBE+vdW (tier 2 basis)
C    0.264189  -1.274151  0.862851
C    -0.061834  -0.633914  2.201423
O    0.728678  0.102556  2.781255
H    0.652740  -0.502694  0.188159
H    -0.590852  -1.770684  0.387342
H    1.063742  -2.011513  1.013706
N    -1.315027  -0.931026  2.696623
C    -1.679764  -0.632094  4.089497
C    -3.074935  -1.159849  4.421546
O    -3.388169  -1.437763  5.579920
H    -1.735089  -1.771762  2.310179
H    -0.985627  -1.169946  4.754353
C    -1.662392  0.899972  4.401119
C    -0.729542  1.330868  5.537390
C    -1.122005  0.859920  6.951578
N    -0.997935  -0.574387  7.208161
C    0.196751  -1.247256  7.013186
N    1.325363  -0.630874  7.552148
N    0.181273  -2.398784  6.421641
H    -2.688099  1.232158  4.629278
H    -1.362309  1.422071  3.485038
H    -0.702219  2.432647  5.551099
H    0.292211  1.000233  5.297994
H    -2.171127  1.118264  7.156343
H    -0.534004  1.425846  7.693361
H    -1.785734  -1.118484  6.844559
H    1.232961  0.336177  7.842036
H    2.193947  -0.822251  7.068173
H    1.097771  -2.852025  6.477528
N    -3.951205  -1.247247  3.377706
C    -5.346528  -1.601511  3.567687
H    -3.668073  -0.829742  2.497258
H    -5.426940  -2.171672  4.498706
H    -5.698203  -2.217760  2.731297
H    -5.988537  -0.711456  3.651954
