35
Energy: -21190.0295 eV PBE+vdW (tier 2 basis)
C    -0.589379  0.121803  -0.077722
C    -0.520044  0.374060  1.418981
O    0.371824  1.040879  1.932543
H    0.279081  -0.481960  -0.370940
H    -0.510147  1.082363  -0.600301
H    -1.502606  -0.391527  -0.404179
N    -1.534964  -0.183960  2.152707
C    -1.599033  -0.158125  3.613862
C    -1.280177  1.239846  4.213169
O    -0.456520  1.373492  5.111225
H    -2.211823  -0.760948  1.668435
H    -2.654745  -0.361448  3.862363
C    -0.710489  -1.237957  4.259276
C    -1.136908  -1.652630  5.672852
C    -2.365763  -2.560165  5.694113
N    -2.758070  -2.852214  7.070662
C    -3.890773  -3.593092  7.381467
N    -4.145824  -4.647911  6.497651
N    -4.600910  -3.249739  8.401819
H    0.317036  -0.855162  4.279453
H    -0.719785  -2.117819  3.596478
H    -1.320270  -0.750436  6.276126
H    -0.304397  -2.178535  6.162309
H    -2.120780  -3.499058  5.172883
H    -3.202449  -2.102065  5.129676
H    -2.700073  -2.051029  7.695555
H    -4.829623  -5.311783  6.843757
H    -3.324171  -5.108868  6.115873
H    -5.324068  -3.944363  8.606831
N    -2.032767  2.299948  3.786580
C    -3.029679  2.369556  2.735829
H    -1.725316  3.175007  4.199195
H    -3.661098  3.248493  2.912864
H    -3.684937  1.489763  2.751776
H    -2.588632  2.455760  1.730194
