35
Energy: -21190.3136191 eV PBE+vdW (tier 2 basis)
C    -1.894867  -1.192573  1.251803
C    -1.078526  -0.458159  2.289671
O    -0.069948  -0.952993  2.788004
H    -2.847205  -0.721578  0.989997
H    -2.081784  -2.206114  1.626221
H    -1.275439  -1.291427  0.347816
N    -1.486895  0.799711  2.704056
C    -2.462532  1.713820  2.103937
C    -3.934469  1.237325  2.241475
O    -4.813843  1.660847  1.495425
H    -0.816617  1.207518  3.350306
H    -2.424292  2.611808  2.744322
C    -2.149685  2.180984  0.673372
C    -0.831790  2.964525  0.545497
C    0.407895  2.137509  0.176092
N    0.306105  1.592454  -1.166173
C    0.472526  0.257443  -1.496207
N    0.088505  -0.008369  -2.820026
N    0.883866  -0.719097  -0.764344
H    -2.997406  2.805612  0.366803
H    -2.150538  1.324180  -0.016168
H    -0.618552  3.508821  1.480017
H    -0.952230  3.748772  -0.219873
H    0.545328  1.307130  0.881477
H    1.305889  2.772076  0.265734
H    -0.262878  2.127480  -1.813482
H    0.376736  -0.946737  -3.083291
H    0.403622  0.680613  -3.498501
H    1.064656  -0.449635  0.204693
N    -4.161183  0.393887  3.283367
C    -5.473388  -0.137122  3.592298
H    -3.349886  0.070235  3.799026
H    -5.744700  0.069005  4.636484
H    -5.516780  -1.222728  3.422951
H    -6.195417  0.353142  2.930672
