35
Energy: -21190.119745 eV PBE+vdW (tier 2 basis)
C    0.264741  0.134175  1.096044
C    -0.115977  0.096686  2.562212
O    0.710934  0.327557  3.444003
H    1.119169  0.809561  0.994400
H    0.588624  -0.869826  0.785815
H    -0.538641  0.445700  0.421999
N    -1.396218  -0.268323  2.918014
C    -2.631629  -0.423748  2.142655
C    -2.442208  -1.185911  0.812856
O    -2.796716  -0.717439  -0.266883
H    -1.512097  -0.246696  3.928261
H    -3.258263  -1.098159  2.753224
C    -3.440448  0.877434  1.990682
C    -2.738991  2.049873  1.304605
C    -3.559145  3.347098  1.331709
N    -3.748401  3.914520  2.659681
C    -4.916366  3.745014  3.375242
N    -4.821319  4.282497  4.672205
N    -5.929418  3.124825  2.871536
H    -3.747815  1.180175  3.003173
H    -4.369139  0.640874  1.453276
H    -2.535525  1.797396  0.254447
H    -1.763700  2.243454  1.782208
H    -4.563253  3.178088  0.923413
H    -3.061117  4.098626  0.699788
H    -2.911340  4.050509  3.216327
H    -5.713290  4.329181  5.153186
H    -4.324274  5.168630  4.728610
H    -6.742856  3.188372  3.487119
N    -1.906503  -2.442081  0.890380
C    -1.471345  -3.191821  2.056863
H    -1.810452  -2.881535  -0.019704
H    -2.166131  -3.061119  2.896259
H    -0.466205  -2.903830  2.398224
H    -1.461345  -4.257366  1.800362
