35
Energy: -21190.2283376 eV PBE+vdW (tier 2 basis)
C    -0.498031  0.048085  -0.134312
C    -0.111995  0.108878  1.330998
O    1.055646  0.003118  1.700034
H    -1.371401  -0.582754  -0.342413
H    0.364895  -0.328724  -0.689921
H    -0.726000  1.059170  -0.503476
N    -1.114048  0.293185  2.254862
C    -2.527972  0.559748  2.036014
C    -2.783070  2.066140  2.267084
O    -2.573129  2.559031  3.375072
H    -0.768391  0.455955  3.198638
H    -2.768939  0.256377  1.014158
C    -3.367340  -0.251244  3.039572
C    -4.892542  -0.101768  2.918126
C    -5.603415  -1.066356  1.955099
N    -5.357777  -0.875983  0.529212
C    -4.313308  -1.387456  -0.219998
N    -3.626701  -2.454852  0.350772
N    -3.912322  -0.945693  -1.369379
H    -3.061383  0.081331  4.042108
H    -3.074900  -1.305705  2.938604
H    -5.158578  0.936127  2.656860
H    -5.338705  -0.271170  3.910359
H    -6.689927  -0.979462  2.107276
H    -5.351870  -2.101682  2.225243
H    -5.779766  -0.050071  0.121054
H    -4.177896  -3.116104  0.887402
H    -3.028484  -2.906019  -0.334446
H    -4.434873  -0.112704  -1.652406
N    -3.209751  2.841687  1.225559
C    -3.600156  2.472008  -0.122190
H    -3.333765  3.814157  1.496829
H    -4.694217  2.374883  -0.224966
H    -3.143716  1.524705  -0.421881
H    -3.260285  3.240060  -0.828642
