35
Energy: -21190.0926958 eV PBE+vdW (tier 2 basis)
C    -1.137119  0.385878  1.477280
C    -2.015273  0.345867  2.700624
O    -2.045646  -0.637007  3.442339
H    -1.447405  1.088499  0.698967
H    -1.092202  -0.628115  1.066256
H    -0.117245  0.668086  1.795965
N    -2.787901  1.442361  3.037520
C    -3.041910  2.731994  2.395093
C    -3.192679  2.656769  0.857299
O    -2.538087  3.374070  0.103272
H    -3.276045  1.278096  3.913747
H    -4.051051  3.017980  2.743663
C    -2.117550  3.885518  2.828876
C    -0.597032  3.712725  2.688408
C    0.075128  3.024929  3.889266
N    1.522455  3.183745  3.935323
C    2.364642  2.379324  3.193933
N    3.704717  2.789806  3.289430
N    1.910180  1.395696  2.493956
H    -2.354158  4.110341  3.882710
H    -2.430822  4.763209  2.247366
H    -0.161592  4.720723  2.597178
H    -0.338667  3.193366  1.757919
H    -0.129849  1.949078  3.907581
H    -0.328299  3.445729  4.824268
H    1.855430  4.133774  4.064720
H    4.360230  2.133329  2.879321
H    3.995434  3.076560  4.221025
H    2.670571  0.825976  2.117130
N    -4.136191  1.797390  0.366571
C    -5.035259  0.901355  1.075458
H    -4.166446  1.792078  -0.648022
H    -5.877017  0.663481  0.414807
H    -5.447360  1.380117  1.972972
H    -4.550937  -0.037691  1.379330
