35
Energy: -21190.5223317 eV PBE+vdW (tier 2 basis)
C    -1.053959  -2.225950  4.678834
C    -0.447072  -1.325377  3.623516
O    -0.673802  -1.486948  2.418792
H    -0.758855  -3.262366  4.473732
H    -2.146786  -2.174870  4.595710
H    -0.762371  -1.965349  5.703624
N    0.356141  -0.324866  4.082691
C    0.993495  0.656133  3.202540
C    2.321074  0.089341  2.626764
O    3.424117  0.477023  3.008908
H    0.592682  -0.298204  5.068300
H    0.296317  0.804269  2.363366
C    1.220910  1.977817  3.929127
C    -0.070634  2.695774  4.323801
C    0.172844  4.012156  5.077671
N    0.949143  5.019080  4.348776
C    0.517480  5.571435  3.140881
N    -0.860108  5.776338  3.068531
N    1.254519  5.898147  2.135181
H    1.817877  2.612084  3.259465
H    1.861021  1.800229  4.809959
H    -0.693506  2.049312  4.963154
H    -0.669190  2.907706  3.424377
H    0.717139  3.817543  6.014130
H    -0.792752  4.444830  5.374485
H    1.948497  4.842271  4.342922
H    -1.097403  6.323179  2.246258
H    -1.293440  6.133921  3.914986
H    2.215600  5.565177  2.252423
N    2.119014  -0.862650  1.678433
C    3.206857  -1.597978  1.064724
H    1.152815  -1.162927  1.529076
H    3.094212  -1.613467  -0.027314
H    3.250959  -2.635830  1.428145
H    4.145164  -1.095983  1.323034
