35
Energy: -21190.4110661 eV PBE+vdW (tier 2 basis)
C    -0.492089  1.045459  0.164337
C    -0.988556  0.149319  1.283360
O    -0.223016  -0.358745  2.103219
H    -1.295060  1.453104  -0.461566
H    0.197728  0.470101  -0.465924
H    0.079329  1.873781  0.600991
N    -2.343740  -0.031328  1.325147
C    -2.963909  -1.002278  2.205896
C    -4.008508  -1.757444  1.368884
O    -4.476895  -1.254062  0.345251
H    -2.921885  0.226910  0.526506
H    -2.161416  -1.672314  2.551409
C    -3.643945  -0.349920  3.431280
C    -2.660755  0.393620  4.337235
C    -3.303853  0.975859  5.603157
N    -4.325067  1.997341  5.360422
C    -5.667680  1.721369  5.116381
N    -6.166998  0.616646  5.812379
N    -6.463078  2.379006  4.342172
H    -4.164393  -1.124430  4.014811
H    -4.427282  0.331221  3.066065
H    -2.175023  1.204606  3.772039
H    -1.844936  -0.281554  4.640496
H    -2.520490  1.422063  6.234208
H    -3.760133  0.170859  6.193383
H    -3.993847  2.785795  4.812158
H    -7.176809  0.571967  5.707593
H    -5.880975  0.559815  6.786375
H    -5.952541  3.064287  3.777907
N    -4.416664  -2.980557  1.807450
C    -3.988175  -3.714503  2.984913
H    -5.166101  -3.375526  1.246957
H    -4.074046  -4.789739  2.788392
H    -4.591242  -3.474814  3.874723
H    -2.937254  -3.503794  3.212336
