35
Energy: -21190.1947927 eV PBE+vdW (tier 2 basis)
C    0.376573  -0.318394  0.189152
C    0.220227  -0.172026  1.690200
O    1.182130  -0.249198  2.451872
H    1.445142  -0.402626  -0.025204
H    -0.031735  0.532241  -0.372644
H    -0.128312  -1.228271  -0.162891
N    -1.040059  0.035786  2.204868
C    -2.325410  0.211981  1.533306
C    -2.663384  -1.019047  0.646456
O    -2.656116  -2.147287  1.127949
H    -1.045836  0.009043  3.218852
H    -3.072880  0.144818  2.338856
C    -2.474924  1.592068  0.865714
C    -2.227154  2.765761  1.816165
C    -2.121286  4.120376  1.098907
N    -0.962743  4.235156  0.208576
C    -0.927755  3.738151  -1.092152
N    -2.133633  3.851228  -1.789173
N    0.085114  3.205048  -1.688961
H    -3.488298  1.679621  0.443949
H    -1.774234  1.668653  0.022083
H    -1.295524  2.591800  2.377401
H    -3.033568  2.824989  2.566080
H    -2.051897  4.925914  1.844373
H    -3.030395  4.313552  0.514899
H    -0.073854  4.106480  0.684275
H    -1.985551  3.648985  -2.773987
H    -2.630130  4.727057  -1.649258
H    0.864552  3.054459  -1.042210
N    -2.985182  -0.758215  -0.652145
C    -3.290328  -1.812883  -1.600472
H    -2.876377  0.187097  -0.999095
H    -4.193328  -1.567666  -2.174331
H    -3.458421  -2.733743  -1.032671
H    -2.458291  -1.979329  -2.300896
