35
Energy: -21190.4962669 eV PBE+vdW (tier 2 basis)
C    1.453182  1.107680  1.489864
C    0.734444  0.529795  2.689759
O    1.150776  0.710914  3.838317
H    2.533968  1.009076  1.635690
H    1.216923  2.179440  1.435794
H    1.167550  0.639485  0.539882
N    -0.393184  -0.186479  2.411296
C    -1.398125  -0.549644  3.417649
C    -1.659680  0.680937  4.336022
O    -1.893109  1.770655  3.812748
H    -0.707735  -0.163227  1.449345
H    -2.343745  -0.613655  2.857566
C    -1.172862  -1.950063  4.032899
C    0.250093  -2.306955  4.518305
C    0.349175  -2.721957  5.989612
N    -0.132738  -1.709366  6.949436
C    0.748022  -0.766984  7.523543
N    1.632823  -0.185324  6.640005
N    0.633815  -0.562922  8.793431
H    -1.472628  -2.676697  3.264004
H    -1.904149  -2.078692  4.846071
H    0.936472  -1.475991  4.327481
H    0.639380  -3.147236  3.925398
H    1.390682  -3.003202  6.215223
H    -0.269028  -3.616102  6.155551
H    -0.654606  -2.118619  7.721437
H    2.193891  0.559935  7.035078
H    1.328253  0.015666  5.683076
H    1.210101  0.227568  9.095406
N    -1.706420  0.458947  5.666067
C    -1.909215  1.557507  6.595311
H    -1.317490  -0.410159  6.049671
H    -1.794327  1.172707  7.614062
H    -2.912011  1.989960  6.479925
H    -1.176765  2.359979  6.425015
