35
Energy: -21190.5703765 eV PBE+vdW (tier 2 basis)
C    -0.162288  0.119649  -0.028669
C    -0.062841  0.069682  1.480318
O    1.026088  0.137205  2.065676
H    0.269827  1.066329  -0.376490
H    -1.188209  0.036195  -0.406927
H    0.444115  -0.690743  -0.451382
N    -1.239895  -0.051485  2.153239
C    -1.341887  -0.034097  3.613986
C    -1.021487  -1.425314  4.237090
O    -1.862070  -2.087652  4.855274
H    -2.094638  -0.182336  1.624319
H    -0.556774  0.654762  3.962830
C    -2.709452  0.486184  4.056608
C    -3.915035  -0.299207  3.498916
C    -4.963556  -0.608464  4.585563
N    -5.986754  -1.559482  4.197113
C    -5.766097  -2.933241  4.068142
N    -4.647042  -3.418487  4.719275
N    -6.565091  -3.763429  3.477906
H    -2.778115  1.549338  3.786708
H    -2.724805  0.442323  5.155045
H    -3.584565  -1.260982  3.081084
H    -4.399025  0.252321  2.677563
H    -5.463046  0.319759  4.902454
H    -4.449240  -0.997355  5.475763
H    -6.699735  -1.212326  3.566344
H    -4.503510  -4.402985  4.526567
H    -3.787786  -2.871503  4.754470
H    -7.407534  -3.289467  3.141250
N    0.262460  -1.806464  4.052818
C    0.781463  -3.081990  4.506905
H    0.850853  -1.180469  3.491882
H    1.685528  -2.936760  5.112909
H    1.029076  -3.736728  3.658858
H    0.014225  -3.568191  5.117923
