35
Energy: -21190.2063124 eV PBE+vdW (tier 2 basis)
C    -0.035255  -1.582586  -0.291574
C    0.553794  -0.891135  0.921343
O    1.672087  -1.188950  1.356962
H    0.755818  -2.175318  -0.758299
H    -0.441769  -0.872051  -1.023140
H    -0.848912  -2.261318  0.003164
N    -0.181243  0.095092  1.525571
C    -1.624290  0.266280  1.439772
C    -2.157290  1.715361  1.337891
O    -3.341089  1.853191  1.024634
H    0.278473  0.426788  2.380954
H    -1.954254  -0.166907  0.487663
C    -2.377710  -0.477066  2.574503
C    -1.823340  -0.200643  3.983646
C    -0.758217  -1.224097  4.434642
N    0.096760  -0.780508  5.532002
C    1.025460  0.246247  5.383865
N    1.561694  0.365724  4.095667
N    1.414198  1.075074  6.291820
H    -2.333241  -1.558140  2.365551
H    -3.433074  -0.187254  2.500947
H    -2.645977  -0.200898  4.713095
H    -1.390940  0.811459  4.032874
H    -0.119389  -1.513595  3.590759
H    -1.250667  -2.153202  4.756258
H    -0.353011  -0.764639  6.441684
H    2.347994  1.010197  4.112142
H    1.798727  -0.494998  3.597750
H    0.865259  0.974847  7.150170
N    -1.379021  2.811645  1.572520
C    -0.000323  2.972545  2.022904
H    -1.917727  3.663179  1.444139
H    0.180431  4.045420  2.148735
H    0.722492  2.586615  1.293530
H    0.186537  2.494259  2.994100
