35
Energy: -21190.1647583 eV PBE+vdW (tier 2 basis)
C    -0.194389  0.113788  0.103200
C    -0.176739  -0.095788  1.607253
O    0.679416  -0.771880  2.170430
H    0.706928  0.670452  -0.183643
H    -1.075534  0.656770  -0.260923
H    -0.144135  -0.864173  -0.390244
N    -1.190792  0.510992  2.298115
C    -1.266034  0.505504  3.753436
C    -1.277216  -0.883599  4.427615
O    -0.685124  -1.023062  5.495930
H    -1.849999  1.092542  1.793364
H    -0.352453  0.964072  4.162340
C    -2.489203  1.333456  4.186033
C    -2.548961  1.622914  5.686719
C    -3.779295  2.441984  6.100034
N    -3.857376  3.780275  5.507586
C    -4.372003  4.048529  4.242425
N    -5.446664  3.237760  3.869839
N    -3.962313  4.953163  3.417176
H    -2.455432  2.285351  3.632264
H    -3.415297  0.827106  3.869377
H    -2.547389  0.683193  6.258983
H    -1.634533  2.156161  5.995168
H    -3.787225  2.557432  7.193730
H    -4.694508  1.895334  5.838722
H    -3.060929  4.371535  5.726847
H    -6.128154  3.062759  4.603384
H    -5.878100  3.600038  3.024263
H    -3.090888  5.383654  3.739438
N    -2.024953  -1.904723  3.908099
C    -2.753053  -2.011197  2.655240
H    -1.905364  -2.758572  4.444611
H    -3.434055  -2.867436  2.729490
H    -3.364618  -1.121846  2.466475
H    -2.091324  -2.171447  1.790223
