35
Energy: -21190.6588193 eV PBE+vdW (tier 2 basis)
C    -1.229660  2.519694  3.271024
C    -0.839402  1.382164  4.194951
O    0.293000  1.261324  4.657710
H    -1.143381  3.464685  3.823220
H    -2.247976  2.427613  2.873136
H    -0.512682  2.563590  2.442251
N    -1.850932  0.492512  4.467327
C    -1.662896  -0.613131  5.398094
C    -2.126876  -1.952150  4.794645
O    -2.662587  -2.833282  5.474924
H    -2.774272  0.690948  4.079349
H    -0.564839  -0.682437  5.493421
C    -2.183424  -0.343703  6.828033
C    -3.676758  -0.483797  7.172799
C    -4.688350  0.216856  6.262251
N    -4.934131  -0.542901  5.043160
C    -4.968174  -0.003373  3.778968
N    -5.047556  -0.965281  2.768799
N    -4.870867  1.243844  3.432006
H    -1.842085  0.672443  7.077273
H    -1.635970  -1.019037  7.500625
H    -3.811567  -0.080377  8.187682
H    -3.938673  -1.549684  7.233795
H    -4.325248  1.221996  5.996804
H    -5.635951  0.362789  6.806586
H    -4.725251  -1.535948  5.108267
H    -5.307920  -0.542046  1.883315
H    -5.610526  -1.780916  2.990421
H    -4.796260  1.856331  4.246894
N    -1.855764  -2.093105  3.472023
C    -2.236052  -3.262016  2.707923
H    -1.511063  -1.273900  2.983803
H    -2.525428  -4.046701  3.414890
H    -1.393580  -3.618035  2.100752
H    -3.088898  -3.043970  2.047878
