35
Energy: -21190.3028051 eV PBE+vdW (tier 2 basis)
C    0.947817  0.079142  1.608626
C    -0.087831  -0.071734  2.703561
O    0.182866  0.112379  3.885139
H    0.775637  -0.554135  0.730970
H    1.928094  -0.146054  2.039313
H    0.965224  1.122855  1.264454
N    -1.377187  -0.447160  2.349796
C    -1.985515  -0.491415  1.015643
C    -1.429017  -1.662505  0.167754
O    -1.376372  -1.616759  -1.064409
H    -2.011832  -0.382744  3.141387
H    -3.036669  -0.772564  1.198321
C    -2.002285  0.876071  0.301606
C    -3.050548  1.058602  -0.816406
C    -2.504790  1.075680  -2.258790
N    -1.433177  2.031357  -2.484403
C    -0.067390  1.781327  -2.383803
N    0.308258  0.452136  -2.470107
N    0.855055  2.688136  -2.300822
H    -1.002646  1.116702  -0.081554
H    -2.197123  1.609956  1.095423
H    -3.574820  2.011514  -0.644146
H    -3.826135  0.277944  -0.754267
H    -3.335785  1.317245  -2.940394
H    -2.155954  0.079273  -2.545285
H    -1.669332  3.004498  -2.326521
H    1.300003  0.337345  -2.295944
H    -0.284118  -0.264098  -2.051797
H    0.455481  3.629420  -2.344940
N    -1.070192  -2.754031  0.885726
C    -0.549817  -3.965137  0.281419
H    -1.071502  -2.653909  1.895970
H    -1.121242  -4.841615  0.614101
H    0.508977  -4.114863  0.536359
H    -0.642421  -3.867021  -0.805008
