35
Energy: -21190.292016 eV PBE+vdW (tier 2 basis)
C    0.081818  0.758542  -0.103106
C    -0.022579  0.212496  1.309508
O    0.883882  -0.420771  1.842904
H    0.836909  1.555401  -0.114812
H    -0.860628  1.161473  -0.495015
H    0.437864  -0.038518  -0.766104
N    -1.205708  0.460185  1.953512
C    -1.407258  0.146920  3.362593
C    -1.162986  -1.320052  3.756942
O    -0.661143  -1.562614  4.861470
H    -1.903944  1.031978  1.492389
H    -0.676502  0.705116  3.963312
C    -2.825966  0.591836  3.778906
C    -3.123779  0.494326  5.282231
C    -2.672480  1.704222  6.114643
N    -1.272497  2.118102  5.943636
C    -0.269303  1.688403  6.823809
N    -0.304027  0.331761  7.107114
N    0.543246  2.581659  7.284511
H    -3.563422  -0.004290  3.218028
H    -2.950927  1.638350  3.450752
H    -4.212027  0.404085  5.420744
H    -2.693835  -0.429010  5.693220
H    -2.892907  1.500316  7.175747
H    -3.284374  2.570690  5.822458
H    -1.165037  3.122287  5.832970
H    0.467691  0.020250  7.686550
H    -0.472738  -0.302677  6.315491
H    1.321583  2.144748  7.786437
N    -1.586295  -2.346926  2.970394
C    -2.152305  -2.351598  1.632011
H    -1.326149  -3.247043  3.362667
H    -2.625907  -3.326573  1.467704
H    -1.391011  -2.200237  0.852080
H    -2.926229  -1.585109  1.519669
