35
Energy: -21190.1764538 eV PBE+vdW (tier 2 basis)
C    -0.328577  -0.012859  0.023874
C    -0.230993  0.270757  1.513758
O    0.767129  0.771850  2.021288
H    0.391943  -0.801494  -0.229001
H    -0.033223  0.888232  -0.526133
H    -1.325981  -0.327566  -0.307953
N    -1.343882  -0.057365  2.243082
C    -1.417308  -0.011955  3.704967
C    -0.766849  1.265132  4.303229
O    0.077037  1.197141  5.190028
H    -2.100963  -0.529052  1.762885
H    -2.493485  0.050499  3.945248
C    -0.848370  -1.281204  4.356257
C    -1.365093  -1.529932  5.773862
C    -0.763395  -2.803852  6.377877
N    -1.246927  -3.123634  7.714302
C    -2.474252  -3.735021  7.888913
N    -2.834758  -3.818901  9.245462
N    -3.170201  -4.135513  6.878483
H    0.248441  -1.206081  4.351238
H    -1.124593  -2.133775  3.715834
H    -2.460883  -1.637566  5.761750
H    -1.115421  -0.669664  6.411463
H    0.332010  -2.713594  6.430571
H    -0.999191  -3.667258  5.741873
H    -0.994747  -2.462505  8.442051
H    -3.640812  -4.411526  9.413066
H    -2.067531  -4.047084  9.873422
H    -3.983612  -4.674348  7.184539
N    -1.258699  2.476110  3.894834
C    -2.196135  2.781880  2.831628
H    -0.738707  3.250587  4.295466
H    -2.615192  3.779269  3.011951
H    -3.032333  2.072170  2.826670
H    -1.730389  2.775425  1.833262
