35
Energy: -21190.1930448 eV PBE+vdW (tier 2 basis)
C    -0.288484  1.207603  0.923195
C    -0.162390  0.941679  2.409279
O    0.724187  1.439846  3.104076
H    0.045138  2.230107  0.718967
H    -1.310825  1.076615  0.545593
H    0.374853  0.513858  0.380718
N    -1.104575  0.088233  2.921031
C    -1.192008  -0.379118  4.307030
C    -0.826724  0.709727  5.352074
O    -0.029543  0.480808  6.256495
H    -1.781309  -0.291611  2.269852
H    -2.265030  -0.581263  4.473412
C    -0.449056  -1.699101  4.594159
C    1.069376  -1.694481  4.354261
C    1.487900  -2.008550  2.904911
N    2.606957  -1.172855  2.486537
C    2.666187  -0.639838  1.215134
N    3.332301  0.585657  1.165481
N    2.193572  -1.162361  0.127533
H    -0.924096  -2.495612  3.998117
H    -0.647460  -1.938031  5.647272
H    1.534335  -2.419324  5.035850
H    1.456989  -0.710690  4.647699
H    0.650014  -1.830463  2.212003
H    1.741762  -3.078116  2.811787
H    2.989716  -0.579126  3.214660
H    3.345801  0.949684  0.217190
H    2.980084  1.268775  1.835465
H    1.878966  -2.122589  0.290043
N    -1.523015  1.886394  5.314021
C    -2.485661  2.369290  4.343002
H    -1.186324  2.547807  6.006736
H    -3.168534  1.569480  4.031243
H    -2.011419  2.792507  3.443431
H    -3.092625  3.151810  4.813850
