35
Energy: -21190.1647791 eV PBE+vdW (tier 2 basis)
C    0.184238  0.463240  0.075378
C    0.115544  -0.132159  1.469936
O    0.913028  -0.996433  1.830542
H    0.337386  -0.345815  -0.647174
H    1.062524  1.121023  0.028532
H    -0.703363  1.041403  -0.210339
N    -0.899455  0.364295  2.247468
C    -1.125260  0.143696  3.675648
C    -0.123507  0.983720  4.502108
O    1.017580  1.215542  4.117423
H    -1.417888  1.132117  1.839392
H    -2.122573  0.565248  3.863284
C    -1.191537  -1.375559  4.029052
C    -0.725942  -1.859245  5.410373
C    0.802913  -1.806443  5.659658
N    1.626768  -2.253418  4.556691
C    1.613916  -3.571970  4.117293
N    2.065648  -3.707103  2.810225
N    1.301165  -4.628598  4.796904
H    -0.597139  -1.906935  3.279144
H    -2.233025  -1.690838  3.876274
H    -1.050749  -2.907203  5.483861
H    -1.230247  -1.330031  6.233907
H    1.028849  -2.404670  6.556175
H    1.124547  -0.785865  5.896944
H    1.751366  -1.561819  3.819598
H    1.935174  -4.648667  2.458303
H    1.793045  -2.969069  2.164736
H    1.101649  -4.393825  5.771997
N    -0.579750  1.462489  5.702633
C    -1.940196  1.480699  6.217861
H    0.111907  2.029765  6.183828
H    -2.403418  0.487392  6.182208
H    -2.588319  2.192343  5.680817
H    -1.907853  1.783174  7.270278
