35
Energy: -21190.58632 eV PBE+vdW (tier 2 basis)
C    -0.011136  0.223649  0.035225
C    -0.025095  0.074189  1.541139
O    1.014501  -0.085264  2.192504
H    0.621652  1.080779  -0.226540
H    -1.006002  0.367520  -0.403222
H    0.449803  -0.669191  -0.405078
N    -1.249142  0.134062  2.137976
C    -1.419115  0.032877  3.586936
C    -1.470682  -1.462034  4.006939
O    -2.526493  -2.045241  4.245938
H    -2.082282  0.183209  1.562163
H    -0.505191  0.470671  4.015645
C    -2.657485  0.807142  4.034251
C    -2.826966  0.923730  5.554167
C    -1.657396  1.597452  6.296721
N    -1.274079  2.918056  5.824011
C    -2.035065  4.052230  6.067883
N    -1.562659  5.169430  5.364609
N    -3.070693  4.177531  6.824440
H    -3.549832  0.309087  3.626386
H    -2.611495  1.812518  3.587361
H    -2.978235  -0.076186  5.986063
H    -3.751788  1.487261  5.743763
H    -0.758780  0.965292  6.248920
H    -1.905431  1.675699  7.365839
H    -0.731841  2.945874  4.967064
H    -2.050456  6.007069  5.670285
H    -0.553309  5.290964  5.397495
H    -3.393589  3.275889  7.181020
N    -0.238306  -2.034928  4.064411
C    -0.052119  -3.452285  4.309241
H    0.533313  -1.484911  3.680806
H    0.789840  -3.613007  4.994346
H    0.140693  -4.006144  3.377681
H    -0.968531  -3.844470  4.762362
