35
Energy: -21190.0026897 eV PBE+vdW (tier 2 basis)
C    0.103391  0.211567  -0.652978
C    0.033711  0.523378  0.827454
O    0.851635  1.274615  1.356610
H    0.706143  -0.696220  -0.790114
H    0.608909  1.046967  -1.146418
H    -0.867659  0.032956  -1.127152
N    -0.942123  -0.062185  1.601073
C    -2.093396  -0.897553  1.276523
C    -1.725908  -2.017374  0.265308
O    -0.694993  -2.666600  0.403553
H    -0.827943  0.180480  2.580883
H    -2.276471  -1.487936  2.190296
C    -3.395614  -0.094811  1.038286
C    -3.440795  0.919706  -0.119571
C    -2.916428  2.319978  0.247150
N    -2.958212  3.278296  -0.854783
C    -4.139961  3.674188  -1.479433
N    -5.239674  3.747593  -0.621703
N    -4.295827  3.969474  -2.724556
H    -3.613790  0.439573  1.977487
H    -4.222518  -0.817228  0.941846
H    -4.483963  1.037873  -0.447027
H    -2.886613  0.552456  -0.996560
H    -1.877800  2.282109  0.595765
H    -3.500030  2.708431  1.095489
H    -2.186031  3.192372  -1.507591
H    -6.022620  4.194205  -1.090276
H    -5.050345  4.156842  0.289111
H    -3.458634  3.743898  -3.269006
N    -2.637567  -2.264429  -0.718265
C    -2.463268  -3.327403  -1.690788
H    -3.454934  -1.672655  -0.788597
H    -3.292916  -4.046141  -1.645361
H    -1.528151  -3.843734  -1.451068
H    -2.398173  -2.924001  -2.710905
