35
Energy: -21190.528343 eV PBE+vdW (tier 2 basis)
C    0.142751  -0.564106  0.291685
C    -0.851038  0.141161  1.194663
O    -1.757814  0.843006  0.740354
H    0.899283  -1.141651  0.836408
H    0.642327  0.185675  -0.334169
H    -0.405656  -1.236961  -0.379360
N    -0.678403  -0.076392  2.530960
C    -1.436026  0.632437  3.543942
C    -0.430964  1.158077  4.578457
O    0.654057  0.597200  4.747817
H    0.183896  -0.497661  2.870455
H    -1.947168  1.459150  3.031395
C    -2.473844  -0.269989  4.254565
C    -3.579191  -0.825201  3.355621
C    -4.440689  0.222959  2.635717
N    -4.853259  1.352698  3.476336
C    -5.848711  1.199080  4.428991
N    -6.268690  2.430890  4.961620
N    -6.310727  0.032957  4.721357
H    -2.928971  0.296327  5.080336
H    -1.929139  -1.105153  4.720619
H    -4.229198  -1.456926  3.974512
H    -3.142568  -1.472809  2.579891
H    -5.326002  -0.284569  2.219769
H    -3.868931  0.653456  1.803770
H    -4.907354  2.233307  2.974858
H    -6.841579  2.342423  5.793962
H    -5.532317  3.121245  5.085138
H    -6.974231  0.080825  5.498266
N    -0.808949  2.224769  5.337616
C    -1.967319  3.083796  5.151734
H    -0.096675  2.519379  5.999203
H    -2.215390  3.556567  6.109719
H    -2.838356  2.499871  4.830192
H    -1.785518  3.878006  4.409656
