35
Energy: -21190.0590758 eV PBE+vdW (tier 2 basis)
C    0.138614  -0.019509  0.892853
C    -0.182359  -0.026885  2.372593
O    0.697491  -0.005201  3.230321
H    -0.520115  0.627285  0.302813
H    0.044945  -1.035024  0.482367
H    1.176909  0.303766  0.780976
N    -1.503477  -0.098109  2.762891
C    -2.741750  -0.077311  1.981612
C    -2.732315  -1.116483  0.831857
O    -2.866951  -0.786126  -0.344788
H    -1.598031  -0.084537  3.774247
H    -3.522242  -0.411458  2.686322
C    -3.136945  1.321422  1.484370
C    -4.614127  1.436221  1.103009
C    -4.980662  2.838814  0.620234
N    -6.386236  2.901148  0.253204
C    -7.116758  4.064378  0.055699
N    -6.458610  5.238294  0.425209
N    -8.340328  4.137220  -0.350462
H    -2.510782  1.588073  0.621385
H    -2.900972  2.031470  2.291295
H    -5.251061  1.183739  1.966393
H    -4.838477  0.709559  0.307235
H    -4.313308  3.113981  -0.221800
H    -4.804837  3.564695  1.428083
H    -6.747616  2.095654  -0.244459
H    -7.018238  6.047574  0.173022
H    -5.491199  5.325508  0.128649
H    -8.754402  3.206775  -0.454097
N    -2.580594  -2.426041  1.186591
C    -2.408704  -3.005719  2.509180
H    -2.557564  -3.051493  0.387200
H    -2.638632  -4.075292  2.450236
H    -3.104447  -2.561357  3.233227
H    -1.385973  -2.885761  2.893827
