35
Energy: -21190.1954988 eV PBE+vdW (tier 2 basis)
C    -0.926937  0.652667  0.334560
C    -0.902180  0.481271  1.842721
O    -0.552200  1.374118  2.607938
H    0.106783  0.674576  -0.036425
H    -1.382669  1.620912  0.099140
H    -1.460165  -0.145137  -0.196963
N    -1.281755  -0.757430  2.296001
C    -1.297901  -1.134411  3.710179
C    -2.053669  -0.118816  4.609792
O    -1.575357  0.269381  5.669395
H    -1.593178  -1.441558  1.617381
H    -1.879227  -2.071858  3.748111
C    0.093879  -1.416795  4.299555
C    0.926182  -2.422340  3.485257
C    1.966085  -1.749204  2.570644
N    2.624207  -2.642934  1.630783
C    1.985458  -3.070460  0.475037
N    2.687681  -4.079760  -0.189762
N    0.865926  -2.648320  -0.011615
H    -0.061694  -1.779570  5.322543
H    0.625374  -0.461155  4.407768
H    0.275514  -3.067177  2.873357
H    1.459285  -3.100558  4.168352
H    2.744034  -1.274210  3.185872
H    1.507463  -0.932533  1.996371
H    3.253857  -3.325108  2.042470
H    2.279792  -4.260261  -1.102468
H    3.692455  -3.935056  -0.242997
H    0.419057  -2.004035  0.643322
N    -3.311066  0.265269  4.226422
C    -4.100929  -0.119817  3.072554
H    -3.707186  0.954020  4.857777
H    -5.158388  0.060947  3.299972
H    -3.996622  -1.190663  2.854525
H    -3.842541  0.446985  2.164576
