35
Energy: -21190.2303801 eV PBE+vdW (tier 2 basis)
C    0.163067  -0.245944  1.276484
C    -0.311612  -1.128897  2.407642
O    0.469787  -1.537319  3.274901
H    -0.404663  -0.370033  0.348108
H    1.217020  -0.475668  1.094847
H    0.095276  0.803479  1.597205
N    -1.636890  -1.453965  2.490988
C    -2.781098  -0.897835  1.775463
C    -2.736363  -1.313530  0.275205
O    -2.524956  -2.480574  -0.031975
H    -1.833323  -2.085602  3.260513
H    -3.645914  -1.464888  2.154553
C    -3.044460  0.589824  2.082754
C    -3.258163  0.934520  3.569304
C    -2.011089  1.032771  4.459655
N    -1.036239  1.969523  3.895664
C    0.240580  2.152669  4.460363
N    0.826091  1.009151  4.967072
N    0.870220  3.279611  4.519764
H    -3.963699  0.879158  1.549484
H    -2.228946  1.215384  1.689128
H    -3.950094  0.209399  4.027072
H    -3.783005  1.903382  3.611164
H    -1.531011  0.056474  4.572733
H    -2.333135  1.339227  5.472559
H    -1.449486  2.874402  3.680809
H    1.790096  1.180056  5.233653
H    0.699635  0.131239  4.459103
H    0.268080  4.058581  4.238524
N    -2.979741  -0.328454  -0.636262
C    -2.990624  -0.577908  -2.066233
H    -3.079817  0.623446  -0.307501
H    -3.915866  -0.200816  -2.521517
H    -2.929589  -1.660993  -2.213687
H    -2.131047  -0.105192  -2.562997
