35
Energy: -21190.3310121 eV PBE+vdW (tier 2 basis)
C    1.946137  -0.285412  0.708514
C    1.249827  -0.071035  2.042249
O    1.850930  0.323961  3.039914
H    2.768476  -0.996709  0.853856
H    2.390875  0.664199  0.384844
H    1.282118  -0.658672  -0.080642
N    -0.093171  -0.316921  2.034956
C    -0.930707  -0.314610  3.229201
C    -0.648197  0.850890  4.211073
O    -0.488157  0.650028  5.411811
H    -0.525127  -0.754847  1.219207
H    -1.948636  -0.119588  2.859426
C    -0.907704  -1.668100  3.973169
C    -2.263171  -2.131712  4.523494
C    -3.233454  -2.772053  3.513811
N    -3.818968  -1.884856  2.512612
C    -3.226788  -1.575636  1.304166
N    -3.811427  -0.470696  0.675638
N    -2.210693  -2.138671  0.733454
H    -0.508563  -2.429602  3.287377
H    -0.195051  -1.572439  4.801908
H    -2.762433  -1.296270  5.041250
H    -2.083967  -2.888975  5.302877
H    -4.069167  -3.231113  4.062459
H    -2.737670  -3.598186  2.982158
H    -4.428476  -1.164909  2.887364
H    -3.511417  -0.406645  -0.292986
H    -4.821939  -0.405853  0.763178
H    -1.814091  -2.875465  1.320028
N    -0.738349  2.123404  3.717703
C    -0.885257  2.568205  2.344140
H    -0.489637  2.820697  4.412106
H    -1.272979  3.594363  2.351055
H    -1.608056  1.944366  1.804321
H    0.065271  2.558112  1.787891
