35
Energy: -21190.4369086 eV PBE+vdW (tier 2 basis)
C    0.113989  0.852504  0.122393
C    0.145374  0.102428  1.439687
O    1.188447  -0.138245  2.041125
H    1.128896  1.192263  -0.098341
H    -0.563534  1.716578  0.156925
H    -0.226698  0.200103  -0.694512
N    -1.068866  -0.296453  1.956982
C    -2.391160  -0.181678  1.355767
C    -3.140687  1.135000  1.672125
O    -4.194615  1.393806  1.095219
H    -0.984436  -0.845501  2.809915
H    -2.288511  -0.186020  0.260087
C    -3.262147  -1.380195  1.765246
C    -2.826999  -2.694178  1.111725
C    -3.513525  -3.945748  1.680414
N    -3.161198  -4.260869  3.052753
C    -3.895425  -3.866843  4.162989
N    -3.241388  -4.184963  5.361454
N    -5.032912  -3.264341  4.214061
H    -4.299156  -1.143838  1.490952
H    -3.241153  -1.466301  2.863959
H    -1.735797  -2.822721  1.208422
H    -3.032244  -2.649358  0.029493
H    -3.256354  -4.811343  1.050755
H    -4.607435  -3.847121  1.626181
H    -2.176103  -4.430985  3.227786
H    -3.855539  -4.011931  6.152479
H    -2.844356  -5.120868  5.392208
H    -5.356651  -2.966434  3.291834
N    -2.555932  1.933623  2.601780
C    -3.131900  3.192499  3.031059
H    -1.677467  1.616140  2.997499
H    -4.060917  3.340245  2.469960
H    -2.451637  4.030726  2.826117
H    -3.361985  3.176990  4.105316
