35
Energy: -21190.2435622 eV PBE+vdW (tier 2 basis)
C    -1.010545  0.042408  -0.107449
C    -0.261181  -0.198159  1.193584
O    0.822683  -0.775785  1.219563
H    -0.410083  -0.371165  -0.921612
H    -1.166615  1.115618  -0.290373
H    -1.997011  -0.441044  -0.111589
N    -0.838384  0.265343  2.347297
C    -2.086508  0.982235  2.511225
C    -1.951932  1.809505  3.803157
O    -1.151239  1.482136  4.680059
H    -0.278397  0.180404  3.195450
H    -2.224684  1.662669  1.656868
C    -3.344007  0.068507  2.587781
C    -3.556617  -0.722928  3.884005
C    -2.502393  -1.806023  4.184069
N    -2.885527  -2.717303  5.248127
C    -3.826051  -3.720474  5.062064
N    -4.184080  -4.345274  6.263712
N    -4.375254  -4.111157  3.962549
H    -3.292249  -0.627644  1.736859
H    -4.233223  0.691566  2.408587
H    -4.540606  -1.210908  3.818352
H    -3.615335  -0.036713  4.744024
H    -1.549983  -1.347556  4.475718
H    -2.291869  -2.397944  3.280090
H    -2.849226  -2.333635  6.187052
H    -3.400272  -4.562069  6.874440
H    -4.752925  -5.166531  6.077270
H    -4.122855  -3.507479  3.177214
N    -2.772351  2.885252  3.962546
C    -3.781126  3.415439  3.061678
H    -2.669746  3.328069  4.871071
H    -3.894381  4.489726  3.247172
H    -4.762864  2.936001  3.196565
H    -3.476238  3.293542  2.015813
