35
Energy: -21190.6156382 eV PBE+vdW (tier 2 basis)
C    -0.615762  0.408296  -0.727276
C    -0.273614  -0.167531  0.631404
O    0.852356  -0.551796  0.930485
H    -1.433561  -0.142233  -1.213484
H    0.280431  0.363643  -1.350907
H    -0.946025  1.453621  -0.642502
N    -1.297871  -0.216980  1.560294
C    -2.714224  0.038554  1.319277
C    -3.076391  1.539064  1.349394
O    -4.098560  1.965135  0.796053
H    -1.045091  -0.719187  2.408274
H    -2.973303  -0.303719  0.310799
C    -3.532514  -0.773432  2.351362
C    -5.058562  -0.603817  2.357179
C    -5.807532  -1.160023  1.138822
N    -5.501803  -0.459099  -0.102531
C    -4.838724  -1.109508  -1.120789
N    -4.306133  -0.219648  -2.071533
N    -4.692019  -2.393737  -1.127144
H    -3.151846  -0.510035  3.353069
H    -3.286627  -1.833174  2.182085
H    -5.321114  0.454963  2.504731
H    -5.441911  -1.133249  3.243259
H    -6.889792  -1.100772  1.337763
H    -5.562087  -2.218168  0.974887
H    -5.236861  0.522243  0.025723
H    -4.162355  -0.637455  -2.984744
H    -4.784946  0.675479  -2.139111
H    -4.209594  -2.705558  -1.972560
N    -2.215203  2.327810  2.033858
C    -2.383409  3.760651  2.172231
H    -1.368190  1.879924  2.371015
H    -2.384149  4.054152  3.230500
H    -3.345524  4.030238  1.724242
H    -1.583206  4.307884  1.654112
