35
Energy: -21190.5569694 eV PBE+vdW (tier 2 basis)
C    0.074836  1.220083  0.057972
C    0.059723  0.709798  1.485704
O    0.978699  0.945318  2.271728
H    0.181768  2.311527  0.076941
H    -0.822313  0.958227  -0.516055
H    0.957239  0.813361  -0.451608
N    -1.047354  -0.011045  1.837674
C    -1.217637  -0.613386  3.157235
C    -0.862485  -2.108865  3.024873
O    -1.642194  -2.893515  2.467311
H    -1.721801  -0.262198  1.122997
H    -0.504900  -0.095265  3.809851
C    -2.648477  -0.392098  3.667655
C    -2.894523  -0.728281  5.144012
C    -2.802051  -2.216494  5.534338
N    -3.589033  -3.121743  4.714731
C    -4.957490  -3.188124  4.859912
N    -5.568711  -3.950033  3.850510
N    -5.556862  -2.567565  5.822475
H    -3.346021  -0.961863  3.033787
H    -2.876085  0.671815  3.508068
H    -3.903117  -0.380632  5.406220
H    -2.191975  -0.162871  5.778871
H    -3.146360  -2.322903  6.571054
H    -1.760479  -2.568931  5.499122
H    -3.216360  -3.282639  3.779214
H    -6.518483  -4.229333  4.070446
H    -5.015261  -4.732087  3.509246
H    -6.552936  -2.797313  5.842921
N    0.342291  -2.522891  3.490343
C    1.358552  -1.756420  4.203555
H    0.499382  -3.518441  3.361245
H    2.306169  -2.302451  4.140426
H    1.107243  -1.630113  5.268092
H    1.502767  -0.772219  3.741155
