35
Energy: -21190.1231397 eV PBE+vdW (tier 2 basis)
C    0.143743  -0.004177  0.283009
C    -0.125687  -0.164541  1.764541
O    0.785753  -0.237556  2.586555
H    1.170351  0.354511  0.170085
H    -0.549931  0.676173  -0.222878
H    0.060641  -0.979249  -0.218228
N    -1.431564  -0.273314  2.192201
C    -2.699756  -0.158216  1.466385
C    -2.740994  -1.056443  0.207525
O    -2.886511  -0.595202  -0.923331
H    -1.490201  -0.369721  3.201901
H    -3.447973  -0.575380  2.158574
C    -3.092469  1.298174  1.163993
C    -4.544887  1.518487  0.720177
C    -5.586224  1.040262  1.729673
N    -6.922535  1.430036  1.300376
C    -8.009931  1.099829  2.091378
N    -9.231709  1.394620  1.463605
N    -7.837651  0.558098  3.248581
H    -2.423116  1.695202  0.389289
H    -2.895367  1.873826  2.081429
H    -4.703562  1.023944  -0.250013
H    -4.688822  2.597056  0.553314
H    -5.409473  1.485025  2.719813
H    -5.535996  -0.054339  1.874035
H    -7.089789  1.347938  0.301429
H    -10.032913  1.327776  2.082144
H    -9.237718  2.264366  0.936173
H    -8.723823  0.477809  3.753286
N    -2.621088  -2.401534  0.412379
C    -2.445309  -3.124877  1.661495
H    -2.631534  -2.936157  -0.450492
H    -2.684341  -4.179641  1.486869
H    -3.132523  -2.758072  2.435802
H    -1.418599  -3.055697  2.048291
