35
Energy: -21190.3471029 eV PBE+vdW (tier 2 basis)
C    -0.054864  -0.104053  -0.064663
C    0.283615  -0.243352  1.415340
O    1.456109  -0.263488  1.793026
H    0.889767  -0.031260  -0.609907
H    -0.652401  0.793904  -0.272868
H    -0.617413  -0.968216  -0.444022
N    -0.746606  -0.331159  2.313301
C    -2.154267  -0.561217  2.010376
C    -3.008290  0.353879  2.930927
O    -3.696927  -0.089833  3.848524
H    -0.472933  -0.586353  3.283186
H    -2.323804  -0.243451  0.972161
C    -2.616256  -2.026461  2.172729
C    -1.605724  -3.123541  1.814042
C    -0.533305  -3.423864  2.883015
N    -1.084294  -3.642415  4.213574
C    -1.071522  -2.677217  5.191350
N    -1.588236  -3.134159  6.411347
N    -0.586579  -1.498713  4.968493
H    -3.520282  -2.154658  1.558896
H    -2.949498  -2.163038  3.209529
H    -1.085955  -2.907272  0.867034
H    -2.176290  -4.048844  1.636962
H    0.205335  -2.617360  2.951305
H    0.015823  -4.329735  2.589008
H    -1.181758  -4.597475  4.531354
H    -1.766720  -2.387394  7.074512
H    -2.398038  -3.743470  6.324078
H    -0.731654  -0.880594  5.767873
N    -2.954398  1.698618  2.690165
C    -2.171481  2.420627  1.703028
H    -3.482942  2.240412  3.365972
H    -2.487263  3.469438  1.713604
H    -2.348853  2.037402  0.688261
H    -1.092676  2.376800  1.909503
