35
Energy: -21190.5878307 eV PBE+vdW (tier 2 basis)
C    0.650755  -0.272019  -0.168184
C    0.214057  -0.553128  1.253515
O    1.008550  -0.951778  2.114233
H    1.444376  0.485214  -0.147404
H    -0.160367  0.078570  -0.817514
H    1.082332  -1.186352  -0.593745
N    -1.102164  -0.332920  1.528993
C    -1.676451  -0.529912  2.860873
C    -2.033078  -2.027983  3.050364
O    -3.180387  -2.465778  2.942779
H    -1.738005  -0.103709  0.772535
H    -0.873265  -0.284874  3.572760
C    -2.852439  0.425370  3.062814
C    -3.494540  0.365550  4.465962
C    -4.878987  -0.301717  4.528030
N    -5.901901  0.359583  3.737124
C    -6.249703  -0.012994  2.443278
N    -7.182661  0.879742  1.884235
N    -5.830799  -1.004718  1.740514
H    -3.616116  0.234879  2.294408
H    -2.466651  1.436960  2.872824
H    -3.586228  1.388995  4.861701
H    -2.830558  -0.161583  5.170787
H    -5.212842  -0.325992  5.577528
H    -4.809423  -1.342778  4.192218
H    -6.080587  1.333421  3.961011
H    -7.523350  0.507901  1.001605
H    -7.952243  1.118705  2.505646
H    -5.064168  -1.518014  2.186606
N    -0.945964  -2.794177  3.323275
C    -1.012388  -4.241176  3.396480
H    -0.036180  -2.336522  3.222818
H    -0.428336  -4.606985  4.250530
H    -0.627882  -4.711986  2.479012
H    -2.060625  -4.530830  3.522862
