35
Energy: -21190.5032636 eV PBE+vdW (tier 2 basis)
C    0.064125  -0.237429  -0.041635
C    -0.012536  -0.012694  1.456199
O    1.013074  0.127784  2.134420
H    0.603582  -1.175448  -0.225447
H    0.653529  0.571209  -0.490357
H    -0.913194  -0.288421  -0.536851
N    -1.267603  0.024079  1.981589
C    -1.642463  0.102577  3.404980
C    -1.391476  1.475293  4.078597
O    -2.299410  2.015608  4.713559
H    -2.035375  -0.059881  1.327907
H    -2.736624  0.015837  3.411696
C    -1.066673  -1.040248  4.260748
C    -1.495509  -2.430464  3.792110
C    -1.038558  -3.544545  4.741823
N    -1.631297  -3.441207  6.069782
C    -0.868786  -3.117608  7.177489
N    -1.612110  -3.196205  8.368300
N    0.379232  -2.820352  7.060391
H    -1.422455  -0.872555  5.287622
H    0.028713  -0.977715  4.295751
H    -1.078088  -2.641147  2.794443
H    -2.593971  -2.468386  3.687654
H    0.051606  -3.509026  4.872586
H    -1.292065  -4.525774  4.313028
H    -2.438341  -4.023457  6.256413
H    -1.131277  -2.797825  9.167883
H    -2.562455  -2.839537  8.295897
H    0.774818  -2.519157  7.953055
N    -0.135914  1.967988  3.951584
C    0.276527  3.213606  4.565070
H    0.536981  1.402535  3.421338
H    1.030061  3.041863  5.347809
H    -0.604574  3.678653  5.019957
H    0.700630  3.897488  3.816666
