35
Energy: -21190.4934626 eV PBE+vdW (tier 2 basis)
C    0.822265  0.941254  0.424680
C    0.744327  0.182249  1.729275
O    1.762904  -0.133729  2.368760
H    1.848284  0.892197  0.050723
H    0.556369  1.996075  0.586645
H    0.127702  0.549800  -0.330253
N    -0.483029  -0.132643  2.217917
C    -1.809401  0.105333  1.678237
C    -2.167913  1.584861  1.423047
O    -2.783369  1.889798  0.401774
H    -0.453111  -0.716061  3.067238
H    -1.915630  -0.360357  0.684701
C    -2.872896  -0.512026  2.617405
C    -2.686648  -2.006175  2.974113
C    -2.058957  -2.283455  4.353019
N    -0.656288  -1.886203  4.455105
C    -0.204085  -0.983492  5.424590
N    1.169550  -0.790382  5.320593
N    -1.038900  -0.442923  6.245698
H    -3.838244  -0.369935  2.114361
H    -2.923940  0.072529  3.548489
H    -2.112667  -2.521370  2.186727
H    -3.676377  -2.486673  2.979847
H    -2.154259  -3.354914  4.586199
H    -2.595362  -1.732231  5.136296
H    0.032876  -2.583925  4.192733
H    1.531633  -0.070792  5.936588
H    1.526751  -0.694993  4.358273
H    -0.579805  0.273817  6.812156
N    -1.822548  2.531801  2.346563
C    -1.133548  2.416878  3.626788
H    -2.117327  3.460195  2.060066
H    -1.335556  3.329916  4.198815
H    -0.044614  2.314731  3.512592
H    -1.495458  1.570713  4.222317
