35
Energy: -21190.7094023 eV PBE+vdW (tier 2 basis)
C    -0.092663  -1.355515  1.174546
C    0.155537  -0.570316  2.445092
O    1.124408  0.195665  2.560834
H    -0.319138  -0.654259  0.360757
H    -0.914485  -2.075840  1.267484
H    0.825084  -1.889537  0.901408
N    -0.759674  -0.753431  3.432284
C    -0.645716  -0.073731  4.717224
C    0.350296  -0.856617  5.607209
O    0.006184  -1.715925  6.431031
H    -1.482381  -1.487720  3.370316
H    -0.181995  0.899654  4.498504
C    -2.010009  0.219950  5.362895
C    -2.903020  -0.914412  5.901837
C    -3.696395  -1.764191  4.903734
N    -2.927496  -2.573957  3.925246
C    -2.398385  -3.848987  4.267583
N    -1.779578  -3.904936  5.492987
N    -2.456998  -4.893508  3.511644
H    -2.578159  0.823372  4.635415
H    -1.801713  0.890881  6.209995
H    -2.327782  -1.550293  6.581932
H    -3.670218  -0.435548  6.531747
H    -4.375481  -2.416429  5.477859
H    -4.326042  -1.097721  4.295209
H    -3.457512  -2.673222  3.062734
H    -1.327759  -4.799946  5.647568
H    -1.230836  -3.101126  5.814923
H    -3.068937  -4.741965  2.705117
N    1.640953  -0.530403  5.357003
C    2.753559  -1.252230  5.945534
H    1.798143  0.023855  4.510036
H    2.407889  -1.734096  6.865596
H    3.568311  -0.557253  6.182271
H    3.137538  -2.029487  5.267240
