35
Energy: -21190.0701206 eV PBE+vdW (tier 2 basis)
C    -0.327198  0.071184  -0.262581
C    -0.695347  -0.544956  1.075832
O    -0.671771  -1.754787  1.274660
H    0.727779  -0.147247  -0.471582
H    -0.479259  1.157081  -0.311507
H    -0.921376  -0.410623  -1.048268
N    -1.057325  0.347166  2.052918
C    -1.380894  -0.069501  3.407104
C    -2.754648  -0.745936  3.629360
O    -2.856562  -1.563050  4.540831
H    -1.055714  1.335587  1.832587
H    -0.679327  -0.871322  3.679252
C    -1.221252  1.098231  4.393426
C    0.220525  1.587675  4.547893
C    0.347411  2.706840  5.590715
N    1.707706  3.205097  5.755113
C    2.549077  2.893250  6.815091
N    2.223556  1.710029  7.478700
N    3.553589  3.589286  7.229657
H    -1.601094  0.752677  5.365719
H    -1.877272  1.933463  4.088032
H    0.623744  1.948629  3.588873
H    0.860177  0.738631  4.838278
H    -0.021161  2.355309  6.565823
H    -0.297312  3.551460  5.300150
H    1.925922  4.084586  5.305371
H    1.987772  0.917430  6.888280
H    2.937348  1.482501  8.164516
H    3.594097  4.502077  6.767828
N    -3.838915  -0.410712  2.866995
C    -4.005476  0.584749  1.821494
H    -4.657964  -0.951714  3.126230
H    -3.582185  1.556608  2.108193
H    -5.080192  0.735643  1.667122
H    -3.563122  0.275823  0.863626
