35
Energy: -21190.1296881 eV PBE+vdW (tier 2 basis)
C    -0.188073  0.253581  -0.187927
C    -0.078613  0.404975  1.319413
O    0.962009  0.792258  1.850242
H    -1.176553  -0.068663  -0.537104
H    0.560782  -0.476982  -0.518531
H    0.062127  1.214067  -0.654449
N    -1.204066  0.057142  2.014051
C    -1.413219  0.129932  3.465691
C    -1.872120  1.561237  3.874299
O    -3.079704  1.807730  3.803265
H    -2.033996  -0.137664  1.467723
H    -2.344873  -0.429302  3.628942
C    -0.330875  -0.584139  4.287474
C    -0.687666  -0.638480  5.774781
C    0.284954  -1.464623  6.630106
N    0.305169  -2.886613  6.343544
C    1.222849  -3.510956  5.510254
N    0.943638  -4.877850  5.362777
N    2.231880  -3.009064  4.887235
H    0.653192  -0.127628  4.139095
H    -0.252641  -1.604990  3.884901
H    -1.704888  -1.048387  5.900183
H    -0.726139  0.377952  6.198960
H    0.025844  -1.330489  7.691995
H    1.311476  -1.085890  6.518206
H    -0.576126  -3.376760  6.455759
H    1.692182  -5.332628  4.847209
H    0.740192  -5.362191  6.233855
H    2.256807  -1.989177  4.944705
N    -0.997524  2.523140  4.280990
C    0.451925  2.522109  4.430346
H    -1.486237  3.382540  4.516094
H    0.769557  2.124768  5.407953
H    0.801085  3.558709  4.359833
H    0.924697  1.951016  3.624146
