35
Energy: -21190.5087278 eV PBE+vdW (tier 2 basis)
C    -4.154536  -3.564164  1.788180
C    -3.642814  -2.878701  3.039387
O    -4.232976  -2.994779  4.121242
H    -5.160189  -3.183298  1.568833
H    -4.249787  -4.638286  1.988195
H    -3.519709  -3.417001  0.906128
N    -2.507757  -2.142246  2.886146
C    -1.852452  -1.292929  3.895415
C    -1.119526  -2.056142  5.028824
O    0.043953  -1.759249  5.303811
H    -2.075294  -2.156547  1.971312
H    -1.034043  -0.796351  3.358522
C    -2.774177  -0.205989  4.478662
C    -3.331612  0.751913  3.424387
C    -4.189296  1.872883  4.012876
N    -3.402939  2.746185  4.867462
C    -4.007046  3.721753  5.654509
N    -3.067287  4.539779  6.291336
N    -5.264191  3.934868  5.835956
H    -2.181026  0.351678  5.217108
H    -3.602471  -0.675332  5.026883
H    -3.951272  0.198830  2.702956
H    -2.504970  1.192925  2.838977
H    -4.992272  1.432443  4.624444
H    -4.679905  2.431107  3.192515
H    -2.504598  3.026110  4.482295
H    -2.286682  4.040772  6.710189
H    -3.523626  5.160400  6.953803
H    -5.838514  3.368909  5.207646
N    -1.857217  -2.988168  5.679211
C    -1.333582  -3.758164  6.789790
H    -2.828002  -3.114837  5.372822
H    -1.867083  -3.524099  7.722492
H    -0.276088  -3.502182  6.914162
H    -1.424012  -4.836090  6.596526
