35
Energy: -21190.2566992 eV PBE+vdW (tier 2 basis)
C    -0.904386  0.156218  -1.245331
C    -0.279956  0.998491  -0.154831
O    0.731862  1.678765  -0.367126
H    -0.370227  0.359342  -2.176931
H    -1.970623  0.380087  -1.386434
H    -0.821331  -0.910093  -0.996564
N    -0.836818  0.978702  1.096587
C    -2.198239  0.627941  1.488730
C    -2.533926  -0.839843  1.116574
O    -1.744700  -1.744142  1.365115
H    -0.353220  1.612985  1.736752
H    -2.169068  0.594049  2.590441
C    -3.233465  1.714528  1.110009
C    -2.842568  3.119995  1.610678
C    -2.001365  3.943640  0.611609
N    -1.283107  5.065087  1.204939
C    -0.231255  4.894344  2.107353
N    0.499340  3.717146  1.942384
N    0.101302  5.708710  3.051212
H    -4.200848  1.439254  1.558222
H    -3.381869  1.742587  0.016589
H    -2.280087  3.029970  2.552834
H    -3.752050  3.687902  1.856309
H    -2.652348  4.350271  -0.176393
H    -1.277472  3.305576  0.092646
H    -1.860009  5.866641  1.437873
H    1.341577  3.749977  2.510047
H    0.691869  3.397966  0.988821
H    -0.579173  6.467641  3.146927
N    -3.757104  -1.049596  0.549983
C    -4.229672  -2.373149  0.188985
H    -4.341423  -0.250240  0.341760
H    -4.321066  -2.482651  -0.901204
H    -5.204241  -2.581624  0.650328
H    -3.494855  -3.097239  0.555724
