35
Energy: -21190.191014 eV PBE+vdW (tier 2 basis)
C    0.389928  -1.050880  -0.393541
C    0.861053  -0.068222  0.662371
O    1.230524  1.068989  0.383934
H    -0.405283  -0.579349  -0.983115
H    0.019105  -1.999306  0.014608
H    1.224089  -1.258114  -1.075943
N    0.834631  -0.535754  1.954734
C    1.418919  0.229611  3.060621
C    1.665837  -0.690040  4.267057
O    2.763680  -0.770874  4.806394
H    0.694278  -1.529872  2.095143
H    2.411329  0.592022  2.756056
C    0.550319  1.449569  3.430636
C    1.185801  2.329247  4.510342
C    0.380598  3.590333  4.826883
N    0.367657  4.511222  3.702918
C    -0.081529  5.820869  3.737823
N    -0.422401  6.284728  5.010262
N    -0.138900  6.638953  2.740492
H    -0.448027  1.111642  3.755850
H    0.403096  2.008690  2.496613
H    2.202010  2.621481  4.203247
H    1.299527  1.755179  5.442245
H    0.837880  4.100000  5.687332
H    -0.644925  3.291268  5.132385
H    0.422261  4.107974  2.775829
H    -0.836671  7.209839  4.946515
H    -0.965043  5.652455  5.590861
H    0.263852  6.225781  1.895021
N    0.569483  -1.398822  4.684884
C    0.601354  -2.262352  5.852145
H    -0.330849  -1.174015  4.275549
H    0.144520  -1.780849  6.729584
H    1.650857  -2.473423  6.081437
H    0.076039  -3.203982  5.648828
