35
Energy: -21190.159137 eV PBE+vdW (tier 2 basis)
C    0.932505  1.266471  1.360089
C    0.452840  -0.095145  1.832091
O    1.217301  -1.039228  2.010016
H    1.572710  1.701433  2.138311
H    0.122052  1.971147  1.135486
H    1.551980  1.132193  0.465457
N    -0.896880  -0.206746  2.031839
C    -1.513665  -1.393668  2.612124
C    -1.209430  -2.729177  1.899759
O    -1.055584  -3.739259  2.582885
H    -1.474179  0.621134  1.936906
H    -1.106129  -1.557327  3.621709
C    -3.033512  -1.166492  2.714170
C    -3.751709  -2.191915  3.593572
C    -5.276098  -2.009380  3.611886
N    -5.752233  -0.673382  3.989824
C    -5.382427  -0.070458  5.188900
N    -5.420456  -0.923892  6.290142
N    -5.027058  1.170735  5.176409
H    -3.473108  -1.162974  1.701535
H    -3.190992  -0.160031  3.135727
H    -3.364904  -2.120823  4.621088
H    -3.526178  -3.213504  3.253934
H    -5.720860  -2.760794  4.280559
H    -5.695420  -2.212163  2.615428
H    -5.679361  0.017505  3.247701
H    -5.330992  -0.462684  7.187698
H    -6.144834  -1.635775  6.279767
H    -4.926534  1.542840  6.124825
N    -1.235266  -2.811826  0.533522
C    -1.310655  -1.775494  -0.481869
H    -0.987462  -3.744940  0.218551
H    -0.358488  -1.238753  -0.614238
H    -2.093138  -1.043438  -0.253713
H    -1.572653  -2.250772  -1.434779
