35
Energy: -21190.6101362 eV PBE+vdW (tier 2 basis)
C    -5.951630  1.942039  3.079316
C    -4.509509  1.844850  2.609092
O    -4.118635  2.431294  1.600111
H    -6.457600  2.686150  2.458793
H    -6.026149  2.240391  4.134264
H    -6.471470  0.979960  2.969697
N    -3.644143  1.091778  3.362202
C    -3.974946  0.179920  4.448097
C    -2.807525  0.104360  5.464541
O    -2.569600  -0.925282  6.102453
H    -2.684281  1.032152  2.979263
H    -4.804050  0.623688  5.024131
C    -4.459734  -1.223032  4.008090
C    -3.737015  -1.923931  2.847977
C    -2.332616  -2.490867  3.119144
N    -1.258277  -1.504703  3.235260
C    -0.983696  -0.575364  2.251848
N    -0.929593  -1.067948  0.960242
N    -0.754547  0.657422  2.595953
H    -5.514248  -1.117533  3.713818
H    -4.445260  -1.861673  4.902931
H    -3.696400  -1.254754  1.973336
H    -4.370142  -2.771602  2.541087
H    -2.080559  -3.217746  2.329317
H    -2.328915  -3.059301  4.058232
H    -1.155166  -1.110882  4.165639
H    -1.148549  -0.416382  0.217681
H    -1.230013  -2.020311  0.792745
H    -0.413363  1.206899  1.802710
N    -2.118038  1.261109  5.617536
C    -0.903980  1.343665  6.406090
H    -2.285350  1.977266  4.917609
H    -0.874949  2.288690  6.962557
H    -0.014206  1.278454  5.761363
H    -0.895952  0.507669  7.112796
