35
Energy: -21190.268614 eV PBE+vdW (tier 2 basis)
C    1.472487  0.973790  0.372247
C    1.014510  2.044700  1.350585
O    1.780618  2.912169  1.760571
H    1.257569  -0.041561  0.734142
H    0.983272  1.095874  -0.605674
H    2.551576  1.083667  0.237685
N    -0.289970  1.995877  1.785158
C    -1.357968  1.233895  1.175732
C    -1.982499  2.001623  -0.014498
O    -2.007223  3.233331  -0.074099
H    -0.569817  2.846189  2.289358
H    -0.917169  0.313717  0.771606
C    -2.418704  0.777073  2.223415
C    -2.849401  1.810952  3.272673
C    -3.725551  2.971588  2.748523
N    -3.629197  4.206132  3.514789
C    -2.433359  4.900697  3.657960
N    -1.527266  4.722691  2.608621
N    -2.248502  5.594060  4.730160
H    -1.984088  -0.083145  2.752619
H    -3.301919  0.394429  1.686531
H    -1.955544  2.229951  3.755225
H    -3.387506  1.281098  4.072892
H    -4.783549  2.674822  2.744147
H    -3.481161  3.193573  1.702923
H    -4.154669  4.241894  4.383252
H    -0.749662  5.373350  2.611977
H    -1.889084  4.543466  1.670237
H    -1.382982  6.136553  4.678741
N    -2.519661  1.245918  -1.015194
C    -2.474266  -0.199568  -1.177827
H    -2.912305  1.799199  -1.770852
H    -2.974150  -0.726933  -0.353835
H    -1.443898  -0.576751  -1.263957
H    -3.001275  -0.457633  -2.102077
