35
Energy: -21190.2169997 eV PBE+vdW (tier 2 basis)
C    0.146074  -0.041039  -0.062627
C    0.140377  -0.078744  1.453965
O    1.159458  -0.269160  2.112827
H    0.894337  0.687918  -0.395738
H    -0.825427  0.213011  -0.504589
H    0.458046  -1.025368  -0.434316
N    -1.082152  0.117717  2.043962
C    -1.260539  -0.002618  3.490965
C    -2.690577  -0.510493  3.760769
O    -2.925849  -1.697886  3.954403
H    -1.903707  0.207477  1.458266
H    -0.596040  -0.810199  3.827744
C    -0.859414  1.285034  4.231349
C    -0.899516  1.143437  5.753042
C    -0.352990  2.389029  6.468893
N    -0.311975  2.311554  7.920471
C    0.476737  1.406599  8.623928
N    1.737520  1.167562  8.081263
N    0.028243  0.950684  9.744410
H    -1.482596  2.134776  3.899191
H    0.164255  1.525597  3.907201
H    -1.925777  0.949266  6.103370
H    -0.307521  0.263886  6.051622
H    -0.965468  3.266678  6.212550
H    0.652952  2.628294  6.084902
H    -1.210053  2.401838  8.387475
H    2.171228  0.301171  8.374138
H    1.886762  1.376704  7.100572
H    0.738359  0.404107  10.237878
N    -3.665399  0.449357  3.708748
C    -5.065310  0.153494  3.954231
H    -3.377194  1.419228  3.651769
H    -5.387482  0.504940  4.945508
H    -5.185538  -0.934071  3.914997
H    -5.700090  0.617747  3.188481
