35
Energy: -21190.6154689 eV PBE+vdW (tier 2 basis)
C    -1.049554  -1.066259  -0.294071
C    -1.141985  -1.185524  1.215426
O    -1.220445  -2.281386  1.774677
H    -0.146343  -1.588906  -0.633497
H    -1.016468  -0.030466  -0.653198
H    -1.911308  -1.576415  -0.741517
N    -1.104264  0.001656  1.894071
C    -1.311695  0.072277  3.327673
C    -2.573601  0.903200  3.599530
O    -2.887535  1.860013  2.889264
H    -1.255191  0.866647  1.382407
H    -1.469638  -0.963293  3.641676
C    -0.069640  0.658097  4.043966
C    -0.154623  0.805061  5.574029
C    -0.062480  -0.480033  6.411389
N    -1.122997  -1.467738  6.139446
C    -0.808616  -2.533326  5.270656
N    -1.878961  -3.416330  5.114281
N    0.347906  -2.604153  4.722352
H    0.122133  1.652144  3.610434
H    0.779969  0.013362  3.780394
H    -1.061621  1.365674  5.850044
H    0.688963  1.438042  5.891554
H    -0.130401  -0.208821  7.474047
H    0.910683  -0.963468  6.244926
H    -1.607846  -1.788697  6.973816
H    -1.780976  -4.017177  4.300966
H    -2.795700  -2.975567  5.131025
H    0.373914  -3.325907  3.998881
N    -3.284522  0.487448  4.683445
C    -4.429407  1.214222  5.195339
H    -2.853937  -0.243725  5.251123
H    -5.271681  0.534880  5.382384
H    -4.724168  1.950025  4.439604
H    -4.190881  1.746975  6.128776
