35
Energy: -21190.5746039 eV PBE+vdW (tier 2 basis)
C    0.646406  0.653367  -0.434353
C    0.365518  0.972223  1.020045
O    0.533698  2.112470  1.473967
H    0.428852  -0.386618  -0.705078
H    1.703351  0.863618  -0.640731
H    0.050015  1.323700  -1.065543
N    -0.073722  -0.062164  1.775797
C    -0.400610  0.065765  3.185705
C    -0.488028  -1.375444  3.711038
O    -0.848992  -2.285141  2.955422
H    -0.261189  -0.981619  1.379385
H    0.410784  0.620092  3.675102
C    -1.772635  0.791843  3.393124
C    -1.882927  1.768767  4.571999
C    -1.227777  3.143248  4.336375
N    0.225011  3.136347  4.203612
C    1.066440  2.809404  5.241535
N    0.655638  3.274941  6.498187
N    2.115559  2.081479  5.011961
H    -2.556885  0.024884  3.471638
H    -1.981297  1.342544  2.464743
H    -1.485572  1.330008  5.498732
H    -2.953385  1.948072  4.762778
H    -1.529459  3.823956  5.146060
H    -1.621960  3.578690  3.406652
H    0.552933  2.783582  3.295780
H    1.372887  3.206598  7.211619
H    0.201100  4.184512  6.498764
H    2.734648  2.057963  5.827769
N    -0.215017  -1.617812  5.018753
C    0.355959  -0.740970  6.029368
H    -0.377495  -2.588277  5.272701
H    1.069476  -1.313492  6.635758
H    -0.411578  -0.326691  6.699987
H    0.906657  0.087339  5.567220
