35
Energy: -21190.6497088 eV PBE+vdW (tier 2 basis)
C    -1.090516  -3.340393  3.435788
C    -0.918661  -1.861109  3.185535
O    -0.197720  -1.412805  2.282589
H    -1.948342  -3.706123  2.851380
H    -1.295539  -3.565240  4.490333
H    -0.185624  -3.864020  3.113602
N    -1.631226  -1.035993  4.005339
C    -1.664822  0.420068  3.854378
C    -0.440443  1.076263  4.561428
O    -0.555604  1.793251  5.554690
H    -2.176145  -1.448754  4.754733
H    -1.553727  0.617278  2.775056
C    -2.982055  1.005586  4.366626
C    -4.131840  1.034784  3.347768
C    -4.528023  -0.306354  2.725697
N    -4.952028  -1.263512  3.738766
C    -4.720219  -2.620292  3.598704
N    -4.810323  -3.318528  4.813025
N    -4.400869  -3.265402  2.529867
H    -2.778127  2.029271  4.705791
H    -3.275254  0.473824  5.287813
H    -3.862208  1.710598  2.522077
H    -5.015444  1.487313  3.826684
H    -3.671391  -0.722238  2.168808
H    -5.334910  -0.142150  1.993114
H    -4.916079  -0.920756  4.692903
H    -5.580780  -3.030527  5.411551
H    -4.832878  -4.320314  4.641333
H    -4.282494  -2.640091  1.730275
N    0.735383  0.773061  3.955683
C    2.018029  1.197921  4.479196
H    0.692597  0.112838  3.172789
H    2.625403  1.656614  3.687582
H    2.579878  0.353998  4.907093
H    1.838001  1.935933  5.268003
