35
Energy: -21190.5717649 eV PBE+vdW (tier 2 basis)
C    -2.713460  -2.094568  0.950197
C    -1.874896  -1.463063  2.038035
O    -1.098877  -2.134188  2.733232
H    -3.130455  -1.368372  0.241378
H    -3.544377  -2.632672  1.431543
H    -2.106433  -2.828364  0.409499
N    -2.054666  -0.123997  2.225383
C    -1.585601  0.675617  3.368911
C    -0.079067  1.034918  3.343607
O    0.274750  2.198965  3.536497
H    -2.689697  0.341738  1.589544
H    -2.085418  1.646876  3.265561
C    -1.973493  0.061836  4.732577
C    -3.472352  -0.219824  4.863040
C    -3.795933  -1.293452  5.915752
N    -5.123889  -1.874876  5.782565
C    -5.422160  -2.715046  4.712845
N    -6.798746  -2.916846  4.558653
N    -4.607083  -3.284541  3.892063
H    -1.627247  0.757202  5.510654
H    -1.413303  -0.873370  4.869056
H    -3.856948  -0.584288  3.899527
H    -4.025555  0.705619  5.088419
H    -3.704851  -0.892068  6.934901
H    -3.061431  -2.110412  5.845853
H    -5.887602  -1.258388  6.044931
H    -6.976113  -3.668860  3.898643
H    -7.306424  -3.052861  5.429044
H    -3.638166  -2.997537  4.047353
N    0.760970  -0.010426  3.146205
C    2.201620  0.141482  3.129432
H    0.335626  -0.938813  3.043728
H    2.625429  -0.235401  2.188097
H    2.669025  -0.400356  3.964574
H    2.433100  1.207573  3.226458
