35
Energy: -21190.386671 eV PBE+vdW (tier 2 basis)
C    -0.110482  0.506958  -0.021646
C    -0.075317  -0.076263  1.377341
O    0.980088  -0.305504  1.965330
H    0.389320  1.483503  -0.006778
H    -1.122800  0.630605  -0.425957
H    0.465886  -0.143646  -0.690775
N    -1.299703  -0.346336  1.931930
C    -1.454381  -0.811530  3.307016
C    -2.302477  -2.101254  3.342367
O    -3.407332  -2.154431  3.893057
H    -2.133534  -0.093378  1.414654
H    -0.431116  -1.064397  3.624792
C    -1.990141  0.271681  4.252058
C    -3.270147  0.975956  3.793782
C    -3.942272  1.791483  4.908907
N    -4.155059  1.070541  6.171498
C    -5.264716  0.244857  6.404034
N    -5.595396  -0.577694  5.339348
N    -5.956485  0.200981  7.495028
H    -1.187551  1.011397  4.396508
H    -2.172867  -0.192058  5.231475
H    -3.990312  0.244609  3.404934
H    -3.054432  1.675948  2.970253
H    -4.891306  2.201646  4.523117
H    -3.298716  2.647862  5.158588
H    -3.949179  1.635976  6.987027
H    -6.345507  -1.211536  5.597325
H    -4.818834  -1.052667  4.873238
H    -5.700179  0.966580  8.125159
N    -1.779053  -3.205928  2.742905
C    -0.514554  -3.366744  2.043821
H    -2.407704  -4.003473  2.773808
H    -0.158959  -4.394416  2.183861
H    0.248612  -2.687496  2.439006
H    -0.611336  -3.173503  0.964252
