35
Energy: -21190.4335965 eV PBE+vdW (tier 2 basis)
C    0.716335  -0.993043  2.448454
C    0.054113  -0.335907  3.641924
O    0.675963  0.024567  4.635503
H    1.793686  -1.021021  2.628635
H    0.515401  -0.448441  1.515698
H    0.349180  -2.019788  2.308328
N    -1.312949  -0.141161  3.566858
C    -2.224760  -0.595516  2.525101
C    -2.140273  0.225827  1.223170
O    -2.423133  -0.291336  0.136960
H    -1.717024  0.203803  4.434195
H    -1.977656  -1.622951  2.217295
C    -3.658351  -0.602827  3.105988
C    -4.786140  -0.879963  2.098288
C    -5.411699  0.406427  1.528118
N    -6.331881  0.170182  0.431829
C    -6.151298  0.572169  -0.886498
N    -4.850025  0.930498  -1.220418
N    -7.079068  0.654828  -1.783319
H    -3.836317  0.370698  3.596658
H    -3.667043  -1.356663  3.906121
H    -5.575559  -1.466261  2.590529
H    -4.415683  -1.492769  1.265463
H    -4.633182  1.090951  1.168845
H    -5.933277  0.942943  2.339930
H    -7.292313  -0.038801  0.672210
H    -4.777969  1.078517  -2.222185
H    -4.085611  0.363279  -0.847643
H    -8.005222  0.492341  -1.378389
N    -1.785166  1.522444  1.361600
C    -1.707284  2.434986  0.231666
H    -1.497077  1.831067  2.283806
H    -1.086491  2.005401  -0.565643
H    -1.260704  3.376045  0.567252
H    -2.704418  2.634930  -0.184624
