35
Energy: -21190.3821051 eV PBE+vdW (tier 2 basis)
C    0.299673  0.632168  1.641469
C    -0.304051  -0.183385  2.763382
O    0.375378  -0.621036  3.687449
H    0.276115  1.696521  1.919339
H    -0.209744  0.512141  0.678501
H    1.349479  0.339891  1.542839
N    -1.665250  -0.445527  2.742374
C    -2.725929  0.017781  1.844361
C    -2.738187  -0.678611  0.457227
O    -3.420768  -0.232956  -0.462996
H    -1.960069  -0.916506  3.592695
H    -3.657613  -0.326033  2.323374
C    -2.843911  1.542936  1.673623
C    -2.892222  2.308303  2.992618
C    -3.003341  3.834347  2.801785
N    -2.020633  4.438203  1.913817
C    -0.670118  4.505980  2.227167
N    0.112683  4.891833  1.131506
N    -0.090401  4.249519  3.349443
H    -3.748979  1.723895  1.077279
H    -2.005808  1.905327  1.063230
H    -1.999319  2.073637  3.589750
H    -3.756434  1.982176  3.594813
H    -2.943198  4.335037  3.779993
H    -3.991317  4.084391  2.389130
H    -2.215774  4.338959  0.923080
H    1.064301  5.088880  1.428882
H    -0.274391  5.651749  0.577729
H    -0.739907  3.865023  4.037866
N    -1.991747  -1.810686  0.373203
C    -1.914000  -2.612863  -0.830937
H    -1.458493  -2.073875  1.194981
H    -2.265858  -3.637621  -0.647939
H    -0.884858  -2.655609  -1.214190
H    -2.556280  -2.144316  -1.584377
