35
Energy: -21190.6301167 eV PBE+vdW (tier 2 basis)
C    0.255308  -1.178013  0.356439
C    -0.343497  -1.251194  1.748440
O    -0.232493  -2.248200  2.460628
H    -0.148672  -2.002565  -0.243734
H    1.339414  -1.328622  0.431432
H    0.060827  -0.229646  -0.159439
N    -1.013310  -0.131063  2.156290
C    -1.660799  -0.042212  3.453540
C    -2.965441  0.737883  3.251384
O    -2.981161  1.805904  2.625731
H    -1.115660  0.671624  1.543337
H    -1.863765  -1.076185  3.770447
C    -0.743651  0.630796  4.499118
C    -1.340937  0.768032  5.915446
C    -1.398429  2.219120  6.422096
N    -2.186497  3.103401  5.586910
C    -3.549345  3.234935  5.719906
N    -4.118982  3.932208  4.641988
N    -4.151743  2.796200  6.778583
H    -0.466804  1.618269  4.097845
H    0.180602  0.038648  4.522376
H    -0.754824  0.172525  6.630061
H    -2.363763  0.365248  5.956476
H    -0.381396  2.634147  6.492586
H    -1.840421  2.244462  7.425673
H    -1.786399  3.429466  4.717122
H    -5.132009  3.964448  4.687722
H    -3.804310  3.590144  3.731433
H    -5.154794  2.986728  6.728838
N    -4.064718  0.167337  3.798873
C    -5.388793  0.759789  3.774376
H    -3.935545  -0.699704  4.306499
H    -6.136569  0.000732  3.513079
H    -5.396123  1.545859  3.012961
H    -5.642260  1.198989  4.749890
