35
Energy: -21190.4752272 eV PBE+vdW (tier 2 basis)
C    0.848343  -0.108761  0.817159
C    0.318947  0.103910  2.222390
O    1.067824  0.255296  3.190675
H    1.519485  -0.976287  0.820724
H    1.445470  0.765714  0.529325
H    0.060750  -0.264068  0.069929
N    -1.038205  0.129285  2.341270
C    -1.689458  0.259860  3.625899
C    -3.040414  -0.462548  3.507820
O    -3.565670  -0.666216  2.411934
H    -1.655403  -0.109178  1.567546
H    -1.050399  -0.241547  4.370443
C    -1.893666  1.743927  4.061298
C    -1.681866  2.001464  5.557343
C    -0.190232  2.088730  5.923657
N    0.085396  2.170312  7.349701
C    -0.159209  3.323301  8.067094
N    0.091840  3.154603  9.442291
N    -0.594630  4.388622  7.483907
H    -2.894520  2.074832  3.748466
H    -1.177847  2.350542  3.488481
H    -2.163549  1.214467  6.165251
H    -2.163424  2.943430  5.850816
H    0.230942  2.989445  5.457363
H    0.366619  1.232348  5.518270
H    0.019869  1.306732  7.876192
H    0.062689  4.025022  9.962906
H    0.936468  2.627466  9.652842
H    -0.599551  5.184092  8.126249
N    -3.613328  -0.815658  4.689421
C    -4.937297  -1.402799  4.782902
H    -3.109270  -0.608319  5.543206
H    -4.903695  -2.367585  5.306719
H    -5.300734  -1.563617  3.762967
H    -5.634301  -0.735168  5.308921
