35
Energy: -21190.6716887 eV PBE+vdW (tier 2 basis)
C    1.337334  0.277040  0.150942
C    1.013810  0.287477  1.629642
O    1.846595  0.662195  2.466299
H    2.206997  -0.371214  -0.013491
H    1.623738  1.290582  -0.155886
H    0.507115  -0.067378  -0.476582
N    -0.240411  -0.118937  1.960710
C    -0.671866  -0.322091  3.330853
C    -1.313257  -1.716419  3.403801
O    -1.876926  -2.196458  2.416085
H    -0.821705  -0.586168  1.266889
H    0.222847  -0.276761  3.961971
C    -1.703724  0.727528  3.804180
C    -1.244408  2.189399  3.762824
C    0.046537  2.511533  4.540347
N    0.109091  1.867410  5.841846
C    1.155739  1.115152  6.361386
N    2.178074  0.807354  5.490594
N    1.226323  0.688027  7.585404
H    -1.993508  0.468156  4.832498
H    -2.609023  0.618425  3.187744
H    -2.072978  2.800775  4.154931
H    -1.099117  2.513182  2.720793
H    0.137019  3.607263  4.639590
H    0.911999  2.192370  3.952571
H    -0.536147  2.200942  6.547745
H    2.842582  0.152129  5.882009
H    2.043677  0.763827  4.480263
H    0.458308  1.058366  8.151290
N    -1.262338  -2.360057  4.598256
C    -0.571896  -1.943418  5.814528
H    -1.744731  -3.253270  4.599880
H    -0.622924  -2.764531  6.536076
H    -1.026119  -1.057321  6.277878
H    0.487930  -1.723521  5.634208
