35
Energy: -21190.2100721 eV PBE+vdW (tier 2 basis)
C    -2.809956  0.146731  -0.474194
C    -1.871267  -0.350787  0.604289
O    -0.985500  -1.160828  0.348476
H    -3.384447  1.050297  -0.248726
H    -3.519938  -0.663148  -0.697093
H    -2.222000  0.316808  -1.382405
N    -2.071258  0.017889  1.931781
C    -2.722039  1.182965  2.545866
C    -4.219029  1.320471  2.183237
O    -4.783024  2.415067  2.129405
H    -1.350388  -0.411263  2.508776
H    -2.757134  0.928331  3.619951
C    -1.909627  2.493899  2.471332
C    -1.727278  3.156732  1.092944
C    -2.582694  4.429767  0.929406
N    -2.760582  4.889604  -0.438991
C    -3.543311  4.240965  -1.389411
N    -4.447943  3.316137  -0.881876
N    -3.491444  4.417218  -2.668741
H    -0.927881  2.260264  2.907660
H    -2.382700  3.205916  3.165113
H    -1.984779  2.461992  0.286026
H    -0.668881  3.410621  0.937240
H    -2.131438  5.257454  1.496538
H    -3.565169  4.258888  1.387390
H    -1.980858  5.394375  -0.844137
H    -5.162571  3.084289  -1.562596
H    -4.790309  3.429537  0.068019
H    -2.739651  5.061881  -2.925518
N    -4.866879  0.137474  2.035265
C    -6.271570  0.046440  1.690224
H    -4.294993  -0.700863  2.033613
H    -6.760929  -0.734088  2.285737
H    -6.412600  -0.180491  0.622445
H    -6.739431  1.012199  1.906985
