35
Energy: -21190.5122012 eV PBE+vdW (tier 2 basis)
C    -1.327473  2.069197  1.146723
C    -1.042745  1.341460  2.445785
O    0.085388  1.362172  2.954364
H    -0.704983  1.627721  0.357938
H    -1.023479  3.117209  1.255106
H    -2.377357  2.028943  0.832176
N    -2.101615  0.682623  2.993815
C    -2.097089  -0.191310  4.180332
C    -1.902711  0.547713  5.529960
O    -2.732266  0.395483  6.430270
H    -2.990261  0.781452  2.519760
H    -3.127643  -0.559873  4.255894
C    -1.140132  -1.391178  4.010315
C    -1.069779  -2.341376  5.210008
C    -2.392231  -3.012584  5.623028
N    -3.119123  -3.692241  4.557066
C    -2.655115  -4.855704  3.981680
N    -3.468235  -5.276777  2.909302
N    -1.577561  -5.423978  4.405574
H    -0.132094  -1.013432  3.796668
H    -1.458868  -1.943821  3.112217
H    -0.684073  -1.805919  6.091722
H    -0.343363  -3.129965  4.974262
H    -3.077569  -2.275671  6.063047
H    -2.172378  -3.758709  6.397815
H    -3.705230  -3.118419  3.963031
H    -3.226688  -6.201977  2.569306
H    -4.467295  -5.203920  3.089923
H    -1.441686  -6.333949  3.959427
N    -0.773243  1.285997  5.636179
C    -0.433056  2.020264  6.838162
H    -0.184910  1.359358  4.797563
H    -1.191463  1.803202  7.597770
H    -0.414695  3.103773  6.651162
H    0.552345  1.714975  7.216971
