35
Energy: -21190.5570437 eV PBE+vdW (tier 2 basis)
C    0.342313  -0.241114  0.955609
C    -0.381970  -0.243400  2.284794
O    0.142916  0.190246  3.316381
H    1.265206  -0.826014  1.053859
H    0.632499  0.789567  0.716862
H    -0.252631  -0.645194  0.127599
N    -1.651366  -0.743144  2.273457
C    -2.482526  -0.792539  3.475622
C    -2.145591  -2.068852  4.295063
O    -2.833368  -3.087660  4.240477
H    -2.005183  -1.179550  1.429429
H    -2.188966  0.085586  4.068647
C    -3.962710  -0.724243  3.100696
C    -4.916295  -0.598893  4.294814
C    -4.730874  0.681087  5.110031
N    -5.729834  0.761529  6.159909
C    -5.718758  1.799714  7.084388
N    -6.839616  1.773482  7.922873
N    -4.836527  2.727036  7.229163
H    -4.223749  -1.638002  2.546096
H    -4.100764  0.130454  2.419616
H    -4.808492  -1.473992  4.950470
H    -5.947142  -0.625876  3.905226
H    -4.766004  1.562339  4.437700
H    -3.739810  0.686979  5.589842
H    -6.659202  0.447645  5.894428
H    -6.744044  2.459382  8.666420
H    -7.074473  0.852017  8.282913
H    -4.149842  2.716531  6.471782
N    -1.021467  -1.930916  5.046020
C    -0.447724  -3.030840  5.796990
H    -0.459314  -1.096124  4.867528
H    -0.126713  -2.688350  6.788875
H    0.417776  -3.470987  5.278536
H    -1.214752  -3.803906  5.910885
