35
Energy: -21190.6150036 eV PBE+vdW (tier 2 basis)
C    -1.685784  -1.125983  3.789921
C    -0.693515  -0.874334  2.670021
O    -0.664979  -1.553955  1.646891
H    -1.631464  -2.181811  4.081400
H    -2.699143  -0.945523  3.408378
H    -1.516342  -0.493464  4.670145
N    0.174377  0.165720  2.898393
C    1.120138  0.611431  1.887728
C    2.562448  0.736644  2.424084
O    3.414554  1.392424  1.824923
H    0.038140  0.740483  3.735578
H    1.156118  -0.213769  1.156521
C    0.668562  1.875643  1.119970
C    0.094105  3.003198  1.983755
C    1.090943  3.737312  2.910096
N    0.476637  4.209422  4.153009
C    0.082354  3.274523  5.100792
N    -1.012173  3.655672  5.866438
N    0.608541  2.106402  5.303257
H    -0.105190  1.563123  0.404966
H    1.530302  2.224059  0.533952
H    -0.714873  2.592308  2.607477
H    -0.389210  3.739815  1.324440
H    1.530425  4.606077  2.403516
H    1.946280  3.101521  3.168122
H    -0.194707  4.959339  4.010131
H    -1.079964  3.131630  6.732888
H    -1.159313  4.651592  5.989365
H    1.436639  1.978739  4.717057
N    2.812361  0.052915  3.574882
C    4.127752  -0.019929  4.178088
H    2.046709  -0.485276  3.967069
H    4.556490  -1.028807  4.090088
H    4.083542  0.255414  5.240373
H    4.777240  0.684445  3.647288
