35
Energy: -21189.9404449 eV PBE+vdW (tier 2 basis)
C    -0.266993  -0.807363  0.688245
C    -0.380895  -0.201724  2.076150
O    0.604120  -0.065663  2.802228
H    0.788730  -1.019299  0.500954
H    -0.633232  -0.119561  -0.085911
H    -0.838751  -1.742302  0.615055
N    -1.621479  0.178545  2.507840
C    -2.910679  0.221505  1.822176
C    -3.342487  -1.196471  1.362299
O    -3.437772  -2.074322  2.216478
H    -1.626070  0.561220  3.448965
H    -3.611719  0.398250  2.651135
C    -3.045616  1.446986  0.896307
C    -4.491795  1.909267  0.674432
C    -5.164240  2.488547  1.930669
N    -4.453023  3.627084  2.502467
C    -3.739851  3.515206  3.681150
N    -3.324425  4.757930  4.177411
N    -3.544370  2.364253  4.233142
H    -2.538134  1.297899  -0.064415
H    -2.498190  2.261609  1.391053
H    -5.124594  1.080552  0.316469
H    -4.503320  2.672820  -0.119152
H    -5.251263  1.727179  2.717421
H    -6.185123  2.807822  1.676339
H    -4.855119  4.539909  2.329347
H    -2.621818  4.691892  4.906002
H    -3.061449  5.439805  3.470310
H    -2.965484  2.451002  5.070659
N    -3.696983  -1.492300  0.065244
C    -3.456876  -0.829774  -1.209369
H    -3.988422  -2.464209  0.009818
H    -3.764952  -1.520330  -2.002099
H    -2.396351  -0.593806  -1.371998
H    -4.046191  0.088301  -1.327753
