35
Energy: -21190.3688382 eV PBE+vdW (tier 2 basis)
C    0.648169  -0.309157  0.249523
C    -0.018262  0.704892  1.159532
O    0.350355  1.878716  1.219958
H    1.713706  -0.363730  0.504677
H    0.578280  0.046000  -0.786157
H    0.210483  -1.312653  0.314029
N    -1.063090  0.230638  1.898908
C    -1.739267  1.051416  2.880972
C    -2.318242  0.092418  3.931542
O    -2.468102  -1.106118  3.678839
H    -1.293398  -0.760351  1.938546
H    -0.987710  1.719895  3.329309
C    -2.836883  1.944272  2.248605
C    -3.989403  1.165948  1.615246
C    -4.994809  2.083870  0.926286
N    -6.071169  1.293807  0.328985
C    -7.228347  1.859784  -0.199362
N    -7.061521  3.155588  -0.683626
N    -8.393135  1.309267  -0.270132
H    -2.332664  2.565192  1.493892
H    -3.223625  2.637632  3.010637
H    -4.510996  0.572551  2.385203
H    -3.594056  0.447261  0.881507
H    -4.472624  2.654480  0.141086
H    -5.390698  2.824076  1.646034
H    -6.253228  0.417441  0.807797
H    -7.872543  3.447414  -1.220370
H    -6.183951  3.345586  -1.157745
H    -8.415694  0.416833  0.230597
N    -2.691698  0.610559  5.133854
C    -2.554105  1.969123  5.630627
H    -3.119515  -0.077724  5.746249
H    -2.386258  1.940118  6.713781
H    -3.447677  2.581488  5.435265
H    -1.688929  2.463877  5.175695
