35
Energy: -21190.0586901 eV PBE+vdW (tier 2 basis)
C    0.044344  -0.008137  0.700699
C    -0.501392  0.336226  2.070203
O    0.213322  0.838868  2.939509
H    -0.626183  0.257671  -0.123766
H    0.997704  0.513630  0.582807
H    0.227905  -1.090331  0.639674
N    -1.805972  0.003297  2.383336
C    -2.993042  -0.084663  1.521745
C    -2.795236  -0.948494  0.259908
O    -2.984900  -0.502683  -0.870101
H    -2.014790  0.293748  3.337627
H    -3.737453  -0.635430  2.123571
C    -3.604284  1.298031  1.225576
C    -2.676657  2.328343  0.579306
C    -3.063739  3.776546  0.907233
N    -3.150042  4.071251  2.346556
C    -2.084193  4.595137  3.088103
N    -0.838386  4.068677  2.765468
N    -2.174406  5.498139  4.007000
H    -3.937350  1.700760  2.195737
H    -4.503439  1.153188  0.609619
H    -2.660247  2.198996  -0.511137
H    -1.641719  2.179919  0.914148
H    -4.055273  3.992905  0.483325
H    -2.348398  4.457657  0.420914
H    -4.025966  4.501143  2.619636
H    -0.125373  4.448180  3.381893
H    -0.771011  3.054478  2.703828
H    -3.107831  5.919619  4.022352
N    -2.452890  -2.256592  0.455533
C    -2.212846  -2.968133  1.700212
H    -2.336297  -2.766697  -0.414555
H    -2.309575  -4.042817  1.509613
H    -2.954763  -2.698666  2.462534
H    -1.213364  -2.772906  2.115393
