35
Energy: -21190.6343835 eV PBE+vdW (tier 2 basis)
C    3.620064  0.036544  4.321377
C    2.135736  -0.078804  4.601764
O    1.702366  -0.095701  5.763401
H    4.014120  0.910918  4.852878
H    4.121474  -0.848959  4.733128
H    3.866191  0.118933  3.256085
N    1.332574  -0.156793  3.507995
C    -0.112724  -0.418667  3.461222
C    -1.043309  0.687603  4.003304
O    -2.080456  0.959913  3.380280
H    1.777456  -0.081231  2.600518
H    -0.327836  -0.421869  2.388110
C    -0.498852  -1.782760  4.079200
C    -0.051289  -3.027182  3.293860
C    -0.979142  -3.501633  2.154443
N    -0.956567  -2.747982  0.902929
C    -1.448141  -1.454159  0.766863
N    -2.688935  -1.198364  1.328956
N    -0.728469  -0.597181  0.111636
H    -1.593345  -1.796658  4.194327
H    -0.082781  -1.822027  5.094996
H    0.024411  -3.865882  4.004264
H    0.968369  -2.882724  2.899640
H    -0.712973  -4.536950  1.896672
H    -2.013703  -3.553304  2.528547
H    -0.083342  -2.824911  0.386616
H    -2.738088  -0.313800  1.843174
H    -3.116890  -1.964388  1.838025
H    -1.266459  0.257769  -0.057442
N    -0.684861  1.265235  5.168377
C    -1.486810  2.285516  5.814559
H    0.146551  0.881136  5.636590
H    -0.852120  3.120450  6.138598
H    -2.015319  1.885813  6.693056
H    -2.229863  2.649665  5.097550
