35
Energy: -21190.6405856 eV PBE+vdW (tier 2 basis)
C    -1.469506  -3.902786  1.773214
C    -1.008609  -2.681792  2.539595
O    0.116101  -2.622554  3.054839
H    -2.496515  -3.826117  1.396203
H    -1.389112  -4.782165  2.423772
H    -0.790491  -4.060380  0.925713
N    -1.900555  -1.658276  2.625841
C    -1.595399  -0.361070  3.235376
C    -1.741757  -0.404672  4.785198
O    -2.575337  0.265375  5.405137
H    -2.828144  -1.784548  2.238144
H    -0.527595  -0.180173  3.035583
C    -2.418389  0.756532  2.594856
C    -3.935957  0.538208  2.573276
C    -4.721043  1.828454  2.284286
N    -4.359040  2.974897  3.124556
C    -4.929383  3.187996  4.384470
N    -4.962257  2.061980  5.195991
N    -5.371882  4.372374  4.652148
H    -2.047529  0.916820  1.570425
H    -2.214547  1.681841  3.150752
H    -4.273305  0.117881  3.529297
H    -4.225474  -0.184614  1.790927
H    -5.800408  1.605811  2.350176
H    -4.520124  2.140111  1.248918
H    -4.384816  3.857968  2.622946
H    -5.293720  2.248547  6.135744
H    -4.130454  1.463111  5.187112
H    -5.619211  4.456289  5.642428
N    -0.845509  -1.226869  5.376001
C    -0.810076  -1.460880  6.806107
H    -0.225869  -1.755570  4.751398
H    0.211835  -1.339951  7.188455
H    -1.160694  -2.473013  7.056807
H    -1.465244  -0.730740  7.292067
