35
Energy: -21190.2657396 eV PBE+vdW (tier 2 basis)
C    0.223294  0.153400  0.859275
C    -0.056001  0.725261  2.228481
O    0.853859  1.238821  2.887502
H    0.553822  0.978539  0.213227
H    -0.615393  -0.355972  0.378924
H    1.063525  -0.544930  0.959065
N    -1.318912  0.655498  2.783049
C    -2.642829  0.523122  2.153494
C    -2.805808  -0.784378  1.334344
O    -3.476915  -0.827307  0.307999
H    -1.323768  1.126995  3.685834
H    -3.327825  0.371468  3.004808
C    -3.171350  1.765000  1.405441
C    -2.279891  2.364655  0.308620
C    -1.265426  3.394619  0.830425
N    -0.146986  3.553080  -0.096572
C    1.019523  4.237014  0.260649
N    1.466629  3.997157  1.552973
N    1.551897  5.016743  -0.621218
H    -3.400439  2.538621  2.156007
H    -4.131838  1.458140  0.971510
H    -2.924665  2.846557  -0.440971
H    -1.752614  1.569597  -0.233426
H    -0.861410  3.082896  1.798717
H    -1.783042  4.355432  1.020130
H    -0.421565  3.868499  -1.025431
H    2.390029  4.365339  1.746707
H    1.316076  3.071029  1.957590
H    2.469244  5.351767  -0.314244
N    -2.220337  -1.873887  1.904974
C    -2.255562  -3.189996  1.297866
H    -1.620452  -1.711491  2.706578
H    -3.008316  -3.172638  0.503003
H    -2.530845  -3.950761  2.039548
H    -1.284253  -3.459735  0.856469
