35
Energy: -21190.2861458 eV PBE+vdW (tier 2 basis)
C    0.299342  -0.759774  -0.422800
C    0.310052  -0.471108  1.067344
O    0.726614  -1.280309  1.891613
H    1.308830  -1.056426  -0.731418
H    -0.028362  0.087841  -1.037564
H    -0.364528  -1.613511  -0.609694
N    -0.167317  0.764923  1.429104
C    -0.387551  1.113356  2.836083
C    -1.464199  2.197233  2.963242
O    -2.425070  2.015363  3.719967
H    -0.661259  1.302798  0.726660
H    -0.818269  0.231917  3.331847
C    0.935716  1.444382  3.572254
C    0.838919  1.502572  5.110102
C    0.745052  2.901430  5.733596
N    -0.536191  3.552316  5.506201
C    -0.759054  4.833112  5.059094
N    0.376233  5.649541  4.964549
N    -1.897478  5.316978  4.671156
H    1.369743  2.377538  3.187206
H    1.623840  0.636540  3.294349
H    1.737732  1.031192  5.533459
H    -0.004818  0.886616  5.461740
H    1.537928  3.532541  5.307729
H    0.947517  2.815582  6.816634
H    -1.348556  2.944492  5.447176
H    0.086931  6.610296  4.801583
H    1.027619  5.581416  5.741517
H    -2.627801  4.600105  4.723669
N    -1.359598  3.344306  2.228992
C    -0.175831  3.934508  1.611431
H    -2.058482  4.029218  2.519348
H    0.374130  4.568694  2.323340
H    -0.490117  4.556116  0.763748
H    0.499861  3.162425  1.232505
