35
Energy: -21190.5344058 eV PBE+vdW (tier 2 basis)
C    0.281677  0.224945  0.168181
C    0.126187  -0.045779  1.647103
O    1.075202  -0.312939  2.388276
H    1.126506  -0.357316  -0.212709
H    0.503470  1.297630  0.035686
H    -0.623533  -0.012737  -0.405680
N    -1.145431  0.089487  2.135324
C    -1.459122  -0.117857  3.532826
C    -2.965455  -0.405635  3.623398
O    -3.738103  -0.117977  2.707944
H    -1.946451  0.216996  1.521524
H    -0.891744  -0.998351  3.878571
C    -1.039018  1.068206  4.442053
C    -1.874495  2.354516  4.358141
C    -1.964356  3.052549  2.997874
N    -0.641163  3.397436  2.472964
C    -0.494117  4.090687  1.278041
N    -1.394732  5.143042  1.106955
N    0.412930  3.710395  0.440475
H    0.021801  1.262364  4.228533
H    -1.059540  0.721159  5.487187
H    -1.458061  3.065737  5.088226
H    -2.905924  2.144375  4.682717
H    -2.546444  3.974199  3.134674
H    -2.534320  2.431430  2.285555
H    0.012965  2.617840  2.474660
H    -1.165859  5.765889  0.340964
H    -1.659351  5.642492  1.951185
H    0.522899  4.381400  -0.324583
N    -3.371322  -0.959261  4.798112
C    -4.760914  -1.251696  5.096772
H    -2.663270  -1.206503  5.479209
H    -5.361652  -0.897990  4.252670
H    -5.085872  -0.735981  6.010852
H    -4.924088  -2.331418  5.219942
