35
Energy: -21190.135007 eV PBE+vdW (tier 2 basis)
C    0.209140  -0.147243  2.851458
C    0.103719  0.226525  1.385929
O    0.969064  -0.070133  0.563753
H    -0.602429  -0.825840  3.151103
H    0.152445  0.736223  3.502543
H    1.169152  -0.645942  3.005493
N    -1.022187  0.910324  0.997217
C    -2.174418  1.276804  1.801118
C    -3.187491  0.161457  2.155768
O    -4.010200  0.396614  3.043377
H    -1.034785  1.132731  0.005729
H    -1.816321  1.584921  2.794566
C    -2.885760  2.512634  1.211157
C    -3.614775  2.340888  -0.130010
C    -4.952409  1.572003  -0.071189
N    -5.895854  2.043497  0.938887
C    -6.395451  3.340605  0.927572
N    -6.723650  3.810581  -0.351651
N    -6.490605  3.990194  2.036926
H    -2.119199  3.294028  1.105932
H    -3.595069  2.881001  1.963976
H    -2.970535  1.858021  -0.885832
H    -3.822065  3.346805  -0.523545
H    -4.790144  0.505906  0.130389
H    -5.419127  1.616303  -1.065895
H    -5.653982  1.765399  1.889866
H    -7.136292  3.120194  -0.973783
H    -7.249772  4.677343  -0.343159
H    -7.008334  4.865151  1.915203
N    -3.163043  -1.063662  1.548280
C    -2.503128  -1.537220  0.334589
H    -3.883267  -1.666949  1.935134
H    -2.995206  -2.469267  0.034720
H    -1.436704  -1.747865  0.481192
H    -2.606659  -0.828491  -0.496951
