35
Energy: -21190.0709581 eV PBE+vdW (tier 2 basis)
C    -0.022062  -0.049287  -0.118970
C    -0.002059  -0.045945  1.401406
O    1.033776  -0.268707  2.026488
H    0.245731  -1.054764  -0.467708
H    0.752520  0.637803  -0.480592
H    -0.986137  0.231981  -0.560647
N    -1.206682  0.235850  1.985735
C    -1.610385  0.196870  3.398645
C    -1.808356  1.567400  4.090295
O    -2.705785  1.659641  4.929561
H    -1.971771  0.406806  1.344246
H    -2.642109  -0.178377  3.370012
C    -0.836892  -0.788233  4.311134
C    0.372095  -0.238631  5.069133
C    1.034016  -1.267892  5.996775
N    0.180145  -1.801596  7.045046
C    -0.498486  -3.009332  6.952686
N    -1.362400  -3.207030  8.038340
N    -0.435557  -3.911176  6.033845
H    -0.543941  -1.653552  3.701430
H    -1.571594  -1.155427  5.040372
H    0.065412  0.631484  5.673150
H    1.134764  0.106873  4.358789
H    1.914323  -0.803634  6.468045
H    1.419174  -2.115583  5.412434
H    -0.271927  -1.109417  7.634723
H    -0.963050  -2.975623  8.944388
H    -1.740529  -4.149905  8.020918
H    0.120510  -3.602869  5.233890
N    -1.024688  2.642349  3.788566
C    0.166140  2.763181  2.961021
H    -1.310321  3.463997  4.313302
H    0.763645  1.846024  2.973086
H    0.787346  3.570468  3.366792
H    -0.075939  3.009094  1.915494
