35
Energy: -21190.3228936 eV PBE+vdW (tier 2 basis)
C    0.465984  1.393164  0.736730
C    0.633781  -0.099202  0.937686
O    1.689551  -0.608490  1.313966
H    1.438835  1.867784  0.887488
H    -0.253835  1.813055  1.453972
H    0.087381  1.622632  -0.268840
N    -0.463649  -0.883125  0.679607
C    -1.792297  -0.438699  0.291716
C    -2.647807  0.174280  1.419045
O    -3.351680  1.156993  1.175443
H    -0.292826  -1.875877  0.812818
H    -1.677110  0.372393  -0.439974
C    -2.531579  -1.581741  -0.428781
C    -3.896049  -1.196846  -1.010886
C    -3.866887  -0.121407  -2.108860
N    -3.139727  -0.498312  -3.312065
C    -1.840080  -0.113516  -3.560302
N    -1.345741  -0.666390  -4.753749
N    -1.187743  0.639893  -2.738415
H    -2.665122  -2.434479  0.257471
H    -1.865518  -1.927131  -1.234420
H    -4.561993  -0.834049  -0.213357
H    -4.368801  -2.108366  -1.412513
H    -3.414845  0.804341  -1.735387
H    -4.903441  0.117247  -2.391499
H    -3.443166  -1.342032  -3.785210
H    -0.445672  -0.290426  -5.031886
H    -2.004677  -0.669051  -5.528665
H    -0.287062  0.918190  -3.132525
N    -2.641629  -0.377947  2.670470
C    -1.940671  -1.543098  3.189845
H    -3.231511  0.137648  3.316136
H    -2.378157  -1.794488  4.162775
H    -0.865460  -1.365264  3.329814
H    -2.069864  -2.420541  2.542373
