35
Energy: -21190.4846125 eV PBE+vdW (tier 2 basis)
C    -4.256538  1.658020  1.054413
C    -2.900640  1.218385  1.569821
O    -1.865372  1.402498  0.926569
H    -5.086267  1.403297  1.724587
H    -4.427151  1.194809  0.074917
H    -4.240324  2.744679  0.903220
N    -2.907043  0.626509  2.801027
C    -1.723729  0.031307  3.388892
C    -2.152004  -1.304756  4.016599
O    -3.295397  -1.470864  4.442586
H    -3.782685  0.349100  3.239575
H    -1.008309  -0.135560  2.569354
C    -1.081607  0.928468  4.478294
C    -0.647663  2.314115  3.991625
C    0.535357  2.293225  3.009451
N    0.940998  3.600608  2.516680
C    1.435124  4.619885  3.315157
N    2.279092  4.206185  4.349645
N    1.172710  5.843347  2.997019
H    -0.217274  0.391581  4.904358
H    -1.811384  1.035874  5.295015
H    -0.385705  2.926317  4.868486
H    -1.495824  2.823456  3.510929
H    0.264390  1.704121  2.123827
H    1.401125  1.780496  3.465542
H    0.352492  3.982199  1.781496
H    2.343438  4.851890  5.126637
H    2.225426  3.236475  4.641140
H    1.710214  6.499327  3.569615
N    -1.171705  -2.243731  4.098409
C    -1.365420  -3.538360  4.725830
H    -0.275648  -2.034800  3.674403
H    -2.388832  -3.567135  5.113453
H    -0.662174  -3.684781  5.557094
H    -1.236675  -4.354182  4.001336
