35
Energy: -21190.2004476 eV PBE+vdW (tier 2 basis)
C    -0.946977  -1.080733  -0.189074
C    -0.728487  -0.636343  1.243800
O    0.195722  0.107393  1.568420
H    -0.081305  -1.673028  -0.512483
H    -0.990047  -0.191572  -0.829295
H    -1.858707  -1.673381  -0.334394
N    -1.621597  -1.139161  2.153754
C    -1.592438  -0.770828  3.565214
C    -1.598441  -2.034505  4.448915
O    -2.527051  -2.303604  5.211864
H    -2.374226  -1.730192  1.820838
H    -0.617310  -0.272306  3.685464
C    -2.655268  0.272330  3.958928
C    -4.148149  -0.085979  3.898529
C    -4.697801  -0.457962  2.522119
N    -6.160357  -0.477690  2.561653
C    -6.929688  -0.944035  1.497577
N    -6.351205  -0.738944  0.243561
N    -8.078718  -1.524345  1.569100
H    -2.463007  1.154409  3.327639
H    -2.430397  0.579625  4.990756
H    -4.704748  0.798401  4.247970
H    -4.351603  -0.900697  4.606375
H    -4.316296  -1.445056  2.199613
H    -4.356148  0.277085  1.776023
H    -6.535060  -0.766819  3.460707
H    -5.880175  0.152859  0.120322
H    -7.025524  -0.927682  -0.492476
H    -8.330927  -1.736214  2.538306
N    -0.508154  -2.852880  4.356525
C    0.678052  -2.723486  3.526626
H    -0.596741  -3.686418  4.930250
H    0.557065  -3.210600  2.546375
H    1.526086  -3.188358  4.043410
H    0.928593  -1.671419  3.350244
