35
Energy: -21190.3604666 eV PBE+vdW (tier 2 basis)
C    -0.441205  0.684962  -0.548503
C    -0.639419  0.138057  0.851594
O    -0.053801  -0.870236  1.247442
H    0.628540  0.869448  -0.705192
H    -0.997057  1.609781  -0.745639
H    -0.750633  -0.079535  -1.272145
N    -1.497785  0.852516  1.643319
C    -1.866390  0.420198  2.986007
C    -3.285830  -0.178503  2.931573
O    -4.262891  0.552702  2.752928
H    -2.059211  1.586124  1.223503
H    -1.120575  -0.334854  3.260424
C    -1.831293  1.574384  3.992968
C    -0.449051  2.196883  4.177238
C    -0.443643  3.338450  5.201772
N    -0.802997  2.905886  6.550586
C    -1.840681  3.441421  7.297854
N    -2.944482  3.855862  6.544259
N    -1.697327  3.531715  8.577740
H    -2.186621  1.186238  4.960656
H    -2.562873  2.334299  3.671154
H    -0.077873  2.587483  3.216938
H    0.268120  1.422237  4.493649
H    -1.145340  4.125792  4.892522
H    0.555092  3.803415  5.222677
H    -0.027667  2.669196  7.161623
H    -3.747708  4.109187  7.108190
H    -3.199401  3.261774  5.759638
H    -2.573417  3.798179  9.033772
N    -3.408159  -1.526716  3.062127
C    -2.359371  -2.523626  3.246403
H    -4.371433  -1.847376  3.026300
H    -1.491055  -2.306095  2.612122
H    -2.756802  -3.500106  2.947950
H    -2.033360  -2.595727  4.295530
