35
Energy: -21190.0667545 eV PBE+vdW (tier 2 basis)
C    -0.457497  -0.382971  -0.058814
C    -0.235976  -0.041746  1.405584
O    0.869949  0.306329  1.821240
H    0.244273  -1.176924  -0.342110
H    -0.214393  0.499882  -0.663225
H    -1.477941  -0.707698  -0.295778
N    -1.340897  -0.175123  2.197704
C    -1.462489  0.135955  3.631442
C    -1.896989  1.622691  3.788520
O    -3.106479  1.865117  3.767878
H    -2.219962  -0.354703  1.727125
H    -2.382507  -0.379783  3.939779
C    -0.328807  -0.447339  4.495197
C    -0.733297  -0.703125  5.953958
C    -1.061512  0.551206  6.777448
N    -1.259283  0.293774  8.198137
C    -2.450768  -0.248493  8.651356
N    -2.405916  -0.535683  10.027189
N    -3.431378  -0.461913  7.843579
H    0.580768  0.159132  4.447207
H    -0.058678  -1.412337  4.042206
H    0.100354  -1.233206  6.442869
H    -1.602538  -1.376158  5.995601
H    -1.985660  1.018603  6.415431
H    -0.251958  1.291756  6.685627
H    -0.437325  -0.014241  8.708418
H    -3.307330  -0.793043  10.414990
H    -1.945768  0.174891  10.591505
H    -4.277485  -0.733395  8.349342
N    -0.997692  2.640428  3.907959
C    0.457978  2.668016  3.900007
H    -1.474700  3.532156  4.007543
H    0.881373  2.558881  4.911586
H    0.780291  3.637952  3.501893
H    0.860934  1.887484  3.245481
