35
Energy: -21190.1949612 eV PBE+vdW (tier 2 basis)
C    -0.299186  -2.378408  -0.032494
C    0.187625  -1.307368  0.922872
O    1.376256  -1.164042  1.190491
H    -0.350529  -1.960644  -1.047700
H    -1.288850  -2.780608  0.212561
H    0.438254  -3.186232  -0.037383
N    -0.755062  -0.478706  1.507513
C    -2.181583  -0.350433  1.199943
C    -3.012655  -1.577713  1.665958
O    -4.078620  -1.870084  1.127244
H    -0.322672  0.276726  2.031949
H    -2.528526  0.464162  1.857447
C    -2.501568  0.060998  -0.259538
C    -3.460513  1.251498  -0.390420
C    -4.900236  0.962842  0.033429
N    -5.721677  2.154718  -0.116986
C    -7.010857  2.285821  0.386582
N    -7.382321  1.303956  1.302293
N    -7.827866  3.257081  0.146119
H    -2.909018  -0.803462  -0.801369
H    -1.553143  0.335068  -0.739711
H    -3.459558  1.576700  -1.444199
H    -3.079734  2.105552  0.193972
H    -4.928804  0.661108  1.089271
H    -5.281191  0.101634  -0.547817
H    -5.558676  2.699437  -0.956512
H    -8.362045  1.398284  1.550501
H    -7.113720  0.348549  1.088246
H    -7.389234  3.975906  -0.435860
N    -2.496502  -2.237575  2.735057
C    -3.144107  -3.383161  3.342939
H    -1.579010  -1.946981  3.056090
H    -4.102760  -3.533501  2.835550
H    -3.327326  -3.209644  4.411970
H    -2.535198  -4.291429  3.231133
