35
Energy: -21190.5193326 eV PBE+vdW (tier 2 basis)
C    0.742486  -0.581044  0.241739
C    0.510021  -0.450310  1.730940
O    1.446643  -0.453816  2.540560
H    1.347298  0.271335  -0.094550
H    -0.182336  -0.616830  -0.345821
H    1.328071  -1.489247  0.054869
N    -0.782608  -0.286872  2.116715
C    -1.196656  -0.296807  3.507992
C    -2.475398  -1.147014  3.571298
O    -3.216204  -1.242804  2.590230
H    -1.545205  -0.435857  1.457087
H    -0.378724  -0.756083  4.082362
C    -1.489093  1.108772  4.090732
C    -0.253705  1.965498  4.405443
C    0.357660  2.710970  3.204261
N    1.482030  3.566921  3.535049
C    2.731901  3.104569  3.937922
N    3.141045  1.902583  3.382190
N    3.430292  3.876904  4.707933
H    -2.065223  0.973689  5.018459
H    -2.164228  1.632820  3.395121
H    0.520310  1.340880  4.877366
H    -0.536399  2.720566  5.155554
H    -0.412812  3.346628  2.741490
H    0.666629  2.008331  2.421113
H    1.258920  4.417407  4.043978
H    2.461152  1.207053  3.073096
H    3.945320  1.486739  3.834058
H    4.368670  3.497313  4.855759
N    -2.768717  -1.749833  4.755393
C    -1.959804  -1.790107  5.964446
H    -3.650311  -2.252850  4.748662
H    -0.939407  -2.141776  5.760222
H    -2.421242  -2.494932  6.663466
H    -1.898681  -0.811466  6.462862
