35
Energy: -21190.2510984 eV PBE+vdW (tier 2 basis)
C    0.489239  -0.106228  0.771709
C    -0.036293  -0.072914  2.198449
O    0.720875  -0.089740  3.165240
H    1.577543  -0.192850  0.823030
H    0.236231  0.816739  0.229911
H    0.089371  -0.952984  0.198665
N    -1.396592  -0.025790  2.375189
C    -2.448054  0.094440  1.382880
C    -3.377109  1.245079  1.815691
O    -3.681678  1.398593  2.995922
H    -1.699114  0.103835  3.340078
H    -1.988790  0.327600  0.411664
C    -3.293299  -1.193931  1.250577
C    -2.504892  -2.400150  0.743726
C    -3.344616  -3.675601  0.728298
N    -2.559568  -4.795126  0.211653
C    -3.071014  -6.088479  0.144391
N    -3.833556  -6.462497  1.253340
N    -2.823120  -6.796640  -0.904027
H    -4.142351  -0.987868  0.578714
H    -3.725696  -1.410483  2.240168
H    -1.619540  -2.566576  1.374804
H    -2.135742  -2.198051  -0.276976
H    -4.267935  -3.515677  0.137512
H    -3.668951  -3.900775  1.754184
H    -2.091101  -4.592107  -0.669377
H    -4.035286  -7.455037  1.297064
H    -3.523174  -6.092730  2.147772
H    -3.123183  -7.767591  -0.782073
N    -3.851008  2.022677  0.802493
C    -4.792552  3.107399  1.016296
H    -3.521911  1.839365  -0.137551
H    -4.359556  4.073140  0.721848
H    -5.024376  3.134375  2.086004
H    -5.720572  2.944166  0.451472
