35
Energy: -21190.1683905 eV PBE+vdW (tier 2 basis)
C    -1.196871  0.268476  0.530144
C    -0.365361  0.558503  1.759725
O    0.552565  1.376439  1.755480
H    -0.887155  0.969879  -0.248762
H    -2.276936  0.371196  0.699471
H    -1.027855  -0.755599  0.170134
N    -0.625353  -0.143351  2.922569
C    -1.691892  -1.089926  3.255068
C    -1.752935  -2.262628  2.250150
O    -2.758791  -2.519575  1.587543
H    -0.027057  0.162573  3.684320
H    -1.377945  -1.540778  4.212622
C    -3.045977  -0.401648  3.496757
C    -4.143959  -1.286694  4.125400
C    -5.313852  -1.653168  3.195302
N    -6.025923  -0.514692  2.641441
C    -5.741114  0.045356  1.401067
N    -6.472675  1.224163  1.183376
N    -4.920657  -0.361914  0.496871
H    -3.405738  0.038592  2.558766
H    -2.827600  0.445750  4.161061
H    -4.554198  -0.771441  5.008199
H    -3.714110  -2.227025  4.509654
H    -6.031854  -2.271890  3.756407
H    -4.950727  -2.265176  2.362365
H    -6.427551  0.130336  3.314723
H    -6.356288  1.531174  0.221528
H    -7.455370  1.161345  1.438498
H    -4.352328  -1.154663  0.809098
N    -0.630691  -3.030004  2.132297
C    0.651322  -2.897635  2.805254
H    -0.724890  -3.757857  1.430692
H    1.265904  -2.088510  2.386311
H    0.520438  -2.711103  3.879498
H    1.194499  -3.843543  2.701541
