35
Energy: -21189.8000734 eV PBE+vdW (tier 2 basis)
C    0.202947  1.661000  1.152374
C    0.251147  0.455605  2.070677
O    1.330978  0.023289  2.472864
H    1.237424  1.936764  0.932003
H    -0.296493  2.511213  1.633518
H    -0.320227  1.456011  0.210902
N    -0.906437  -0.163978  2.493966
C    -2.347811  -0.082915  2.221403
C    -2.890238  -1.409450  1.629785
O    -3.832654  -1.973995  2.183922
H    -0.665763  -0.922710  3.129200
H    -2.844153  -0.052255  3.203344
C    -2.855137  1.137354  1.439428
C    -4.384492  1.220129  1.414190
C    -4.871233  2.414019  0.576158
N    -6.311688  2.586898  0.507409
C    -7.183316  1.681541  -0.086084
N    -6.691429  1.035537  -1.221963
N    -8.379786  1.589294  0.385226
H    -2.477745  1.130284  0.406304
H    -2.454465  2.045929  1.912509
H    -4.815687  0.289769  1.015989
H    -4.774440  1.313419  2.439269
H    -4.461345  2.348433  -0.446727
H    -4.457012  3.348696  0.983338
H    -6.747794  2.983218  1.334969
H    -7.165658  0.169588  -1.447215
H    -5.685214  0.970460  -1.329783
H    -8.968993  0.990077  -0.197701
N    -2.335324  -1.930840  0.493606
C    -1.189754  -1.493397  -0.289789
H    -2.756092  -2.820719  0.244079
H    -1.167206  -2.081164  -1.213928
H    -0.235027  -1.636930  0.234704
H    -1.273325  -0.438726  -0.579854
