35
Energy: -21190.1818472 eV PBE+vdW (tier 2 basis)
C    -1.699655  -0.911080  -0.294859
C    -0.892340  -1.102552  0.977927
O    -0.043746  -1.980134  1.086908
H    -1.419434  -1.704511  -0.992180
H    -1.482992  0.061857  -0.759764
H    -2.781768  -0.963784  -0.108863
N    -1.174037  -0.259845  2.032031
C    -1.977646  0.945726  1.980606
C    -1.173779  2.122062  1.383472
O    0.048282  2.192686  1.531801
H    -0.485766  -0.325678  2.778239
H    -2.849446  0.736445  1.347252
C    -2.511220  1.296157  3.393299
C    -1.476654  1.901525  4.360945
C    -1.497022  3.441188  4.361949
N    -0.366936  4.043044  5.045832
C    0.588421  4.861652  4.450511
N    0.683011  4.743680  3.067399
N    1.351662  5.702561  5.067232
H    -2.925482  0.363265  3.799481
H    -3.363582  1.986417  3.291049
H    -0.458042  1.571939  4.110203
H    -1.671573  1.540785  5.381098
H    -2.440183  3.786866  4.820846
H    -1.502838  3.827894  3.335319
H    -0.456187  4.179562  6.044866
H    1.482323  5.271793  2.730828
H    0.637654  3.804419  2.666045
H    1.090093  5.790921  6.053148
N    -1.864182  3.091133  0.719409
C    -3.299191  3.189275  0.505144
H    -1.286493  3.880574  0.443472
H    -3.850603  3.429619  1.426863
H    -3.706585  2.261301  0.082697
H    -3.487209  3.989028  -0.218475
