35
Energy: -21190.5927951 eV PBE+vdW (tier 2 basis)
C    -1.341462  0.091294  0.903784
C    -0.695539  0.480958  2.217439
O    0.293317  1.226286  2.251907
H    -0.610619  -0.473948  0.311207
H    -1.580537  1.002665  0.342927
H    -2.249490  -0.513123  1.015321
N    -1.275362  -0.032789  3.336149
C    -0.790503  0.050855  4.720496
C    -0.806127  1.433760  5.409637
O    -1.078281  1.491074  6.615890
H    -2.115025  -0.583690  3.205130
H    -1.527371  -0.518708  5.296851
C    0.602015  -0.583449  4.928348
C    0.672337  -2.103047  4.729620
C    -0.424060  -2.911808  5.448420
N    -0.699315  -2.446862  6.796656
C    -1.978876  -2.091908  7.206338
N    -1.981520  -1.087445  8.171511
N    -3.089200  -2.612418  6.791525
H    0.902328  -0.328203  5.954732
H    1.327148  -0.090987  4.266599
H    1.664475  -2.439814  5.068056
H    0.622933  -2.353801  3.658984
H    -0.147379  -3.979526  5.434770
H    -1.370422  -2.838171  4.889776
H    0.058271  -2.008422  7.307969
H    -2.934023  -0.895589  8.470856
H    -1.512493  -0.225628  7.872667
H    -2.914150  -3.455564  6.237252
N    -0.463057  2.497541  4.654890
C    -0.362155  3.835133  5.207535
H    -0.095388  2.296436  3.716649
H    -0.666447  4.570811  4.453562
H    0.663882  4.066391  5.532998
H    -1.021488  3.909736  6.078580
