35
Energy: -21190.2341942 eV PBE+vdW (tier 2 basis)
C    -0.135338  0.363113  0.660496
C    -0.506478  0.403406  2.129018
O    0.296709  0.750850  2.989228
H    -0.336092  1.347587  0.214864
H    -0.678651  -0.390719  0.079817
H    0.941157  0.179582  0.591138
N    -1.785539  0.022968  2.497091
C    -2.960832  -0.254480  1.667535
C    -2.885064  -1.594706  0.889707
O    -3.603916  -1.802761  -0.084586
H    -1.949146  0.182300  3.487524
H    -3.771769  -0.424976  2.393853
C    -3.403275  0.896264  0.742632
C    -3.570088  2.247372  1.442440
C    -4.669533  2.272109  2.502785
N    -4.828692  3.624773  3.031574
C    -5.707133  3.911894  4.071821
N    -6.905210  3.193585  4.024085
N    -5.346933  4.763538  4.969734
H    -4.345037  0.583947  0.271758
H    -2.687213  1.001240  -0.083072
H    -2.616030  2.554253  1.902842
H    -3.804251  3.009297  0.684206
H    -4.449383  1.550477  3.313801
H    -5.612860  1.941520  2.041075
H    -3.948206  4.105204  3.206552
H    -7.621423  3.548538  4.647631
H    -7.266913  2.995487  3.095198
H    -6.117748  4.992871  5.602685
N    -2.023267  -2.509243  1.409767
C    -1.851933  -3.834895  0.849858
H    -1.458686  -2.215548  2.199627
H    -2.079831  -4.610828  1.593574
H    -0.825594  -3.984461  0.485963
H    -2.545931  -3.932489  0.008186
