35
Energy: -21190.3278033 eV PBE+vdW (tier 2 basis)
C    0.306910  -0.375293  0.697605
C    -0.302528  -0.717766  2.042219
O    0.387755  -0.890480  3.041226
H    0.582406  -1.309172  0.187189
H    1.224942  0.191588  0.877760
H    -0.349561  0.189012  0.027455
N    -1.673048  -0.916712  2.112850
C    -2.712252  -0.491909  1.168168
C    -2.606219  -1.234192  -0.190467
O    -2.927988  -0.705439  -1.256340
H    -1.972644  -1.073842  3.071798
H    -3.653055  -0.862923  1.609653
C    -2.844262  1.032765  1.000210
C    -4.245145  1.480529  0.575560
C    -4.298517  2.939017  0.098005
N    -3.288274  3.302950  -0.906363
C    -3.456457  3.077509  -2.280399
N    -4.010998  1.846812  -2.593372
N    -3.136302  3.900392  -3.224086
H    -2.121216  1.396204  0.257448
H    -2.574767  1.498974  1.959874
H    -4.949219  1.378192  1.417800
H    -4.623019  0.827980  -0.220981
H    -4.118810  3.602475  0.956689
H    -5.316407  3.153808  -0.269343
H    -2.876799  4.213883  -0.738700
H    -4.027585  1.707583  -3.598982
H    -3.643718  1.038147  -2.087725
H    -2.892485  4.820261  -2.845631
N    -2.183356  -2.519119  -0.093917
C    -2.023419  -3.389493  -1.242303
H    -1.861576  -2.825071  0.818765
H    -2.543448  -4.342946  -1.082136
H    -0.962399  -3.594484  -1.446239
H    -2.457146  -2.884133  -2.111101
