35
Energy: -21190.5791364 eV PBE+vdW (tier 2 basis)
C    -0.824330  -0.359976  -0.519465
C    -0.220889  -0.339273  0.872738
O    0.979540  -0.503919  1.069675
H    -0.005985  -0.444293  -1.238974
H    -1.400798  0.550633  -0.733118
H    -1.497958  -1.218961  -0.648226
N    -1.073308  -0.094140  1.928544
C    -2.527330  -0.163312  1.940199
C    -3.128546  0.932249  2.853513
O    -4.249174  0.799332  3.359138
H    -0.634016  -0.212090  2.841339
H    -2.876508  0.108161  0.931953
C    -3.095262  -1.566703  2.248605
C    -2.433889  -2.382700  3.370205
C    -2.533402  -1.824317  4.793303
N    -1.606070  -0.705906  5.017421
C    -1.846453  0.327928  5.938107
N    -3.181625  0.614899  6.163983
N    -0.932501  1.011837  6.544481
H    -3.021673  -2.158107  1.323709
H    -4.166242  -1.439239  2.459837
H    -1.375620  -2.575652  3.125873
H    -2.913065  -3.373686  3.371464
H    -2.337130  -2.635524  5.516511
H    -3.551769  -1.473330  4.989349
H    -0.637034  -1.009954  5.077444
H    -3.276062  1.451592  6.730896
H    -3.791329  0.616169  5.343025
H    -0.000661  0.616785  6.388813
N    -2.362422  2.036988  2.994400
C    -2.726645  3.172884  3.821039
H    -1.427729  1.989644  2.600819
H    -3.792275  3.093986  4.059184
H    -2.550201  4.109551  3.276895
H    -2.147391  3.182522  4.755574
