35
Energy: -21190.1436736 eV PBE+vdW (tier 2 basis)
C    -0.885132  0.484709  0.354412
C    -0.191899  0.467542  1.701470
O    0.776912  1.183223  1.937668
H    -0.551980  -0.366564  -0.255030
H    -0.593993  1.405896  -0.157586
H    -1.979107  0.436145  0.432892
N    -0.658055  -0.394509  2.676889
C    -1.905497  -1.165926  2.717790
C    -2.166689  -1.722037  4.130335
O    -3.315381  -1.901175  4.521887
H    -0.248056  -0.160003  3.578114
H    -2.768736  -0.507078  2.530701
C    -2.003835  -2.334750  1.702638
C    -1.050858  -3.523037  1.881521
C    0.427665  -3.226436  1.622506
N    1.215340  -4.438437  1.742840
C    2.606727  -4.390682  1.801810
N    3.176303  -5.668315  1.777444
N    3.368803  -3.355695  1.869513
H    -1.905815  -1.931522  0.685724
H    -3.036719  -2.702757  1.781998
H    -1.376287  -4.308179  1.178757
H    -1.160340  -3.960295  2.885582
H    0.810865  -2.502609  2.354390
H    0.545521  -2.744932  0.630986
H    0.849533  -5.242085  1.238910
H    4.177276  -5.617993  1.944056
H    2.720487  -6.349587  2.378764
H    2.852797  -2.484973  1.725460
N    -1.065290  -2.017609  4.883689
C    -1.181186  -2.640042  6.191799
H    -0.155862  -2.022246  4.434516
H    -0.337577  -2.335621  6.821520
H    -1.201622  -3.738517  6.124094
H    -2.118655  -2.309515  6.649993
