35
Energy: -21190.0407073 eV PBE+vdW (tier 2 basis)
C    -0.201859  -0.206518  0.056334
C    -0.129667  0.005072  1.558441
O    0.926671  0.214527  2.145330
H    0.290495  -1.156898  -0.187574
H    0.363949  0.590898  -0.439102
H    -1.223333  -0.227543  -0.343927
N    -1.332326  -0.044867  2.216053
C    -1.459173  0.021856  3.671059
C    -0.693023  1.211579  4.310859
O    -0.006337  1.052907  5.313738
H    -2.163290  -0.249931  1.675623
H    -2.527166  0.221853  3.863007
C    -1.051840  -1.290422  4.363082
C    -1.802568  -2.532483  3.876427
C    -3.307763  -2.527622  4.190122
N    -4.017696  -3.757964  3.866917
C    -3.759411  -4.979098  4.481075
N    -3.494874  -4.913165  5.847619
N    -3.882098  -6.054093  3.777914
H    -1.193172  -1.154660  5.444623
H    0.028241  -1.422617  4.219495
H    -1.350197  -3.417677  4.348363
H    -1.660150  -2.673031  2.792832
H    -3.819072  -1.723133  3.639822
H    -3.468320  -2.279543  5.253273
H    -4.181232  -3.916331  2.876347
H    -2.994425  -5.708058  6.224656
H    -3.187933  -4.027394  6.233562
H    -3.806737  -6.892727  4.359009
N    -0.889678  2.460805  3.787199
C    -1.679758  2.890536  2.649475
H    -0.318466  3.159715  4.251278
H    -1.898241  3.959163  2.763711
H    -2.642266  2.365070  2.609652
H    -1.163960  2.744489  1.687611
