35
Energy: -21190.6535792 eV PBE+vdW (tier 2 basis)
C    0.246924  0.680379  -0.042809
C    -0.352317  0.984090  1.318639
O    -0.596734  2.135626  1.684053
H    -0.403032  1.103679  -0.818583
H    0.383451  -0.390872  -0.233805
H    1.217883  1.185807  -0.119114
N    -0.614826  -0.105925  2.095366
C    -1.044382  0.009073  3.474624
C    -0.730541  -1.356087  4.132886
O    -0.117600  -2.232244  3.513367
H    -0.232472  -1.024613  1.867653
H    -0.430531  0.779548  3.974000
C    -2.518787  0.436549  3.610507
C    -3.524035  -0.601928  3.104157
C    -4.958419  -0.362619  3.602156
N    -5.092354  -0.208599  5.062355
C    -4.494503  -1.092949  5.957013
N    -4.565224  -2.424907  5.584093
N    -3.881785  -0.781890  7.056939
H    -2.633077  1.392333  3.080136
H    -2.703431  0.659049  4.672654
H    -3.213843  -1.609262  3.418646
H    -3.535029  -0.613301  2.004330
H    -5.609810  -1.179080  3.254820
H    -5.372508  0.557296  3.166380
H    -4.988109  0.751841  5.371782
H    -4.299921  -3.052566  6.335023
H    -5.397361  -2.711518  5.080516
H    -3.819593  0.234161  7.168253
N    -1.147395  -1.523916  5.408427
C    -0.989202  -2.795408  6.093304
H    -1.797690  -0.865945  5.830746
H    0.072535  -3.036289  6.232197
H    -1.450185  -3.613653  5.521115
H    -1.476097  -2.713859  7.070172
