35
Energy: -21190.308088 eV PBE+vdW (tier 2 basis)
C    -0.095961  0.304478  0.352638
C    -0.225353  0.252868  1.862809
O    0.671765  0.661407  2.602604
H    0.803661  -0.249772  0.058226
H    0.049082  1.349086  0.050015
H    -0.960917  -0.103979  -0.183980
N    -1.399369  -0.258856  2.334888
C    -1.674535  -0.508265  3.757372
C    -2.980592  -1.302087  3.892401
O    -3.068799  -2.279051  4.626563
H    -2.009946  -0.714522  1.665509
H    -0.891229  -1.163832  4.163638
C    -1.747842  0.792167  4.609495
C    -0.569807  0.966389  5.567821
C    -0.488106  2.376005  6.168497
N    -0.519708  3.465488  5.182807
C    0.637610  3.997856  4.612763
N    1.583722  3.051260  4.238739
N    0.726094  5.284216  4.512913
H    -2.688468  0.797666  5.182640
H    -1.790775  1.657285  3.932516
H    0.361665  0.730382  5.038206
H    -0.646568  0.246019  6.397369
H    0.412667  2.442666  6.801145
H    -1.354299  2.536748  6.827142
H    -1.119593  4.239938  5.450101
H    2.380097  3.443999  3.749746
H    1.233973  2.204009  3.786698
H    1.536836  5.552821  3.948176
N    -4.029441  -0.823181  3.148080
C    -5.367018  -1.378969  3.265670
H    -3.929355  0.094581  2.726513
H    -5.879513  -1.335646  2.297188
H    -5.971000  -0.845875  4.015715
H    -5.273901  -2.422717  3.582209
