35
Energy: -21190.657016 eV PBE+vdW (tier 2 basis)
C    0.562984  0.424380  -0.162799
C    0.512239  0.971093  1.251230
O    1.478989  1.564830  1.743767
H    1.412607  0.885897  -0.673141
H    -0.358983  0.619026  -0.725590
H    0.722064  -0.664085  -0.149417
N    -0.647269  0.798515  1.960148
C    -1.687851  -0.188661  1.689360
C    -3.046051  0.410396  1.264011
O    -3.990635  -0.328041  0.988906
H    -0.584271  1.137606  2.938047
H    -1.373971  -0.809599  0.838056
C    -1.878032  -1.108294  2.912393
C    -0.618075  -1.931117  3.241367
C    -0.264029  -1.996603  4.739473
N    -0.158011  -0.698489  5.415669
C    0.554841  0.365629  4.875795
N    1.835327  0.098695  4.443868
N    -0.022057  1.530562  4.830077
H    -2.741208  -1.754698  2.714745
H    -2.153436  -0.467189  3.764425
H    0.247274  -1.506386  2.710518
H    -0.725971  -2.959847  2.866245
H    0.672807  -2.562898  4.865990
H    -1.026602  -2.563900  5.290719
H    -1.037673  -0.345855  5.781933
H    2.138044  0.647541  3.639526
H    2.162864  -0.859554  4.467091
H    0.657964  2.252135  4.571664
N    -3.091205  1.766362  1.219508
C    -4.285320  2.502687  0.858795
H    -2.240111  2.259873  1.469578
H    -4.621297  3.142992  1.686315
H    -5.069536  1.772290  0.631537
H    -4.113122  3.130232  -0.026772
