35
Energy: -21189.9978968 eV PBE+vdW (tier 2 basis)
C    -0.215997  0.713450  -0.182118
C    -0.146104  -0.364428  0.880575
O    0.537780  -1.372324  0.700094
H    0.069520  1.698657  0.203605
H    -1.222595  0.797220  -0.611540
H    0.477042  0.422470  -0.976013
N    -0.825649  -0.236582  2.074718
C    -1.790577  0.684952  2.690540
C    -3.140622  -0.003462  2.997234
O    -3.576316  0.022709  4.154490
H    -0.617628  -1.043587  2.659911
H    -1.414978  0.876351  3.705068
C    -1.979744  2.069415  2.047435
C    -0.832169  3.042245  2.389786
C    -1.177423  3.966949  3.574227
N    -1.768470  3.260915  4.693186
C    -3.090876  3.421121  5.059594
N    -3.468917  2.478548  6.030095
N    -3.809423  4.358350  4.535214
H    -2.921179  2.476526  2.442443
H    -2.122962  1.988630  0.964816
H    -0.593957  3.678010  1.523744
H    0.083904  2.469726  2.607390
H    -1.922783  4.711210  3.265161
H    -0.280742  4.518189  3.896863
H    -1.175826  2.779468  5.356618
H    -3.317648  1.518861  5.703146
H    -4.436609  2.596433  6.316103
H    -4.785823  4.264956  4.821876
N    -3.837574  -0.629819  2.011459
C    -3.534466  -0.759599  0.594601
H    -4.694397  -1.055808  2.350849
H    -4.423835  -1.153998  0.091999
H    -2.697993  -1.445995  0.405729
H    -3.306879  0.212127  0.139070
