35
Energy: -21190.5588645 eV PBE+vdW (tier 2 basis)
C    0.352266  -2.555281  0.468743
C    1.033685  -1.408360  1.183533
O    2.247980  -1.413205  1.417449
H    -0.728168  -2.416943  0.341117
H    0.532834  -3.480437  1.029643
H    0.814937  -2.676338  -0.518747
N    0.231696  -0.366998  1.546111
C    0.747531  0.837864  2.195768
C    0.892216  0.604619  3.725693
O    0.085425  1.059160  4.544341
H    -0.769824  -0.441215  1.407483
H    1.755525  0.996794  1.783184
C    -0.135137  2.043801  1.884634
C    0.441996  3.364002  2.437353
C    -0.531877  4.074091  3.394277
N    0.065083  5.167576  4.140820
C    0.790533  5.046427  5.321014
N    1.169248  3.756613  5.655013
N    1.184374  6.028522  6.066585
H    -1.132809  1.866824  2.319038
H    -0.263712  2.097886  0.794702
H    0.710152  4.044788  1.617691
H    1.374843  3.171855  2.986279
H    -0.962613  3.322196  4.075510
H    -1.377227  4.486413  2.824284
H    -0.286939  6.097702  3.964085
H    1.539352  3.707390  6.596906
H    0.589723  2.964306  5.385038
H    0.909669  6.930117  5.668408
N    1.970928  -0.145354  4.047239
C    2.268044  -0.562558  5.403729
H    2.482361  -0.560978  3.264046
H    2.186775  -1.653734  5.509542
H    1.545653  -0.086169  6.074302
H    3.282474  -0.255377  5.691185
