35
Energy: -21190.2191801 eV PBE+vdW (tier 2 basis)
C    -0.553069  0.501969  0.061600
C    -0.512029  0.599108  1.566074
O    0.283799  1.352337  2.140649
H    0.481065  0.445902  -0.297140
H    -0.979202  1.441509  -0.321077
H    -1.131826  -0.335979  -0.337573
N    -1.382418  -0.149514  2.322114
C    -2.646376  -0.784543  1.922593
C    -2.412191  -1.996313  0.981405
O    -2.941960  -2.077248  -0.124113
H    -1.262202  0.035832  3.314131
H    -3.053800  -1.205506  2.857784
C    -3.685634  0.185766  1.343750
C    -4.377324  1.117333  2.346629
C    -3.515479  2.166154  3.093245
N    -2.526546  2.878585  2.310320
C    -2.826685  3.712024  1.252010
N    -1.709980  4.011491  0.463043
N    -3.977238  4.186729  0.908712
H    -4.453246  -0.421160  0.846109
H    -3.226996  0.778035  0.540968
H    -4.901147  0.523320  3.114726
H    -5.166798  1.641826  1.789788
H    -2.965812  1.690496  3.917019
H    -4.198174  2.886136  3.576175
H    -1.568697  2.548972  2.378060
H    -0.821991  4.068564  0.954195
H    -1.884979  4.815876  -0.131137
H    -4.721822  3.845863  1.519283
N    -1.591989  -2.986515  1.443984
C    -0.916392  -3.105076  2.725270
H    -1.462651  -3.734020  0.769484
H    -0.638902  -4.154661  2.874060
H    -1.578051  -2.822967  3.555573
H    -0.007669  -2.489347  2.782105
