35
Energy: -21190.0898544 eV PBE+vdW (tier 2 basis)
C    0.163105  -2.059797  0.478877
C    -0.026886  -1.575449  1.900751
O    0.887881  -1.081827  2.564493
H    -0.547037  -2.846247  0.191194
H    1.185531  -2.432081  0.361745
H    0.024088  -1.198663  -0.191148
N    -1.302807  -1.687213  2.381837
C    -1.686174  -1.226455  3.714648
C    -3.008027  -1.795367  4.255886
O    -3.100833  -1.989268  5.466269
H    -1.984627  -2.135336  1.786631
H    -0.941309  -1.621712  4.418865
C    -1.624800  0.313631  3.861344
C    -2.494493  1.136917  2.904388
C    -1.962215  2.572521  2.676764
N    -1.127837  2.744321  1.481698
C    0.028665  1.992657  1.261810
N    0.976746  2.019202  2.275350
N    0.170764  1.399984  0.121051
H    -0.570117  0.573038  3.718044
H    -1.871134  0.552753  4.906028
H    -3.530218  1.178430  3.275133
H    -2.525130  0.651534  1.916617
H    -1.410842  2.916547  3.566152
H    -2.798812  3.274321  2.562719
H    -1.672009  2.730039  0.621341
H    1.437957  1.125862  2.436494
H    0.717638  2.498176  3.130778
H    1.131297  1.054982  0.027380
N    -4.086627  -2.052816  3.446008
C    -4.322988  -1.848199  2.026032
H    -4.854115  -2.444862  3.984120
H    -3.822861  -0.947235  1.657241
H    -5.398064  -1.703880  1.867422
H    -4.015165  -2.712125  1.411344
