35
Energy: -21190.1888934 eV PBE+vdW (tier 2 basis)
C    -0.453503  1.405401  2.413372
C    0.166336  0.279309  3.214611
O    1.169139  0.428291  3.910042
H    -0.553286  1.141365  1.351462
H    0.186447  2.285720  2.511040
H    -1.461053  1.649227  2.779154
N    -0.442836  -0.951894  3.132177
C    -1.721069  -1.279211  2.519180
C    -2.978278  -0.680642  3.195512
O    -3.893663  -0.269719  2.483131
H    -0.002040  -1.653615  3.721016
H    -1.758968  -0.838728  1.511761
C    -1.861263  -2.803736  2.380528
C    -0.916791  -3.409777  1.336413
C    -0.804806  -4.931621  1.446156
N    -0.094669  -5.312380  2.657980
C    -0.160347  -6.613368  3.159885
N    0.727813  -6.807651  4.221788
N    -0.901781  -7.588673  2.766192
H    -2.902885  -3.029075  2.111624
H    -1.680083  -3.278755  3.358536
H    0.088282  -2.965643  1.427780
H    -1.270126  -3.151997  0.326961
H    -0.321398  -5.339509  0.539385
H    -1.812932  -5.370657  1.494400
H    0.830180  -4.897194  2.744136
H    0.581859  -7.714787  4.655055
H    0.756515  -6.053692  4.902709
H    -1.389797  -7.370734  1.895175
N    -3.065848  -0.623174  4.557244
C    -2.167441  -1.122632  5.589542
H    -3.939414  -0.205984  4.863255
H    -2.712527  -1.120072  6.539895
H    -1.269332  -0.501082  5.708180
H    -1.859679  -2.159353  5.398469
