35
Energy: -21190.5246126 eV PBE+vdW (tier 2 basis)
C    0.920703  -0.224447  -0.180449
C    0.239100  0.006516  1.156204
O    -0.608810  0.886949  1.315779
H    1.650645  -1.042954  -0.166054
H    1.425040  0.701931  -0.482487
H    0.154430  -0.440177  -0.935473
N    0.622492  -0.832102  2.159407
C    0.142938  -0.690640  3.517576
C    1.196849  -1.341874  4.423382
O    2.014523  -2.138485  3.945629
H    1.398648  -1.485301  2.059006
H    0.038649  0.384363  3.730532
C    -1.257271  -1.333698  3.718921
C    -1.344916  -2.853672  3.522840
C    -0.853453  -3.739310  4.676992
N    -1.563221  -3.476655  5.920477
C    -0.991835  -3.559205  7.166343
N    -1.944892  -3.533562  8.199784
N    0.293384  -3.567462  7.324210
H    -1.916450  -0.836738  2.994431
H    -1.637709  -1.064825  4.714424
H    -0.790272  -3.146585  2.618327
H    -2.397838  -3.106828  3.312556
H    0.212163  -3.600711  4.879509
H    -0.977056  -4.796488  4.381011
H    -2.574523  -3.438999  5.882905
H    -1.551373  -3.717993  9.116175
H    -2.782376  -4.087719  8.038072
H    0.534521  -3.687476  8.309925
N    1.153068  -1.079028  5.753389
C    0.240105  -0.202805  6.464280
H    1.600837  -1.803005  6.315959
H    0.742340  0.177493  7.362370
H    -0.681843  -0.716340  6.777510
H    -0.027513  0.660632  5.845788
