35
Energy: -21190.1683473 eV PBE+vdW (tier 2 basis)
C    0.140965  -1.915399  0.504156
C    0.770913  -0.729811  1.226920
O    1.974173  -0.501787  1.146474
H    -0.598282  -1.588422  -0.241895
H    -0.360482  -2.605605  1.198133
H    0.943335  -2.453040  -0.007557
N    -0.055734  0.059280  1.988169
C    -1.499679  -0.039433  2.052190
C    -2.174898  0.782961  0.931777
O    -1.735176  1.865780  0.547564
H    0.372796  0.930194  2.332372
H    -1.749807  -1.092297  1.881433
C    -2.037745  0.329648  3.476735
C    -3.089242  1.442931  3.624870
C    -2.593060  2.899650  3.513102
N    -1.498550  3.232219  4.409718
C    -0.168146  3.074914  4.036633
N    0.698590  3.042839  5.134875
N    0.319126  2.933639  2.852397
H    -1.163500  0.573293  4.095515
H    -2.457245  -0.586010  3.916110
H    -3.550681  1.317870  4.618245
H    -3.911947  1.309356  2.903808
H    -3.436673  3.572812  3.727658
H    -2.274993  3.123468  2.488758
H    -1.679787  3.048023  5.392336
H    0.477309  3.698758  5.879122
H    1.663946  3.128085  4.828880
H    -0.395969  2.903792  2.119624
N    -3.305804  0.247238  0.381202
C    -3.955540  -1.010680  0.713662
H    -3.715082  0.822774  -0.348337
H    -4.872473  -1.092363  0.120706
H    -4.242785  -1.062397  1.773984
H    -3.325958  -1.881499  0.475962
