35
Energy: -21190.796831 eV PBE+vdW (tier 2 basis)
C    -0.944180  -0.094494  -0.336940
C    -1.095814  0.563353  1.020301
O    -1.263441  1.792898  1.113498
H    -0.589428  -1.128695  -0.274058
H    -0.249806  0.501298  -0.940361
H    -1.917342  -0.078617  -0.847096
N    -1.024623  -0.270425  2.086246
C    -1.382981  0.123180  3.455893
C    -0.346682  1.025290  4.196255
O    -0.087817  0.863557  5.392948
H    -1.071592  -1.284552  1.864282
H    -2.286146  0.758003  3.380824
C    -1.758245  -1.104658  4.305951
C    -0.623735  -2.026393  4.792293
C    0.005924  -3.006597  3.796129
N    -0.877870  -4.081426  3.354434
C    -1.569999  -4.051738  2.174681
N    -2.407326  -5.157154  2.000715
N    -1.452373  -3.057254  1.349601
H    -2.520792  -1.679883  3.758361
H    -2.254358  -0.711626  5.202660
H    -1.015882  -2.616351  5.637835
H    0.173562  -1.403579  5.218156
H    0.880285  -3.473253  4.275049
H    0.374512  -2.502761  2.895329
H    -1.267302  -4.671671  4.081029
H    -2.816150  -5.231560  1.076142
H    -2.035796  -6.044515  2.328243
H    -1.945428  -3.237258  0.473931
N    0.186197  2.017421  3.449196
C    1.083960  2.995324  4.031393
H    -0.244793  2.185947  2.528345
H    1.545142  3.576188  3.225101
H    1.869674  2.492442  4.608854
H    0.560814  3.684161  4.713529
