35
Energy: -21190.513196 eV PBE+vdW (tier 2 basis)
C    1.024955  -0.017921  0.151419
C    0.687255  0.088566  1.624957
O    1.428991  0.657862  2.426773
H    1.210592  0.989365  -0.240462
H    0.241841  -0.497745  -0.447929
H    1.956629  -0.587862  0.044841
N    -0.505454  -0.471932  1.996841
C    -0.917459  -0.536126  3.393308
C    -0.449404  -1.885964  3.965588
O    -0.909186  -2.944903  3.515678
H    -0.993942  -1.071176  1.339994
H    -0.403793  0.297142  3.886265
C    -2.436485  -0.354062  3.524653
C    -2.940087  -0.176905  4.965004
C    -3.176755  -1.474385  5.751378
N    -4.203893  -2.299380  5.126009
C    -4.229576  -3.690727  5.215286
N    -2.984010  -4.301419  5.137982
N    -5.379485  -4.261776  5.368680
H    -2.954780  -1.209448  3.064086
H    -2.693340  0.537715  2.935652
H    -3.890546  0.378140  4.931623
H    -2.246311  0.461647  5.536683
H    -3.453408  -1.212288  6.789978
H    -2.259122  -2.067739  5.826919
H    -5.152854  -1.952776  5.247029
H    -3.030627  -5.309528  5.048937
H    -2.294413  -3.877308  4.509531
H    -5.301609  -5.277820  5.272477
N    0.476248  -1.875202  4.954137
C    1.158496  -0.726164  5.541443
H    0.729908  -2.802563  5.283121
H    2.030218  -1.093198  6.093355
H    0.514528  -0.181893  6.248076
H    1.510819  -0.041254  4.759614
