35
Energy: -21190.2225378 eV PBE+vdW (tier 2 basis)
C    0.068328  0.484892  0.190108
C    0.179962  -0.140080  1.569888
O    1.261342  -0.487819  2.038459
H    1.082648  0.608350  -0.197712
H    -0.427180  1.464600  0.209683
H    -0.497168  -0.161382  -0.494026
N    -0.975773  -0.311679  2.294503
C    -2.363342  -0.022919  1.935306
C    -2.997055  0.704400  3.144581
O    -3.655097  0.098054  3.987678
H    -0.825555  -0.788902  3.181057
H    -2.344114  0.654911  1.070905
C    -3.173736  -1.276912  1.584556
C    -2.690797  -2.003628  0.331977
C    -3.387538  -3.353215  0.115662
N    -3.074514  -4.318245  1.164875
C    -1.922280  -5.080962  1.083629
N    -1.846135  -6.039127  2.108262
N    -1.080794  -4.893976  0.125976
H    -4.228248  -0.978504  1.469696
H    -3.147171  -1.956533  2.448093
H    -1.610079  -2.197259  0.383913
H    -2.861636  -1.382915  -0.563303
H    -3.086740  -3.763280  -0.859988
H    -4.479130  -3.219686  0.110048
H    -3.861346  -4.774249  1.609666
H    -0.936628  -6.483010  2.178906
H    -2.171523  -5.714481  3.015857
H    -0.240815  -5.462705  0.251245
N    -2.765711  2.047134  3.256626
C    -1.900884  2.883749  2.441958
H    -3.134347  2.441722  4.116490
H    -2.185612  2.849656  1.381051
H    -0.840192  2.605901  2.532480
H    -2.012463  3.921314  2.773941
