35
Energy: -21190.3119331 eV PBE+vdW (tier 2 basis)
C    -0.054189  -0.075555  0.196599
C    -0.123592  0.112398  1.699372
O    0.880783  0.331718  2.369927
H    0.792477  0.508114  -0.176426
H    -0.965203  0.206892  -0.340917
H    0.143943  -1.135168  -0.019118
N    -1.348162  -0.044869  2.325065
C    -2.692515  -0.035932  1.736049
C    -2.918442  -1.227728  0.767868
O    -3.610366  -1.126795  -0.242200
H    -1.288373  0.174721  3.316155
H    -3.366479  -0.237122  2.585722
C    -3.119867  1.313196  1.128541
C    -4.632774  1.541477  1.157669
C    -5.013304  2.899193  0.555539
N    -6.437824  3.198562  0.596599
C    -7.024282  3.645282  1.767393
N    -8.422200  3.736948  1.656016
N    -6.311504  3.902887  2.811219
H    -2.752728  1.387767  0.094174
H    -2.621064  2.105597  1.706799
H    -4.993095  1.513202  2.197466
H    -5.136104  0.736893  0.602345
H    -4.690974  2.950503  -0.495701
H    -4.504968  3.704638  1.101940
H    -7.029406  2.601810  0.027137
H    -8.860146  4.214461  2.436497
H    -8.753629  4.096827  0.764082
H    -6.875320  4.340623  3.543337
N    -2.329687  -2.387912  1.168867
C    -2.416092  -3.617204  0.406826
H    -1.702414  -2.332997  1.964420
H    -2.742592  -4.450092  1.043736
H    -1.450073  -3.879385  -0.050030
H    -3.151224  -3.464528  -0.390386
