35
Energy: -21190.2936522 eV PBE+vdW (tier 2 basis)
C    -0.406123  -1.057659  0.510834
C    -0.152689  -0.453851  1.884032
O    0.870396  -0.696199  2.520611
H    0.425281  -1.729701  0.283381
H    -0.453640  -0.279727  -0.264937
H    -1.346947  -1.624003  0.470669
N    -1.108219  0.394963  2.377908
C    -2.408814  0.707625  1.807510
C    -2.744602  2.143114  2.248199
O    -2.621248  2.469698  3.428551
H    -0.927731  0.778660  3.304156
H    -2.334957  0.645274  0.714566
C    -3.511552  -0.261462  2.289091
C    -4.866858  -0.051516  1.615675
C    -5.933932  -1.072762  2.040961
N    -5.605658  -2.468367  1.782215
C    -5.580680  -2.969498  0.495096
N    -5.124820  -4.297257  0.451176
N    -5.919992  -2.232375  -0.508709
H    -3.595397  -0.160343  3.382882
H    -3.147538  -1.280661  2.087475
H    -4.763139  -0.114529  0.522432
H    -5.257912  0.951654  1.849648
H    -6.868163  -0.852979  1.508415
H    -6.135403  -0.984924  3.118900
H    -4.965098  -2.910479  2.431462
H    -5.244347  -4.738153  -0.454449
H    -5.463223  -4.891489  1.204233
H    -5.969394  -2.783177  -1.368822
N    -3.194232  3.017887  1.305461
C    -3.327424  2.816413  -0.130368
H    -3.398142  3.939611  1.679543
H    -3.669032  3.756887  -0.575109
H    -4.067693  2.043404  -0.376275
H    -2.368905  2.555348  -0.601730
