35
Energy: -21190.2804606 eV PBE+vdW (tier 2 basis)
C    -0.188350  0.342085  -0.413605
C    -0.238111  0.499798  1.093682
O    0.659749  1.068819  1.712198
H    0.153640  -0.670523  -0.671609
H    0.540460  1.060379  -0.798628
H    -1.155061  0.489095  -0.908232
N    -1.299660  -0.047226  1.777571
C    -2.512245  -0.699369  1.284556
C    -2.230447  -1.836611  0.276571
O    -2.713571  -1.846242  -0.854574
H    -1.254585  0.107029  2.785460
H    -2.922456  -1.205090  2.169934
C    -3.579284  0.269621  0.733897
C    -3.922620  1.435515  1.669352
C    -4.959024  1.145863  2.777013
N    -4.785175  -0.071598  3.563737
C    -3.675034  -0.306705  4.352490
N    -3.568057  -1.644710  4.762908
N    -2.744319  0.519547  4.693445
H    -4.478097  -0.315051  0.484157
H    -3.224129  0.665926  -0.226278
H    -4.340074  2.260716  1.072977
H    -2.993192  1.832512  2.102334
H    -5.957556  1.065163  2.325704
H    -5.005173  2.005067  3.464481
H    -5.219551  -0.901297  3.175039
H    -4.446298  -2.076432  5.039957
H    -2.865261  -1.731330  5.492640
H    -2.877219  1.438907  4.268170
N    -1.434271  -2.854855  0.718212
C    -0.832644  -3.041378  2.030363
H    -1.267809  -3.563393  0.010834
H    -1.537364  -2.780838  2.831561
H    0.080228  -2.443921  2.164636
H    -0.578251  -4.101287  2.145187
