35
Energy: -21190.6156692 eV PBE+vdW (tier 2 basis)
C    0.186909  -0.950829  -0.233738
C    0.233355  -0.660622  1.255362
O    1.269144  -0.771752  1.913741
H    0.921959  -0.313743  -0.740912
H    -0.800366  -0.788611  -0.683257
H    0.488781  -1.992772  -0.398358
N    -0.947166  -0.266160  1.810830
C    -1.096031  -0.017681  3.229151
C    -2.582550  -0.163634  3.556648
O    -3.422290  0.057389  2.663645
H    -1.815961  -0.236222  1.281089
H    -0.477037  -0.749744  3.766832
C    -0.593322  1.399495  3.637947
C    -1.283382  2.594183  2.945804
C    -2.274660  3.397362  3.800908
N    -3.478786  2.655294  4.149464
C    -4.076503  2.615520  5.378670
N    -3.772273  3.692127  6.216602
N    -4.818552  1.594584  5.699492
H    0.479033  1.405026  3.403756
H    -0.668986  1.501156  4.730755
H    -0.512902  3.307208  2.618827
H    -1.782209  2.264384  2.021712
H    -2.532719  4.319471  3.248319
H    -1.780011  3.711191  4.732268
H    -3.771382  1.909800  3.517031
H    -4.318328  3.718623  7.069973
H    -3.702949  4.602250  5.770047
H    -5.325100  1.758957  6.571502
N    -2.954108  -0.426891  4.827825
C    -2.082612  -0.577537  5.979365
H    -3.907354  -0.090182  5.051733
H    -2.596275  -1.189052  6.730818
H    -1.830295  0.389772  6.442937
H    -1.153883  -1.090910  5.708809
