35
Energy: -21190.4334177 eV PBE+vdW (tier 2 basis)
C    -1.383058  0.956996  -0.634547
C    -1.107873  -0.156469  0.357570
O    -0.181112  -0.950615  0.221254
H    -0.573158  0.964663  -1.368211
H    -1.446665  1.938723  -0.145886
H    -2.334311  0.790527  -1.160834
N    -1.943965  -0.235095  1.450898
C    -3.161194  0.523853  1.707238
C    -2.954764  1.826797  2.513659
O    -3.885289  2.615678  2.661166
H    -1.760583  -1.047802  2.035061
H    -3.578825  0.859459  0.747657
C    -4.210649  -0.353517  2.415754
C    -4.632585  -1.609138  1.645048
C    -5.256104  -1.317343  0.273018
N    -5.762094  -2.496402  -0.415234
C    -6.971085  -3.057045  -0.037235
N    -7.223257  -4.266247  -0.705258
N    -7.711635  -2.489980  0.852457
H    -5.083229  0.284483  2.610184
H    -3.815747  -0.643300  3.403900
H    -5.377779  -2.147981  2.246005
H    -3.775665  -2.290686  1.513476
H    -4.525174  -0.841533  -0.398133
H    -6.101402  -0.626616  0.392182
H    -5.060885  -3.164917  -0.718258
H    -8.165910  -4.615697  -0.570370
H    -6.957730  -4.273695  -1.687194
H    -8.619942  -2.952892  0.929348
N    -1.708031  2.005892  3.025510
C    -1.340512  3.167618  3.809799
H    -1.015341  1.296589  2.810360
H    -2.229326  3.801868  3.897961
H    -0.539198  3.740337  3.322245
H    -1.006384  2.878113  4.815753
