35
Energy: -21190.4546331 eV PBE+vdW (tier 2 basis)
C    0.396099  -1.342094  0.328221
C    -0.122396  -1.072442  1.727091
O    0.519269  -1.372957  2.732611
H    -0.307001  -1.065139  -0.466868
H    0.636349  -2.408519  0.239802
H    1.330536  -0.784430  0.187717
N    -1.357542  -0.481204  1.790899
C    -1.966882  -0.053652  3.046788
C    -3.351173  -0.726751  3.169905
O    -4.397913  -0.110892  2.934298
H    -1.816370  -0.207148  0.928956
H    -1.293361  -0.430289  3.829960
C    -2.064517  1.469771  3.139115
C    -2.539834  1.965042  4.506325
C    -2.917993  3.453383  4.516587
N    -3.819903  3.876534  3.436619
C    -5.208128  3.732417  3.514314
N    -5.636349  2.480709  3.940354
N    -5.939589  4.752854  3.206457
H    -2.752389  1.840525  2.365443
H    -1.069231  1.880181  2.910436
H    -1.752251  1.813404  5.261708
H    -3.402963  1.375804  4.843791
H    -2.004109  4.051574  4.389754
H    -3.332767  3.706237  5.508329
H    -3.629492  4.820733  3.113329
H    -5.136223  1.668765  3.568214
H    -6.642405  2.361827  3.901187
H    -6.927533  4.490298  3.143115
N    -3.385218  -2.037563  3.529650
C    -2.285958  -2.976736  3.687911
H    -4.327832  -2.418674  3.523819
H    -2.527370  -3.685316  4.489504
H    -1.358204  -2.460406  3.953147
H    -2.097368  -3.542521  2.762414
