35
Energy: -21190.1135488 eV PBE+vdW (tier 2 basis)
C    -0.568143  -0.666690  0.447819
C    -0.591519  -0.414502  1.943897
O    0.352212  -0.722757  2.663897
H    -0.340037  0.265032  -0.089194
H    -1.515331  -1.060224  0.059277
H    0.232119  -1.383437  0.245605
N    -1.686816  0.229743  2.481476
C    -2.963056  0.558583  1.856022
C    -3.673086  -0.726956  1.336323
O    -3.660593  -1.752356  2.007119
H    -1.660169  0.234259  3.496196
H    -3.605960  0.871548  2.694056
C    -2.904312  1.761946  0.890854
C    -2.275188  3.028310  1.499740
C    -0.756407  3.160986  1.283817
N    -0.176457  4.345309  1.890951
C    0.075519  4.398694  3.262502
N    0.353263  5.702319  3.695090
N    0.072808  3.437421  4.116800
H    -3.939163  2.002772  0.601929
H    -2.373307  1.495243  -0.037482
H    -2.490216  3.073535  2.578391
H    -2.756669  3.913479  1.055971
H    -0.537716  3.190801  0.204916
H    -0.226302  2.286569  1.681754
H    -0.500891  5.226796  1.502799
H    0.688336  5.689310  4.654627
H    0.982419  6.220455  3.086623
H    -0.229291  2.551468  3.705611
N    -4.321872  -0.623417  0.139635
C    -5.064855  -1.727633  -0.440165
H    -4.254030  0.242827  -0.378562
H    -6.113557  -1.450588  -0.614280
H    -5.026312  -2.559509  0.270706
H    -4.619715  -2.051722  -1.391488
