35
Energy: -21190.1710313 eV PBE+vdW (tier 2 basis)
C    -1.107362  -0.297820  0.321936
C    -0.604029  -0.004119  1.726854
O    0.561823  0.307532  1.953994
H    -2.174745  -0.548492  0.274758
H    -0.525330  -1.129375  -0.094679
H    -0.918323  0.579021  -0.309691
N    -1.546190  -0.107154  2.710634
C    -1.273371  0.091137  4.130778
C    -0.641813  1.475833  4.438738
O    0.364224  1.593775  5.129045
H    -2.488577  -0.409371  2.479381
H    -2.268066  0.112900  4.601415
C    -0.436823  -1.019603  4.798815
C    -0.553303  -2.441717  4.232172
C    -1.958434  -3.027826  3.983178
N    -2.957930  -2.722120  5.008332
C    -3.930317  -1.745938  4.886300
N    -4.359921  -1.504642  3.564409
N    -4.465013  -1.046614  5.829446
H    -0.698303  -1.016532  5.867336
H    0.617250  -0.719674  4.756917
H    -0.009791  -3.104461  4.923809
H    -0.007431  -2.505105  3.278391
H    -1.874393  -4.120822  3.877789
H    -2.347429  -2.654418  3.030931
H    -2.650842  -2.857305  5.966291
H    -5.186443  -0.911653  3.599170
H    -4.543277  -2.352300  3.030439
H    -3.987532  -1.192190  6.723456
N    -1.301762  2.575684  3.961045
C    -2.566251  2.661706  3.254353
H    -0.823411  3.442134  4.183963
H    -2.986092  3.662261  3.412694
H    -3.293115  1.938856  3.648297
H    -2.462699  2.497113  2.170835
