35
Energy: -21190.1888245 eV PBE+vdW (tier 2 basis)
C    -0.259592  0.470430  -0.209360
C    0.109724  0.264043  1.250064
O    1.275698  0.240325  1.632170
H    0.669233  0.563369  -0.777683
H    -0.856691  1.382041  -0.354343
H    -0.839977  -0.374195  -0.606067
N    -0.925316  0.116621  2.144116
C    -2.353298  -0.002224  1.853651
C    -3.075889  0.730256  3.005574
O    -3.434669  0.134770  4.019136
H    -0.625199  -0.095144  3.093435
H    -2.540405  0.528766  0.910309
C    -2.822238  -1.458447  1.704305
C    -4.140944  -1.637487  0.940534
C    -5.394153  -1.064345  1.627347
N    -6.641610  -1.407709  0.964474
C    -7.225347  -2.663297  1.106196
N    -8.296729  -2.847691  0.221969
N    -6.903020  -3.614245  1.912268
H    -2.894012  -1.904321  2.707413
H    -2.029929  -2.000754  1.168662
H    -4.301270  -2.712982  0.774964
H    -4.048971  -1.188027  -0.063953
H    -5.345634  0.033104  1.682005
H    -5.449261  -1.407235  2.670256
H    -6.772951  -0.994276  0.046003
H    -8.788966  -3.709513  0.440859
H    -8.932799  -2.056288  0.162823
H    -6.037759  -3.412522  2.417838
N    -3.262180  2.075378  2.858768
C    -2.737475  2.936397  1.810041
H    -3.654269  2.517473  3.684603
H    -1.637999  2.927476  1.774432
H    -3.063992  3.961819  2.011358
H    -3.126588  2.658078  0.820330
