35
Energy: -21190.5115995 eV PBE+vdW (tier 2 basis)
C    0.746247  -0.382638  0.057978
C    0.794420  -0.294846  1.572035
O    1.820181  -0.601736  2.191669
H    1.596087  0.174621  -0.353772
H    -0.182291  -0.005215  -0.386984
H    0.875196  -1.433510  -0.231629
N    -0.345729  0.163239  2.160892
C    -0.737853  0.240939  3.580495
C    0.198915  0.939008  4.595835
O    -0.232497  1.073426  5.746553
H    -1.093534  0.393604  1.517219
H    -1.578139  0.953853  3.570113
C    -1.347866  -1.076147  4.112365
C    -0.503348  -2.357057  4.116732
C    0.528355  -2.494256  5.239668
N    1.675540  -1.623644  5.049770
C    2.473792  -1.102417  6.052529
N    1.793332  -0.799575  7.230132
N    3.741091  -0.847378  5.957123
H    -2.248733  -1.264848  3.507896
H    -1.699281  -0.856878  5.131128
H    -0.010736  -2.502679  3.141925
H    -1.200553  -3.203460  4.218202
H    0.843201  -3.554638  5.297379
H    0.067338  -2.256127  6.206085
H    2.117170  -1.668620  4.136028
H    2.422761  -0.343610  7.884520
H    0.943066  -0.252708  7.075441
H    4.127430  -1.263748  5.104505
N    1.351711  1.476403  4.142838
C    2.257299  2.195755  5.029285
H    1.757076  1.021433  3.324319
H    2.726445  3.020710  4.478456
H    3.037690  1.531446  5.429240
H    1.675137  2.602230  5.862053
