35
Energy: -21190.2171436 eV PBE+vdW (tier 2 basis)
C    -0.174002  0.396367  -0.914779
C    0.147001  -0.587430  0.194009
O    1.296874  -0.975607  0.388319
H    -0.586337  1.335074  -0.523059
H    -0.898588  -0.019517  -1.626873
H    0.759382  0.610356  -1.441920
N    -0.865277  -1.037243  1.016975
C    -2.327292  -0.904970  0.951396
C    -2.905349  -1.833448  -0.151756
O    -3.007652  -3.041337  0.059128
H    -0.528702  -1.770664  1.634490
H    -2.677944  -1.383065  1.877262
C    -2.832491  0.542046  0.959536
C    -4.310231  0.654914  1.364341
C    -4.978541  1.965100  0.917322
N    -5.294703  2.015075  -0.516994
C    -4.335939  2.187965  -1.512171
N    -3.355723  3.130052  -1.222643
N    -4.284719  1.559713  -2.643586
H    -2.672870  1.023128  -0.012322
H    -2.213436  1.114668  1.666333
H    -4.402134  0.561649  2.458090
H    -4.887957  -0.184160  0.941583
H    -4.347039  2.826045  1.175204
H    -5.925433  2.104724  1.457321
H    -5.973786  1.308142  -0.786275
H    -2.801722  3.352743  -2.043704
H    -3.667998  3.951737  -0.715318
H    -5.003789  0.831659  -2.688521
N    -3.237479  -1.267291  -1.342054
C    -3.711151  -2.071164  -2.455588
H    -3.201158  -0.260549  -1.477205
H    -3.717422  -1.448515  -3.356509
H    -4.724364  -2.460910  -2.275399
H    -3.048605  -2.931510  -2.610919
