35
Energy: -21190.652802 eV PBE+vdW (tier 2 basis)
C    -0.696240  0.203638  -0.085800
C    -0.859726  0.569251  1.376419
O    -0.487995  1.645125  1.845963
H    0.349061  -0.080135  -0.271750
H    -0.910431  1.088258  -0.694938
H    -1.351693  -0.621157  -0.392924
N    -1.443263  -0.403556  2.141453
C    -1.691804  -0.217920  3.561360
C    -1.258768  -1.497853  4.293334
O    -2.061612  -2.312678  4.771812
H    -1.674002  -1.301625  1.715202
H    -1.002805  0.587556  3.857692
C    -3.119202  0.284829  3.928949
C    -4.277501  0.020416  2.952465
C    -4.942889  -1.362970  3.024233
N    -4.067252  -2.483899  2.715630
C    -3.590211  -2.689097  1.438859
N    -2.363084  -3.385489  1.421513
N    -4.064818  -2.290166  0.306967
H    -3.031311  1.374803  4.030136
H    -3.368904  -0.105523  4.926719
H    -3.942958  0.217436  1.922968
H    -5.060974  0.765963  3.159563
H    -5.815034  -1.389113  2.352959
H    -5.332588  -1.537593  4.037453
H    -3.398910  -2.665346  3.472006
H    -2.200946  -3.802872  0.508601
H    -2.245697  -4.058146  2.175648
H    -4.906130  -1.723713  0.432184
N    0.080107  -1.713716  4.397536
C    1.173954  -0.952753  3.814099
H    0.304931  -2.603807  4.832806
H    2.077797  -1.119206  4.411109
H    0.957778  0.121256  3.819139
H    1.375486  -1.250899  2.774123
