35
Energy: -21190.0770409 eV PBE+vdW (tier 2 basis)
C    -1.393610  -0.024765  0.350198
C    -0.687953  -0.071885  1.697446
O    0.450951  -0.528276  1.804427
H    -1.535506  -1.053447  -0.005238
H    -0.739862  0.482013  -0.369831
H    -2.367735  0.479746  0.367878
N    -1.416394  0.434077  2.737913
C    -1.140933  0.419890  4.180657
C    -0.745389  1.791013  4.780103
O    -1.308454  2.176445  5.807554
H    -2.347510  0.758975  2.505287
H    -2.121519  0.235158  4.649766
C    -0.188645  -0.696031  4.676560
C    -0.621769  -1.180277  6.068557
C    -1.795604  -2.182612  5.983724
N    -2.759224  -2.101438  7.072710
C    -3.762525  -1.148147  7.011946
N    -4.432305  -0.998151  8.234645
N    -3.986507  -0.488438  5.925318
H    0.850547  -0.343342  4.689589
H    -0.206077  -1.530569  3.963850
H    -0.924192  -0.316746  6.678889
H    0.230759  -1.648251  6.582742
H    -1.412961  -3.212444  5.938453
H    -2.369997  -2.010056  5.065184
H    -2.378819  -2.244714  8.003255
H    -5.283877  -0.451148  8.170426
H    -4.578950  -1.861862  8.751163
H    -4.807101  0.112780  6.021923
N    0.232997  2.550158  4.204651
C    1.072880  2.301318  3.045801
H    0.368107  3.424846  4.703151
H    2.055754  2.758586  3.215898
H    0.647454  2.730762  2.124317
H    1.222028  1.229198  2.878265
