35
Energy: -21190.3811225 eV PBE+vdW (tier 2 basis)
C    0.981091  0.293573  1.070613
C    0.317492  0.189761  2.429110
O    0.956902  0.207569  3.474466
H    0.302482  0.111530  0.227425
H    1.816123  -0.414643  1.023458
H    1.401696  1.304247  0.980861
N    -1.058088  0.075110  2.409840
C    -1.860863  0.226169  3.616575
C    -2.548016  -1.072479  4.092576
O    -3.408551  -1.040075  4.969325
H    -1.527659  0.170615  1.515412
H    -1.133627  0.467928  4.408423
C    -2.897922  1.355635  3.487400
C    -2.330803  2.719857  3.081627
C    -1.234519  3.260944  4.009873
N    -0.844387  4.638667  3.698855
C    0.296616  4.966509  2.984572
N    0.622551  4.048739  1.973807
N    0.953722  6.028453  3.306231
H    -3.414202  1.421700  4.454410
H    -3.669811  1.052512  2.760755
H    -3.153537  3.449268  3.052627
H    -1.943224  2.671425  2.049692
H    -0.347144  2.611364  3.988284
H    -1.607531  3.249152  5.044655
H    -0.989739  5.314978  4.440728
H    1.364749  4.374765  1.364355
H    -0.170612  3.689998  1.448390
H    1.681232  6.242745  2.619523
N    -2.113700  -2.214756  3.495128
C    -2.567793  -3.529903  3.900597
H    -1.355743  -2.125341  2.828083
H    -1.770303  -4.092444  4.407449
H    -2.916240  -4.109389  3.035125
H    -3.399641  -3.392185  4.599748
