35
Energy: -21190.2094692 eV PBE+vdW (tier 2 basis)
C    -0.453493  1.895368  1.033269
C    -0.411695  0.877056  2.160499
O    0.470476  0.882545  3.013694
H    0.409629  2.555631  1.149114
H    -1.370372  2.501130  1.062998
H    -0.406233  1.412992  0.046951
N    -1.420615  -0.057032  2.199219
C    -2.469261  -0.285402  1.207510
C    -3.723721  -0.697993  2.009965
O    -3.949735  -1.876359  2.278913
H    -1.309268  -0.758615  2.928212
H    -2.655833  0.671418  0.701553
C    -2.089506  -1.338926  0.153009
C    -2.890441  -1.244603  -1.151774
C    -4.390683  -1.507922  -1.011770
N    -5.046414  -1.413456  -2.304593
C    -6.435002  -1.393068  -2.399434
N    -6.873558  -1.422987  -3.727641
N    -7.297984  -1.353322  -1.443968
H    -2.196599  -2.335392  0.605948
H    -1.023693  -1.202203  -0.078197
H    -2.466832  -1.970362  -1.865252
H    -2.748549  -0.250188  -1.606807
H    -4.850353  -0.749237  -0.360146
H    -4.558177  -2.484238  -0.520435
H    -4.586021  -1.914645  -3.059774
H    -7.879006  -1.286190  -3.777148
H    -6.369352  -0.802897  -4.355872
H    -6.858451  -1.498334  -0.532220
N    -4.540822  0.307539  2.435928
C    -4.330681  1.741143  2.307605
H    -5.307461  -0.013405  3.019141
H    -3.399428  2.067648  2.793319
H    -5.165036  2.255394  2.795157
H    -4.318060  2.062094  1.255988
