35
Energy: -21190.3175509 eV PBE+vdW (tier 2 basis)
C    -0.572997  -0.010332  -1.082883
C    -0.332002  -0.432201  0.350086
O    0.799788  -0.595477  0.800946
H    0.387533  0.299709  -1.502439
H    -1.301482  0.803386  -1.174254
H    -0.961879  -0.852918  -1.670986
N    -1.420953  -0.674099  1.163587
C    -2.856674  -0.430718  0.972345
C    -3.396448  -1.148973  -0.286602
O    -3.749707  -0.526656  -1.296941
H    -1.129142  -0.910681  2.107709
H    -3.331968  -0.923933  1.831455
C    -3.259727  1.056141  0.997818
C    -4.645509  1.353636  1.593233
C    -5.854877  0.752611  0.870060
N    -5.937374  -0.693774  1.081867
C    -6.650724  -1.562214  0.257317
N    -6.645319  -1.220348  -1.089557
N    -7.227310  -2.576813  0.815699
H    -3.202435  1.457901  -0.023397
H    -2.506618  1.585124  1.598371
H    -4.778036  2.446026  1.612533
H    -4.667480  1.035838  2.650848
H    -5.778459  0.947910  -0.205390
H    -6.775598  1.254769  1.219678
H    -6.109001  -0.960349  2.049334
H    -7.035143  -1.934419  -1.693860
H    -5.764658  -0.834235  -1.442292
H    -7.614836  -3.214727  0.115714
N    -3.436021  -2.505632  -0.250503
C    -3.324524  -3.357108  0.924025
H    -3.852046  -2.912419  -1.082794
H    -3.303841  -4.400508  0.592623
H    -4.183364  -3.230882  1.602050
H    -2.388720  -3.162690  1.461232
