35
Energy: -21190.3146448 eV PBE+vdW (tier 2 basis)
C    -0.500400  1.109324  3.020241
C    -0.662527  -0.158909  3.829801
O    -0.005115  -0.400444  4.841780
H    0.422494  1.600664  3.339496
H    -1.342870  1.790289  3.215335
H    -0.484647  0.925483  1.936340
N    -1.614653  -1.053772  3.396182
C    -2.536397  -0.887465  2.285667
C    -3.662287  0.147276  2.485800
O    -4.052723  0.798979  1.508445
H    -1.699277  -1.875469  3.988351
H    -1.965947  -0.480034  1.438514
C    -3.112014  -2.266536  1.889316
C    -4.188466  -2.276615  0.792329
C    -3.696192  -2.044213  -0.645894
N    -2.987385  -0.778573  -0.839965
C    -1.631045  -0.718417  -1.083626
N    -1.157959  -1.703177  -1.958854
N    -0.910969  0.178082  -0.485029
H    -3.539844  -2.733635  2.792671
H    -2.260813  -2.897123  1.587173
H    -4.679786  -3.262003  0.805098
H    -4.975457  -1.546003  1.031132
H    -4.568771  -2.096348  -1.318130
H    -3.018864  -2.859147  -0.936191
H    -3.302037  -0.016543  -0.229259
H    -1.760500  -1.909168  -2.751133
H    -0.187685  -1.585828  -2.227754
H    0.032602  0.220637  -0.879077
N    -4.234416  0.339535  3.706870
C    -4.026987  -0.349612  4.974089
H    -4.944756  1.064980  3.683230
H    -4.851533  -0.076411  5.642103
H    -3.082031  -0.071746  5.459301
H    -4.054195  -1.440286  4.854575
