35
Energy: -21190.3401401 eV PBE+vdW (tier 2 basis)
C    -0.039347  0.069387  0.052970
C    0.021571  0.069442  1.566424
O    1.082276  0.209255  2.170398
H    0.923876  -0.291129  -0.321048
H    -0.173360  1.100871  -0.301877
H    -0.851586  -0.537237  -0.362621
N    -1.150965  -0.113464  2.277588
C    -2.547484  -0.111018  1.824233
C    -2.975378  -1.407613  1.086091
O    -4.019995  -1.453407  0.441113
H    -0.994565  -0.008492  3.275945
H    -3.135802  -0.140058  2.757410
C    -2.988799  1.142725  1.056336
C    -2.839332  2.427432  1.870022
C    -3.201441  3.688029  1.074895
N    -4.565980  3.679408  0.560431
C    -4.820830  3.485040  -0.785420
N    -6.185333  3.629224  -1.088342
N    -3.864757  3.236665  -1.613076
H    -4.037356  0.989316  0.773028
H    -2.441928  1.231175  0.108523
H    -1.800672  2.542948  2.220830
H    -3.468921  2.367407  2.775005
H    -2.529586  3.792339  0.211557
H    -3.069573  4.576069  1.710001
H    -5.242594  4.253201  1.048203
H    -6.422680  3.322740  -2.025895
H    -6.813825  3.222742  -0.398980
H    -4.226831  3.028393  -2.545559
N    -2.147072  -2.471832  1.265554
C    -2.408988  -3.775848  0.691888
H    -1.305760  -2.314555  1.809801
H    -3.355611  -3.713070  0.144295
H    -2.498357  -4.543394  1.473336
H    -1.611959  -4.072275  -0.004613
