35
Energy: -21190.0819652 eV PBE+vdW (tier 2 basis)
C    0.055525  0.017943  0.111177
C    -0.091631  0.296620  1.597153
O    0.790260  0.837376  2.256508
H    -0.859998  -0.351119  -0.367992
H    0.850527  -0.725872  -0.028951
H    0.378417  0.938558  -0.388984
N    -1.285878  -0.088671  2.149292
C    -1.580585  -0.004206  3.579615
C    -1.273112  1.388578  4.193829
O    -0.670258  1.491293  5.255918
H    -1.953792  -0.564873  1.556371
H    -2.673689  -0.139168  3.661474
C    -0.890036  -1.102885  4.398626
C    -1.261588  -2.515553  3.950963
C    -0.585586  -3.586353  4.803714
N    -0.914016  -4.917933  4.299534
C    -0.505491  -6.083707  4.936045
N    0.740900  -5.995857  5.558028
N    -1.294106  -7.104925  4.921194
H    -1.153758  -0.947628  5.453342
H    0.196042  -0.947610  4.332586
H    -0.975330  -2.676734  2.899717
H    -2.356907  -2.652106  4.005628
H    -0.875486  -3.463230  5.864132
H    0.503856  -3.431875  4.756464
H    -1.881919  -5.027284  4.005318
H    1.140475  -6.890793  5.815525
H    1.418982  -5.374259  5.127294
H    -0.841194  -7.934924  5.312153
N    -1.782536  2.493782  3.567185
C    -2.555358  2.609912  2.345475
H    -1.496160  3.353712  4.023925
H    -3.099386  3.561915  2.368742
H    -3.303127  1.810630  2.268148
H    -1.931462  2.590754  1.438253
