35
Energy: -21190.1547512 eV PBE+vdW (tier 2 basis)
C    -0.581236  -0.688253  1.185623
C    -0.971441  -0.339510  2.609218
O    -0.188583  -0.469292  3.544850
H    0.323081  -1.300900  1.229352
H    -0.352106  0.226869  0.621212
H    -1.364482  -1.236134  0.646686
N    -2.229635  0.179590  2.830405
C    -3.359758  0.286272  1.917322
C    -3.829157  -1.121420  1.438268
O    -3.782145  -2.083083  2.196392
H    -2.429729  0.262516  3.821631
H    -4.196111  0.614501  2.555659
C    -3.175158  1.354584  0.815776
C    -2.624947  2.697640  1.307662
C    -3.500549  3.421888  2.348734
N    -4.892745  3.622990  1.982358
C    -5.293058  4.525901  1.007125
N    -6.653477  4.399663  0.692683
N    -4.583566  5.407198  0.391514
H    -4.151450  1.536899  0.337102
H    -2.507367  0.977222  0.027960
H    -2.488643  3.344816  0.429407
H    -1.628960  2.554388  1.751303
H    -3.056158  4.403067  2.573404
H    -3.493409  2.870258  3.299476
H    -5.510979  2.829061  2.107804
H    -6.943113  5.160154  0.083486
H    -7.266432  4.316330  1.500294
H    -3.590463  5.325656  0.617861
N    -4.326645  -1.189278  0.169755
C    -4.857983  -2.417571  -0.393282
H    -4.295533  -0.361523  -0.411568
H    -4.249435  -2.764379  -1.240286
H    -4.835170  -3.178414  0.393586
H    -5.893339  -2.279183  -0.732888
