35
Energy: -21190.1351124 eV PBE+vdW (tier 2 basis)
C    -0.014371  -0.805717  -0.542291
C    -0.047896  0.095077  0.669760
O    0.845231  0.905562  0.913518
H    1.026086  -0.894062  -0.868027
H    -0.590813  -0.324969  -1.349472
H    -0.437061  -1.802105  -0.366526
N    -1.144284  0.038146  1.507196
C    -2.318069  -0.840722  1.507171
C    -1.931248  -2.320552  1.772951
O    -2.172877  -3.213534  0.963426
H    -1.094774  0.746846  2.231855
H    -2.906745  -0.506688  2.376922
C    -3.211930  -0.737101  0.261755
C    -3.491852  0.696564  -0.180695
C    -4.180785  0.743835  -1.553093
N    -4.073582  2.026512  -2.232472
C    -2.875268  2.386407  -2.823045
N    -2.889595  3.659417  -3.403532
N    -1.896736  1.545163  -2.879143
H    -4.145750  -1.278683  0.475407
H    -2.740424  -1.289397  -0.561311
H    -2.541818  1.238926  -0.271531
H    -4.098520  1.232312  0.569337
H    -5.247679  0.488479  -1.474734
H    -3.710222  0.003713  -2.213441
H    -4.638617  2.781843  -1.861590
H    -3.640562  4.287125  -3.134463
H    -1.987064  4.118744  -3.436681
H    -1.132426  1.910094  -3.451488
N    -1.308149  -2.597130  2.958250
C    -0.902753  -1.690496  4.018512
H    -1.034027  -3.571262  3.038819
H    0.007054  -1.125240  3.768153
H    -0.711342  -2.278587  4.923254
H    -1.701617  -0.976204  4.260258
