35
Energy: -21190.4422975 eV PBE+vdW (tier 2 basis)
C    -1.050021  -1.533724  0.095763
C    -0.438324  -1.049344  1.396199
O    0.746839  -1.235022  1.673285
H    -0.954697  -2.625816  0.048200
H    -0.474708  -1.118960  -0.740918
H    -2.105028  -1.259390  -0.023769
N    -1.292897  -0.378179  2.226913
C    -0.914683  0.027047  3.565657
C    -2.059614  -0.370654  4.510209
O    -3.229308  -0.385047  4.127790
H    -2.293121  -0.366713  2.041744
H    0.009701  -0.519946  3.810313
C    -0.655711  1.547700  3.673510
C    0.529936  2.017377  2.829906
C    0.794871  3.530031  2.898284
N    -0.235240  4.381428  2.316685
C    -1.451008  4.698124  2.907515
N    -1.406769  4.955797  4.277978
N    -2.485320  4.829223  2.145744
H    -0.481867  1.796070  4.734059
H    -1.575446  2.070401  3.370736
H    0.366205  1.736839  1.778403
H    1.444152  1.486862  3.141284
H    1.733059  3.749365  2.367664
H    0.979248  3.839702  3.939437
H    -0.375565  4.256329  1.317244
H    -2.284475  4.812049  4.762006
H    -0.607617  4.608300  4.795952
H    -3.282580  5.210159  2.661504
N    -1.679318  -0.653168  5.786782
C    -2.623367  -0.987899  6.837003
H    -0.687673  -0.680365  5.991984
H    -3.629782  -0.901463  6.414503
H    -2.529927  -0.299231  7.687975
H    -2.475943  -2.016882  7.193456
