35
Energy: -21190.2408072 eV PBE+vdW (tier 2 basis)
C    0.319369  -0.444176  0.629656
C    -0.064234  0.603953  1.660983
O    0.639111  1.589395  1.867466
H    1.047189  0.004965  -0.051512
H    -0.535315  -0.823344  0.053423
H    0.796857  -1.302103  1.123753
N    -1.221524  0.406563  2.370296
C    -2.198133  -0.654720  2.261708
C    -3.514463  -0.096699  2.846345
O    -3.530825  0.906880  3.558403
H    -1.488237  1.158242  3.007851
H    -2.382781  -0.889187  1.199438
C    -1.761111  -1.977221  2.955671
C    -1.397112  -1.876586  4.442256
C    -2.597884  -1.838303  5.403041
N    -2.213081  -1.901274  6.808895
C    -2.301473  -3.029912  7.608783
N    -2.315770  -4.237521  6.902310
N    -2.387341  -3.061273  8.896023
H    -0.889578  -2.351022  2.400658
H    -2.550656  -2.734092  2.811219
H    -0.762353  -0.993840  4.611659
H    -0.770853  -2.744142  4.702299
H    -3.276709  -2.677057  5.185079
H    -3.169971  -0.913521  5.255590
H    -2.241952  -1.029074  7.321178
H    -2.260878  -5.016401  7.552643
H    -1.627728  -4.314112  6.157891
H    -2.521308  -2.124077  9.285686
N    -4.626860  -0.813291  2.536969
C    -5.939480  -0.505190  3.076495
H    -4.525231  -1.629624  1.945737
H    -6.682877  -0.435141  2.272177
H    -5.871169  0.460880  3.586401
H    -6.264727  -1.266599  3.800059
