35
Energy: -21190.212398 eV PBE+vdW (tier 2 basis)
C    -0.059069  -1.596622  0.347015
C    -0.100855  -0.861137  1.677629
O    0.676665  -1.133948  2.595071
H    0.279459  -2.622195  0.526517
H    0.678675  -1.113760  -0.309560
H    -1.029211  -1.608694  -0.166205
N    -1.038148  0.130583  1.734336
C    -1.469390  0.956155  2.866745
C    -0.985712  2.429290  2.870226
O    -1.797169  3.298858  3.192545
H    -1.657472  0.189245  0.932733
H    -2.545718  1.095972  2.701522
C    -1.289449  0.364898  4.278098
C    -1.905575  -1.015210  4.555553
C    -3.373457  -1.239490  4.152601
N    -3.541599  -1.679990  2.773595
C    -4.102291  -0.932895  1.756356
N    -3.869758  -1.503210  0.487699
N    -4.745062  0.182504  1.808624
H    -1.749858  1.105552  4.949877
H    -0.224300  0.316884  4.535861
H    -1.825924  -1.186745  5.639969
H    -1.284398  -1.795818  4.090747
H    -3.968091  -0.327045  4.302739
H    -3.813469  -1.998807  4.817947
H    -2.846497  -2.353124  2.466824
H    -4.465970  -1.050042  -0.200824
H    -3.987527  -2.513929  0.459782
H    -4.787796  0.568873  2.753814
N    0.298104  2.756667  2.552333
C    1.443499  1.920297  2.234040
H    0.444804  3.761394  2.580138
H    1.395000  0.955415  2.750182
H    2.353829  2.434668  2.564972
H    1.530636  1.727943  1.152875
