35
Energy: -21190.2236995 eV PBE+vdW (tier 2 basis)
C    0.023864  -0.384355  0.905347
C    -0.129651  -0.331532  2.415924
O    0.810039  -0.543946  3.176128
H    1.057048  -0.665136  0.686193
H    -0.183900  0.590047  0.440892
H    -0.652237  -1.121239  0.450179
N    -1.374404  -0.017619  2.911129
C    -2.622372  0.154117  2.172283
C    -3.396956  1.302284  2.859724
O    -4.284005  1.078983  3.681218
H    -1.436869  -0.066993  3.925823
H    -2.360123  0.463392  1.150978
C    -3.460413  -1.127328  2.104731
C    -4.655732  -1.015892  1.156968
C    -5.452576  -2.316170  1.077617
N    -6.573477  -2.179099  0.163239
C    -7.353270  -3.279889  -0.181942
N    -8.462831  -2.917859  -0.953907
N    -7.166590  -4.516937  0.123276
H    -3.805246  -1.370875  3.120091
H    -2.795680  -1.943080  1.780767
H    -4.315452  -0.746028  0.143705
H    -5.317215  -0.205166  1.501884
H    -5.779279  -2.612709  2.093355
H    -4.803891  -3.123160  0.702184
H    -7.103678  -1.318088  0.269515
H    -8.944542  -3.743594  -1.297981
H    -8.262991  -2.253218  -1.696731
H    -6.414593  -4.628516  0.806730
N    -3.023056  2.574404  2.535251
C    -1.919176  2.994059  1.686405
H    -3.505458  3.285033  3.076664
H    -0.943414  2.681206  2.085907
H    -1.929127  4.087028  1.623930
H    -2.023142  2.607363  0.662592
