35
Energy: -21189.854786 eV PBE+vdW (tier 2 basis)
C    0.229191  1.140070  -0.175793
C    0.345095  0.607707  1.237529
O    1.437606  0.469732  1.782820
H    -0.396676  2.039431  -0.234577
H    -0.196851  0.379083  -0.842946
H    1.237133  1.383056  -0.521564
N    -0.801639  0.280296  1.929963
C    -2.212752  0.189485  1.528744
C    -2.437180  -1.121915  0.717156
O    -2.381180  -2.179460  1.344608
H    -0.575085  -0.187129  2.803163
H    -2.724480  -0.066228  2.467740
C    -2.819836  1.522309  1.069623
C    -4.349140  1.534132  1.148976
C    -4.986490  2.849961  0.673032
N    -4.884397  3.113137  -0.762637
C    -3.749573  3.589755  -1.413098
N    -2.966053  4.460081  -0.657317
N    -3.379060  3.304530  -2.617077
H    -2.492133  1.806442  0.066373
H    -2.420258  2.298675  1.739262
H    -4.662552  1.361614  2.192262
H    -4.779602  0.700442  0.568892
H    -4.543669  3.693147  1.220265
H    -6.056350  2.849249  0.927097
H    -5.417928  2.472191  -1.341068
H    -2.262621  4.903210  -1.240868
H    -3.475962  5.128350  -0.087168
H    -3.960587  2.564949  -3.020841
N    -2.625960  -1.157133  -0.640828
C    -2.910450  -0.135974  -1.639204
H    -2.733619  -2.120515  -0.947422
H    -2.853914  -0.610241  -2.625082
H    -2.185439  0.682716  -1.634347
H    -3.917820  0.293930  -1.530771
