35
Energy: -21190.1322913 eV PBE+vdW (tier 2 basis)
C    -0.852273  0.329988  -0.412187
C    -0.126316  0.281201  0.916851
O    0.956990  0.830551  1.104247
H    -1.794733  0.890307  -0.332338
H    -1.106093  -0.675231  -0.775688
H    -0.201900  0.826230  -1.136602
N    -0.735522  -0.418963  1.933051
C    -2.081477  -0.967372  1.950666
C    -3.239959  0.058255  1.894813
O    -4.245460  -0.220344  1.241936
H    -0.205546  -0.405524  2.800347
H    -2.241582  -1.561693  1.038613
C    -2.273632  -1.903217  3.155861
C    -1.407827  -3.163854  3.102583
C    -1.654799  -4.085213  4.304537
N    -0.828032  -5.291867  4.325240
C    0.559543  -5.242337  4.484112
N    0.995692  -4.246823  5.360510
N    1.428856  -6.008122  3.921077
H    -3.338061  -2.179357  3.187540
H    -2.071285  -1.347214  4.087817
H    -0.339834  -2.902630  3.073453
H    -1.621564  -3.714503  2.172107
H    -2.705488  -4.411324  4.325681
H    -1.494095  -3.525827  5.237192
H    -1.099906  -5.982750  3.632213
H    1.988602  -4.353309  5.547894
H    0.450298  -4.152611  6.212990
H    1.001175  -6.591161  3.196194
N    -3.146046  1.241270  2.571042
C    -2.116821  1.746074  3.470672
H    -3.973096  1.816075  2.442819
H    -1.829036  1.000997  4.224164
H    -2.533611  2.604263  4.009510
H    -1.213921  2.078712  2.941047
