35
Energy: -21190.0076038 eV PBE+vdW (tier 2 basis)
C    0.086609  0.267988  0.452226
C    -0.154819  -0.123335  1.891156
O    0.783509  -0.466558  2.623894
H    0.350116  1.335050  0.411793
H    -0.766498  0.076421  -0.206518
H    0.954769  -0.296586  0.098124
N    -1.426019  -0.083152  2.390281
C    -2.601143  0.650634  1.904264
C    -3.197441  -0.078206  0.660817
O    -3.577183  -1.236360  0.815741
H    -1.473132  -0.427030  3.344295
H    -3.379609  0.425876  2.649173
C    -2.414337  2.178277  1.907326
C    -2.366113  2.846915  3.290232
C    -1.178262  2.523320  4.225211
N    0.126534  2.416646  3.600691
C    0.727491  3.447762  2.928585
N    1.860515  3.043495  2.199485
N    0.216497  4.636265  2.946445
H    -3.267162  2.626225  1.377549
H    -1.516833  2.465936  1.343887
H    -3.292496  2.620789  3.844402
H    -2.357557  3.930105  3.114173
H    -1.341457  1.571010  4.747295
H    -1.148670  3.304947  4.999995
H    0.515806  1.485429  3.492721
H    2.527246  3.790506  2.037552
H    2.316920  2.194708  2.526977
H    0.786059  5.286950  2.401418
N    -3.347577  0.523517  -0.561675
C    -2.941027  1.812771  -1.103570
H    -3.817121  -0.107025  -1.205559
H    -2.944799  1.731743  -2.196424
H    -1.926291  2.087576  -0.798619
H    -3.623785  2.627661  -0.822029
