35
Energy: -21190.576309 eV PBE+vdW (tier 2 basis)
C    0.126780  1.514973  2.056856
C    -0.410011  0.101886  1.986420
O    0.340305  -0.857979  1.742937
H    0.484392  1.798765  1.057611
H    0.991399  1.533163  2.730462
H    -0.609613  2.255616  2.390694
N    -1.747208  -0.035301  2.169580
C    -2.543388  -1.274054  2.093162
C    -2.363413  -2.205592  3.321465
O    -3.348180  -2.584220  3.954493
H    -2.259148  0.799941  2.425471
H    -3.585533  -0.940419  2.174146
C    -2.404741  -2.083315  0.787311
C    -2.767480  -1.362178  -0.518107
C    -1.685615  -0.427584  -1.104190
N    -0.369493  -1.017087  -1.261533
C    -0.074954  -1.907018  -2.284512
N    1.160035  -2.537054  -2.102692
N    -0.780255  -2.203843  -3.323615
H    -3.083961  -2.939154  0.913598
H    -1.397015  -2.511664  0.708571
H    -3.696551  -0.781668  -0.390970
H    -2.992019  -2.136249  -1.266557
H    -1.571588  0.467941  -0.479400
H    -2.022636  -0.062878  -2.086465
H    0.141803  -1.160025  -0.391999
H    1.442777  -3.029144  -2.944856
H    1.897216  -1.943813  -1.732366
H    -1.705985  -1.772446  -3.290267
N    -1.083864  -2.572665  3.584910
C    -0.737577  -3.466666  4.672273
H    -0.352131  -2.206988  2.970215
H    -0.022877  -2.992666  5.359402
H    -0.294500  -4.398727  4.293280
H    -1.655252  -3.707803  5.218845
