35
Energy: -21190.5258705 eV PBE+vdW (tier 2 basis)
C    -0.794557  1.422039  0.900223
C    -0.855875  0.640394  2.198507
O    -1.140097  1.169075  3.274314
H    -0.143821  2.292800  1.043307
H    -1.799498  1.797434  0.667768
H    -0.432638  0.832654  0.049105
N    -0.593602  -0.694590  2.090230
C    -0.556805  -1.569089  3.241497
C    0.324640  -2.770736  2.859818
O    0.617451  -3.012324  1.688243
H    -0.255698  -1.110619  1.224755
H    -0.094719  -1.016499  4.076258
C    -1.971258  -2.007845  3.696671
C    -2.738544  -2.817908  2.654014
C    -4.183624  -3.093152  3.085879
N    -4.962361  -3.773811  2.063440
C    -5.579025  -3.076642  1.029331
N    -6.351166  -3.915751  0.217088
N    -5.524783  -1.816359  0.771203
H    -2.517184  -1.085586  3.945063
H    -1.883478  -2.576739  4.637307
H    -2.238039  -3.777673  2.453972
H    -2.748459  -2.270849  1.700090
H    -4.671454  -2.145378  3.381934
H    -4.190910  -3.731005  3.981339
H    -5.458821  -4.605818  2.360947
H    -5.895897  -4.787675  -0.040201
H    -6.691152  -3.409953  -0.595899
H    -5.044323  -1.295682  1.508702
N    0.717438  -3.547367  3.905416
C    1.512187  -4.750521  3.742237
H    0.469117  -3.250109  4.841507
H    1.660795  -4.904927  2.668691
H    0.997108  -5.624978  4.163088
H    2.494053  -4.648808  4.225155
