35
Energy: -21190.2372399 eV PBE+vdW (tier 2 basis)
C    -0.534512  -1.898759  -0.373385
C    -0.104902  -1.072302  0.818872
O    1.075575  -1.060026  1.184107
H    -0.595781  -2.955705  -0.079648
H    0.255985  -1.814483  -1.126651
H    -1.490062  -1.603132  -0.820737
N    -1.034735  -0.345484  1.510543
C    -2.482206  -0.289061  1.412906
C    -2.889162  1.186780  1.239880
O    -2.205763  2.088417  1.718773
H    -0.630396  0.316126  2.173134
H    -2.799350  -0.881888  0.547046
C    -3.163876  -0.832816  2.706351
C    -3.546621  -2.324338  2.733938
C    -2.518721  -3.345809  2.248648
N    -1.233519  -3.226137  2.912645
C    -0.246169  -4.167276  2.660204
N    1.037097  -3.699174  2.964127
N    -0.580777  -5.346845  2.251224
H    -4.077616  -0.251382  2.901838
H    -2.491827  -0.588085  3.542664
H    -4.448169  -2.471104  2.118135
H    -3.839302  -2.566917  3.766808
H    -2.411172  -3.276621  1.148739
H    -2.895800  -4.358825  2.436070
H    -0.892664  -2.282847  3.056982
H    1.767846  -4.353140  2.704363
H    1.245697  -2.760996  2.613990
H    0.247766  -5.927142  2.103108
N    -4.059412  1.433039  0.583014
C    -4.960663  0.466617  -0.024361
H    -4.310727  2.415907  0.549683
H    -5.786828  1.012277  -0.491290
H    -5.393341  -0.226468  0.712323
H    -4.467229  -0.121511  -0.811904
