35
Energy: -21190.5973167 eV PBE+vdW (tier 2 basis)
C    0.180004  -0.450331  0.888901
C    -0.239643  -0.426940  2.343289
O    0.566505  -0.194580  3.251782
H    0.604098  0.528255  0.631357
H    -0.639465  -0.676591  0.195963
H    0.975151  -1.195072  0.761061
N    -1.558757  -0.667215  2.588901
C    -2.130971  -0.638950  3.936071
C    -1.898951  -2.008158  4.637620
O    -2.790201  -2.849640  4.750301
H    -2.162524  -0.940472  1.821707
H    -1.569324  0.130980  4.486750
C    -3.612205  -0.277347  3.883069
C    -4.196264  0.054772  5.257743
C    -5.713352  0.286030  5.194489
N    -6.327721  0.667913  6.453336
C    -6.253997  1.966109  6.945336
N    -6.752520  2.065190  8.249724
N    -5.802331  3.023028  6.362068
H    -4.164264  -1.125490  3.446683
H    -3.733844  0.585806  3.209460
H    -3.704921  0.949132  5.671275
H    -3.995392  -0.773926  5.952689
H    -6.208958  -0.631785  4.844052
H    -5.953988  1.063757  4.452775
H    -6.329617  -0.051734  7.169974
H    -6.816322  3.039008  8.532528
H    -7.623465  1.565219  8.409019
H    -5.345411  2.802238  5.474745
N    -0.626671  -2.162406  5.086107
C    -0.149753  -3.403456  5.664539
H    0.045742  -1.449341  4.792498
H    0.462563  -3.199877  6.552253
H    0.451794  -3.982811  4.947451
H    -1.019025  -4.003316  5.953481
