35
Energy: -21190.4921651 eV PBE+vdW (tier 2 basis)
C    0.557434  1.286680  1.113020
C    0.067281  -0.140063  1.240441
O    0.825496  -1.098512  1.097803
H    -0.084070  1.867067  0.439972
H    1.576786  1.249145  0.719297
H    0.580929  1.776629  2.096216
N    -1.253018  -0.381129  1.569961
C    -2.438786  0.469723  1.637078
C    -2.935572  0.913506  0.237885
O    -2.177212  1.371846  -0.618402
H    -1.440689  -1.379490  1.555763
H    -3.212277  -0.186966  2.060224
C    -2.300842  1.687494  2.579834
C    -3.654105  2.278045  2.999569
C    -4.431918  1.371547  3.969933
N    -5.863817  1.620551  4.029111
C    -6.727678  1.056117  3.122024
N    -8.054213  1.439414  3.327093
N    -6.299320  0.273850  2.178061
H    -1.704329  2.466998  2.089988
H    -1.735364  1.364053  3.468193
H    -4.271789  2.463340  2.109297
H    -3.490756  3.259778  3.469255
H    -4.028148  1.472465  4.987909
H    -4.320952  0.318031  3.685234
H    -6.166160  2.495505  4.442507
H    -8.730090  0.954500  2.748071
H    -8.349608  1.507607  4.296901
H    -7.080780  -0.183166  1.703480
N    -4.271736  0.773321  0.055080
C    -4.910665  1.244112  -1.159529
H    -4.877198  0.493014  0.842227
H    -4.627942  2.283158  -1.381063
H    -5.996708  1.185510  -1.027147
H    -4.622902  0.632032  -2.025947
