35
Energy: -21190.1816 eV PBE+vdW (tier 2 basis)
C    -1.490975  0.713427  -0.490627
C    -0.864883  0.738769  0.886709
O    -0.002339  1.554375  1.205003
H    -1.144292  -0.164753  -1.053587
H    -1.173412  1.614608  -1.021650
H    -2.589231  0.667926  -0.451731
N    -1.279676  -0.213742  1.798134
C    -2.457997  -1.085881  1.709904
C    -2.856083  -1.580652  3.107099
O    -4.032717  -1.686027  3.439371
H    -0.944372  0.007391  2.732439
H    -3.322966  -0.509770  1.349234
C    -2.256293  -2.327612  0.776046
C    -3.266146  -2.401822  -0.373431
C    -4.726874  -2.532844  0.093582
N    -5.704416  -2.128291  -0.908076
C    -5.880781  -0.787846  -1.193526
N    -6.778890  -0.582785  -2.252029
N    -5.235470  0.121752  -0.540241
H    -2.309826  -3.251062  1.374641
H    -1.233826  -2.287261  0.375504
H    -3.007462  -3.247812  -1.029679
H    -3.190391  -1.491771  -0.981558
H    -4.904943  -1.912216  0.980382
H    -4.952038  -3.568884  0.384822
H    -5.829629  -2.752931  -1.697862
H    -7.035636  0.389072  -2.387545
H    -7.594793  -1.189934  -2.241561
H    -5.579503  1.055883  -0.773470
N    -1.813516  -1.935168  3.921409
C    -2.018454  -2.517801  5.234820
H    -0.880912  -1.957750  3.522826
H    -1.871521  -3.608461  5.226249
H    -3.051110  -2.310800  5.533664
H    -1.331613  -2.071314  5.964908
