35
Energy: -21190.178252 eV PBE+vdW (tier 2 basis)
C    0.042542  -0.029301  1.533821
C    -1.009978  0.388900  2.544993
O    -0.889837  1.397506  3.235005
H    0.873051  0.677296  1.606617
H    -0.350945  -0.004682  0.507471
H    0.416550  -1.044494  1.722946
N    -2.130305  -0.400494  2.653921
C    -2.425864  -1.661384  1.981322
C    -3.932050  -1.706260  1.626553
O    -4.690754  -2.551483  2.097117
H    -2.770877  -0.088691  3.379582
H    -1.878606  -1.655420  1.026298
C    -1.979164  -2.908651  2.764942
C    -2.415606  -2.953953  4.230908
C    -1.971677  -4.247654  4.909770
N    -2.368758  -4.257330  6.306928
C    -1.973393  -5.284916  7.156740
N    -2.571900  -5.187362  8.418018
N    -1.164938  -6.257071  6.909234
H    -0.879673  -2.958064  2.712941
H    -2.363670  -3.792134  2.234436
H    -3.511520  -2.870309  4.282690
H    -1.987476  -2.103152  4.782289
H    -0.873782  -4.331452  4.866216
H    -2.382684  -5.116001  4.358066
H    -3.308138  -3.911587  6.484022
H    -2.171529  -5.867960  9.057339
H    -2.577331  -4.249899  8.811394
H    -0.915116  -6.295200  5.918604
N    -4.385521  -0.753316  0.758344
C    -3.641564  0.286015  0.064905
H    -5.384561  -0.816576  0.589932
H    -3.379257  1.127737  0.721010
H    -4.259600  0.662957  -0.757123
H    -2.717035  -0.109805  -0.377120
