35
Energy: -21190.1273024 eV PBE+vdW (tier 2 basis)
C    0.063638  -0.059434  0.097645
C    0.163576  -0.295869  1.592605
O    1.239195  -0.447798  2.167661
H    1.077503  -0.037048  -0.309325
H    -0.442316  0.888062  -0.136563
H    -0.503646  -0.860103  -0.398016
N    -1.015362  -0.327868  2.297628
C    -2.362086  -0.118996  1.790998
C    -2.831619  1.329626  1.513127
O    -3.859240  1.466068  0.848780
H    -0.882698  -0.500631  3.289269
H    -2.421451  -0.588131  0.798852
C    -3.425081  -0.835150  2.665252
C    -3.938263  -0.099263  3.910837
C    -2.910920  0.128375  5.031156
N    -3.426618  0.806065  6.205654
C    -3.597333  2.186556  6.242814
N    -4.160901  2.612872  7.448396
N    -3.304276  3.052317  5.334185
H    -3.015072  -1.821433  2.935274
H    -4.289167  -1.021555  2.016002
H    -4.770217  -0.689373  4.326475
H    -4.378121  0.864263  3.614395
H    -2.062563  0.729374  4.671980
H    -2.491772  -0.837024  5.357715
H    -4.079385  0.278365  6.776724
H    -4.179242  3.627220  7.499084
H    -3.759148  2.191694  8.281790
H    -3.074552  2.606295  4.443733
N    -2.188864  2.427493  2.019388
C    -0.891619  2.624445  2.662766
H    -2.666461  3.275405  1.723871
H    -0.755962  1.983979  3.539320
H    -0.856049  3.661663  3.012607
H    -0.046864  2.457505  1.979943
