35
Energy: -21190.1264706 eV PBE+vdW (tier 2 basis)
C    0.112411  -1.777041  0.622397
C    -0.037415  -0.935020  1.878014
O    0.857996  -0.830903  2.709031
H    -0.700392  -1.647287  -0.103270
H    0.157258  -2.834039  0.915789
H    1.066928  -1.529823  0.143690
N    -1.239194  -0.285911  2.004241
C    -1.668790  0.435613  3.204512
C    -0.515421  1.253035  3.844331
O    -0.221966  1.133227  5.030730
H    -1.953223  -0.478913  1.311718
H    -2.405362  1.180674  2.852280
C    -2.365515  -0.490258  4.222499
C    -3.524627  0.143575  5.005197
C    -3.149651  1.172579  6.087290
N    -2.270352  0.661488  7.133134
C    -2.651901  -0.360580  7.986084
N    -3.994068  -0.290594  8.398787
N    -1.799597  -1.272845  8.313095
H    -1.610518  -0.902219  4.905878
H    -2.769704  -1.340108  3.653809
H    -4.087779  -0.665331  5.494378
H    -4.228477  0.621850  4.300474
H    -4.077183  1.561009  6.533261
H    -2.638877  2.039816  5.648106
H    -1.310033  0.541813  6.809919
H    -4.204904  -0.909148  9.174404
H    -4.341431  0.651059  8.563901
H    -2.166363  -1.871839  9.058394
N    0.076121  2.219421  3.079343
C    -0.051361  2.475347  1.657389
H    0.854183  2.658639  3.562053
H    0.285703  3.499287  1.456207
H    -1.097729  2.405088  1.336993
H    0.546981  1.783890  1.043332
