35
Energy: -21190.0917674 eV PBE+vdW (tier 2 basis)
C    -1.116473  -0.827113  0.640211
C    -1.251938  -0.713116  2.144479
O    -0.763177  -1.542878  2.907164
H    -0.253408  -1.465303  0.431997
H    -1.004299  0.133574  0.125600
H    -2.010898  -1.315049  0.226495
N    -1.987659  0.332494  2.662531
C    -2.613250  1.478845  2.000384
C    -3.514141  1.059803  0.817413
O    -3.356018  1.501538  -0.324466
H    -2.007097  0.316893  3.678117
H    -3.309188  1.883562  2.753909
C    -1.589994  2.585533  1.666811
C    -2.121076  3.865834  1.001630
C    -3.422713  4.430619  1.600476
N    -3.988195  5.534253  0.860280
C    -4.757607  5.440692  -0.283203
N    -5.130757  4.140616  -0.642738
N    -5.128456  6.538747  -0.856656
H    -0.802225  2.159412  1.030364
H    -1.103591  2.831969  2.623818
H    -1.341411  4.640125  1.065573
H    -2.279745  3.675183  -0.065998
H    -3.250070  4.767193  2.634905
H    -4.193985  3.647354  1.664766
H    -3.665346  6.476038  1.042753
H    -5.580980  4.103837  -1.550186
H    -4.439550  3.396093  -0.544066
H    -5.677391  6.350019  -1.697752
N    -4.532268  0.198422  1.094549
C    -4.921066  -0.394153  2.365091
H    -5.087883  -0.029376  0.275714
H    -5.949684  -0.759249  2.273321
H    -4.272814  -1.233093  2.653296
H    -4.907421  0.348826  3.173636
