35
Energy: -21190.1484163 eV PBE+vdW (tier 2 basis)
C    -0.591179  -1.397724  0.130995
C    -0.692464  -0.142606  0.978958
O    0.211675  0.683924  1.040193
H    -0.313663  -1.111266  -0.890243
H    -1.514727  -1.989256  0.098597
H    0.219028  -2.023273  0.527230
N    -1.878565  0.008606  1.661285
C    -2.033536  1.047391  2.686824
C    -3.190755  0.731949  3.641699
O    -3.029979  0.830145  4.861275
H    -2.467667  -0.812961  1.738376
H    -1.134724  1.042607  3.318188
C    -2.168179  2.467627  2.082647
C    -2.305956  3.605112  3.107278
C    -1.064041  3.919385  3.948067
N    -0.771509  2.867985  4.916734
C    0.217546  2.961320  5.881911
N    1.237573  3.869023  5.583551
N    0.265922  2.310991  6.996673
H    -3.030403  2.492718  1.400247
H    -1.272871  2.630546  1.467609
H    -3.162609  3.426991  3.778485
H    -2.553516  4.520298  2.549715
H    -1.214278  4.891454  4.451698
H    -0.209203  4.049564  3.262355
H    -1.558403  2.276536  5.184917
H    2.009316  3.754401  6.234116
H    1.545978  3.878344  4.615383
H    -0.595794  1.778881  7.146153
N    -4.405078  0.339505  3.142358
C    -4.960638  0.500668  1.804178
H    -5.077307  0.192626  3.892257
H    -5.534888  1.435605  1.712359
H    -5.628815  -0.340838  1.580205
H    -4.165667  0.513009  1.053854
