35
Energy: -21190.40757 eV PBE+vdW (tier 2 basis)
C    -0.706849  -1.678076  -0.177287
C    -1.046768  -0.522359  0.740795
O    -1.205533  0.618357  0.282463
H    -1.469590  -1.739073  -0.962900
H    -0.630693  -2.647826  0.328782
H    0.249070  -1.457445  -0.669799
N    -1.153039  -0.831277  2.059068
C    -1.393234  0.024883  3.239905
C    -2.660090  0.921000  3.267988
O    -3.215826  1.088361  4.356269
H    -1.029416  -1.811457  2.281997
H    -1.618958  -0.697419  4.034803
C    -0.158856  0.811181  3.743696
C    0.371130  1.998738  2.922288
C    1.483655  1.640478  1.921372
N    2.145823  2.786886  1.323753
C    1.589637  3.493054  0.255992
N    2.287614  4.687424  0.010730
N    0.578998  3.190702  -0.475773
H    0.654779  0.085870  3.912957
H    -0.454936  1.171332  4.739001
H    0.790883  2.731861  3.628891
H    -0.445485  2.517759  2.401909
H    1.094793  1.018078  1.105993
H    2.253090  1.041907  2.434977
H    2.645239  3.378052  1.982606
H    1.960997  5.107567  -0.855197
H    3.300072  4.588390  0.019072
H    0.069330  2.367424  -0.144949
N    -3.060159  1.498756  2.117151
C    -4.196488  2.400973  2.082639
H    -2.465549  1.374457  1.287996
H    -4.478007  2.572725  1.038527
H    -3.963348  3.368187  2.552873
H    -5.045138  1.963436  2.622652
