35
Energy: -21190.3403352 eV PBE+vdW (tier 2 basis)
C    0.254167  -1.535255  0.788425
C    0.111268  -1.166107  2.255083
O    0.958194  -1.465054  3.090811
H    0.288404  -0.645427  0.143896
H    -0.578686  -2.163836  0.443744
H    1.189520  -2.088828  0.674454
N    -1.013169  -0.459844  2.618996
C    -2.177021  -0.137928  1.793507
C    -2.627812  1.268585  2.241814
O    -3.508516  1.430270  3.091105
H    -1.101261  -0.317021  3.622971
H    -1.832668  -0.083903  0.751444
C    -3.293550  -1.189590  1.891728
C    -4.309092  -1.178143  0.741118
C    -5.214221  0.067435  0.645978
N    -5.982200  0.366865  1.836436
C    -7.109669  -0.357159  2.190362
N    -7.543883  -0.067749  3.487588
N    -7.764067  -1.225668  1.493607
H    -3.805319  -1.077090  2.858573
H    -2.803181  -2.173288  1.913987
H    -4.946886  -2.067509  0.849329
H    -3.781317  -1.293266  -0.221530
H    -5.907085  -0.055269  -0.200296
H    -4.616562  0.961005  0.409689
H    -5.423908  0.740041  2.603736
H    -8.469336  -0.451481  3.653463
H    -7.472898  0.909160  3.757814
H    -7.292292  -1.437713  0.612297
N    -1.976359  2.329505  1.690861
C    -0.829215  2.307629  0.796126
H    -2.255157  3.222414  2.086167
H    -0.573158  3.340765  0.540643
H    -1.056071  1.783848  -0.143019
H    0.049993  1.839453  1.261826
