35
Energy: -21190.5782128 eV PBE+vdW (tier 2 basis)
C    0.266639  -0.461413  0.910419
C    -0.189076  -0.465831  2.354139
O    0.600254  -0.282003  3.288202
H    -0.541248  -0.642997  0.191236
H    1.042063  -1.226434  0.780990
H    0.726436  0.510459  0.691699
N    -1.520245  -0.674257  2.560444
C    -2.123975  -0.667835  3.894055
C    -1.948379  -2.063501  4.558673
O    -2.862746  -2.885232  4.616415
H    -2.112035  -0.908808  1.771441
H    -1.553031  0.068398  4.480049
C    -3.592126  -0.260136  3.820407
C    -4.187123  0.062628  5.192313
C    -5.689699  0.356588  5.111108
N    -6.261686  0.759417  6.384739
C    -6.228410  2.075858  6.825778
N    -6.917233  2.247052  8.032423
N    -5.674612  3.093398  6.261553
H    -4.160867  -1.082383  3.356617
H    -3.674668  0.619656  3.162533
H    -3.670237  0.930236  5.630607
H    -4.034955  -0.782887  5.877487
H    -6.219602  -0.548328  4.782831
H    -5.885621  1.125062  4.339481
H    -7.055717  0.220967  6.710515
H    -6.772555  3.184989  8.395207
H    -6.725829  1.534691  8.732131
H    -5.322859  2.864521  5.328998
N    -0.694666  -2.263873  5.040881
C    -0.266318  -3.534174  5.592991
H    0.004127  -1.560913  4.787666
H    0.317486  -3.375136  6.508673
H    0.348173  -4.102874  4.878362
H    -1.158658  -4.122904  5.829937
