35
Energy: -21189.9909208 eV PBE+vdW (tier 2 basis)
C    0.486204  0.452002  0.986451
C    -0.417794  -0.279122  1.958282
O    -0.307741  -1.494090  2.118505
H    -0.076354  0.951017  0.187942
H    1.146303  -0.295875  0.539540
H    1.095013  1.212187  1.490620
N    -1.367411  0.397178  2.698072
C    -1.915328  1.755646  2.785228
C    -3.423697  1.799690  2.443921
O    -4.201130  2.364754  3.223204
H    -1.836697  -0.262175  3.316163
H    -1.918329  2.006567  3.855789
C    -1.149138  2.880048  2.062854
C    -1.746333  4.271860  2.316983
C    -1.571849  4.787004  3.757581
N    -2.396898  5.943430  4.045919
C    -3.468816  5.949506  4.927074
N    -4.024280  4.701942  5.185461
N    -3.816629  7.084094  5.442548
H    -1.126958  2.700098  0.980553
H    -0.103971  2.858828  2.406650
H    -2.818144  4.280623  2.074105
H    -1.275306  4.984530  1.623882
H    -0.512166  5.036002  3.932289
H    -1.822428  4.000567  4.482726
H    -1.970960  6.860947  3.985094
H    -4.889718  4.739270  5.709568
H    -4.037184  3.991735  4.450180
H    -4.677091  6.993278  5.987338
N    -3.891498  1.236376  1.298464
C    -3.187344  0.545483  0.227601
H    -4.899547  1.326003  1.212529
H    -3.880800  0.430772  -0.612182
H    -2.837612  -0.451104  0.527594
H    -2.330385  1.125912  -0.135084
