35
Energy: -21190.5615705 eV PBE+vdW (tier 2 basis)
C    0.526909  -1.077841  -0.477242
C    0.269582  -0.494713  0.898249
O    1.196973  -0.003811  1.557094
H    1.230256  -1.913726  -0.372181
H    1.016197  -0.316382  -1.096400
H    -0.373653  -1.435449  -0.990531
N    -1.024160  -0.543828  1.317264
C    -1.641165  -0.211460  2.620584
C    -1.444795  1.212491  3.180258
O    -2.339493  1.667869  3.908738
H    -1.670479  -0.960615  0.658263
H    -2.718024  -0.222536  2.406006
C    -1.421501  -1.296359  3.703330
C    -0.034403  -1.412281  4.351389
C    0.222872  -0.425043  5.499096
N    -0.744626  -0.578881  6.581325
C    -1.161040  0.474989  7.392897
N    -1.351171  1.684026  6.731294
N    -1.314526  0.238284  8.655072
H    -1.692617  -2.256202  3.238938
H    -2.162557  -1.113768  4.496162
H    0.765499  -1.299321  3.607075
H    0.062587  -2.433987  4.752642
H    0.175974  0.609254  5.145331
H    1.255365  -0.572077  5.865885
H    -0.592745  -1.395043  7.169499
H    -1.785948  2.393040  7.310446
H    -1.757879  1.648592  5.790435
H    -1.764251  1.028638  9.124998
N    -0.311805  1.872454  2.883076
C    -0.034148  3.186815  3.436433
H    0.434543  1.335099  2.416147
H    0.786125  3.641391  2.871114
H    0.248555  3.132241  4.499277
H    -0.925353  3.820608  3.358452
