35
Energy: -21190.3307938 eV PBE+vdW (tier 2 basis)
C    -0.497835  -0.322707  -0.123530
C    -0.290313  0.091342  1.320450
O    0.725835  0.675539  1.699372
H    0.348469  -0.946539  -0.435880
H    -0.490990  0.576388  -0.752562
H    -1.432995  -0.869541  -0.294262
N    -1.313761  -0.214107  2.170937
C    -1.224324  0.039273  3.593208
C    -2.120833  -0.998132  4.279648
O    -3.003259  -1.589297  3.649447
H    -2.093725  -0.803777  1.887937
H    -0.172933  -0.106916  3.887921
C    -1.590508  1.507104  3.948649
C    -3.009221  1.960186  3.581319
C    -4.094312  1.584263  4.607268
N    -5.417081  2.121106  4.326009
C    -5.723757  3.474447  4.302855
N    -5.069190  4.248938  5.263109
N    -6.638482  3.885433  3.490592
H    -0.855579  2.123474  3.413636
H    -1.405158  1.678638  5.021111
H    -3.289134  1.559009  2.595376
H    -3.005619  3.054552  3.465256
H    -3.777621  1.896359  5.618185
H    -4.209080  0.494781  4.664726
H    -5.936588  1.639591  3.597727
H    -5.013442  5.235453  5.042630
H    -4.211322  3.882522  5.660566
H    -6.875213  4.866318  3.659398
N    -1.932031  -1.229215  5.607786
C    -0.946019  -0.655197  6.506748
H    -2.603316  -1.885408  5.995998
H    -0.687848  -1.393627  7.274912
H    -1.313184  0.253108  7.009077
H    -0.026454  -0.404105  5.966686
