35
Energy: -21190.4724076 eV PBE+vdW (tier 2 basis)
C    0.553674  -2.000648  6.090582
C    -0.768997  -2.252600  5.398762
O    -1.411519  -3.294147  5.576330
H    1.247365  -2.811745  5.837381
H    0.392777  -2.035085  7.175403
H    1.013164  -1.039540  5.829576
N    -1.212196  -1.259965  4.576426
C    -2.488576  -1.329275  3.863574
C    -2.323580  -2.111402  2.530906
O    -2.318659  -1.553579  1.435172
H    -0.602816  -0.473253  4.382016
H    -3.160461  -1.909931  4.514634
C    -3.064173  0.064208  3.628443
C    -3.418566  0.811421  4.915108
C    -4.036800  2.187909  4.634895
N    -4.359390  2.947033  5.838140
C    -5.630425  3.089183  6.376134
N    -6.531961  2.094122  5.993459
N    -6.036627  4.035370  7.154471
H    -3.957340  -0.049391  2.997039
H    -2.357950  0.648706  3.016195
H    -2.529820  0.944728  5.551250
H    -4.121866  0.207706  5.512868
H    -4.949157  2.075245  4.030463
H    -3.335471  2.783924  4.030523
H    -3.724043  3.694119  6.086211
H    -6.175386  1.142821  6.012476
H    -7.401023  2.191235  6.510242
H    -5.338629  4.779956  7.235326
N    -2.184358  -3.450123  2.721850
C    -1.915468  -4.370085  1.634248
H    -2.098731  -3.768151  3.690064
H    -2.083581  -3.839962  0.690928
H    -2.587610  -5.236669  1.686445
H    -0.875798  -4.730137  1.655462
