35
Energy: -21190.6186671 eV PBE+vdW (tier 2 basis)
C    -0.854601  0.534336  -0.121108
C    -0.713408  0.935297  1.330357
O    0.132573  1.757683  1.700532
H    -0.606408  -0.528837  -0.253126
H    -0.164562  1.137323  -0.716315
H    -1.879341  0.673249  -0.489951
N    -1.566310  0.364033  2.241071
C    -2.471626  -0.755714  2.017593
C    -3.748452  -0.390417  1.225809
O    -4.393111  -1.260191  0.644903
H    -1.261355  0.496740  3.218015
H    -1.984956  -1.549679  1.427745
C    -2.924656  -1.359680  3.362764
C    -1.828103  -1.975615  4.257307
C    -1.306004  -1.079145  5.393212
N    -0.473587  0.033276  4.938673
C    0.899661  -0.189917  4.648174
N    1.520554  0.977439  4.235667
N    1.544570  -1.298960  4.736501
H    -3.660266  -2.132626  3.106326
H    -3.476692  -0.586448  3.923672
H    -0.982919  -2.321421  3.643028
H    -2.239120  -2.877873  4.733626
H    -0.766894  -1.702812  6.129147
H    -2.160761  -0.643146  5.929729
H    -0.603258  0.896534  5.461037
H    2.487249  0.799231  3.977965
H    1.018820  1.491660  3.501275
H    0.990744  -2.030826  5.187513
N    -4.099948  0.922224  1.278981
C    -5.281931  1.449203  0.627810
H    -3.459062  1.546679  1.758507
H    -5.961188  1.916382  1.354364
H    -5.797095  0.610487  0.147101
H    -5.018179  2.192785  -0.137516
