35
Energy: -21190.4392168 eV PBE+vdW (tier 2 basis)
C    -0.956308  1.582270  -0.264206
C    -0.640201  0.807763  0.999813
O    0.426440  0.210482  1.150287
H    -0.173289  2.334531  -0.419357
H    -1.933055  2.080705  -0.246284
H    -0.921524  0.893026  -1.117028
N    -1.613693  0.833460  1.960764
C    -1.498440  0.113437  3.225734
C    -2.390911  -1.141006  3.116549
O    -3.621160  -1.045579  3.212699
H    -2.511783  1.252830  1.745084
H    -0.439367  -0.159048  3.308868
C    -1.899425  1.020976  4.397585
C    -1.565717  0.486774  5.797071
C    -2.359151  -0.750267  6.249704
N    -3.801765  -0.581456  6.166094
C    -4.678975  -0.655166  7.232235
N    -4.108713  -0.365189  8.478976
N    -5.932427  -0.961592  7.179316
H    -2.977435  1.234715  4.333370
H    -1.373624  1.974925  4.248826
H    -1.751308  1.300860  6.515142
H    -0.489185  0.255624  5.863432
H    -2.098028  -0.992818  7.287577
H    -2.061858  -1.628814  5.652006
H    -4.204295  -0.783546  5.253348
H    -4.837708  -0.322830  9.185736
H    -3.516070  0.461103  8.496916
H    -6.188123  -1.296925  6.246190
N    -1.790829  -2.330336  2.857921
C    -0.367416  -2.634516  2.758470
H    -2.448373  -3.102271  2.791143
H    -0.255194  -3.576729  2.210913
H    0.097646  -2.757845  3.749027
H    0.164001  -1.854095  2.200502
