35
Energy: -21190.4499809 eV PBE+vdW (tier 2 basis)
C    -1.607835  0.552026  -0.500810
C    -1.091213  0.619872  0.919685
O    0.087079  0.895028  1.174922
H    -1.536588  1.554406  -0.942554
H    -2.644325  0.201349  -0.574199
H    -0.957310  -0.110826  -1.083615
N    -2.000981  0.366171  1.898702
C    -1.636679  0.447271  3.300801
C    -2.565678  -0.502493  4.059830
O    -3.753199  -0.598858  3.742908
H    -2.973323  0.152949  1.695312
H    -0.588550  0.128690  3.362392
C    -1.762638  1.898172  3.847458
C    -0.772777  2.276429  4.952390
C    0.707177  2.223281  4.517534
N    1.012962  2.943685  3.284337
C    0.775118  4.302027  3.148603
N    1.098817  5.053012  4.289978
N    0.273272  4.757086  2.049612
H    -2.795258  2.061733  4.187497
H    -1.609810  2.573504  2.994490
H    -1.001215  3.302977  5.274875
H    -0.907618  1.644616  5.845764
H    1.031074  1.186585  4.348736
H    1.331209  2.596272  5.343673
H    0.759191  2.431818  2.435259
H    1.933692  4.746359  4.783097
H    1.100694  6.054032  4.127908
H    0.294622  5.780836  2.029491
N    -2.051201  -1.202066  5.110671
C    -0.661593  -1.340191  5.521307
H    -2.745583  -1.768884  5.587842
H    -0.578533  -2.224330  6.162553
H    -0.299123  -0.473311  6.091862
H    0.000210  -1.493509  4.659330
