35
Energy: -21190.1293516 eV PBE+vdW (tier 2 basis)
C    0.097413  -0.012112  0.482059
C    -0.107092  0.289224  1.955361
O    0.841191  0.523029  2.700956
H    1.129289  0.246863  0.230720
H    -0.585848  0.544216  -0.171511
H    -0.053154  -1.084229  0.294052
N    -1.387972  0.279169  2.453578
C    -2.667556  0.020047  1.794655
C    -2.650224  -1.364489  1.089458
O    -2.374153  -2.375929  1.725939
H    -1.407177  0.397131  3.461354
H    -3.375674  -0.144379  2.621150
C    -3.193331  1.236485  1.002487
C    -4.711887  1.249500  0.799952
C    -5.225711  2.482654  0.039784
N    -4.946232  3.769287  0.661535
C    -5.639832  4.172587  1.789596
N    -5.143287  5.376425  2.313384
N    -6.599541  3.453500  2.263052
H    -2.664522  1.341105  0.037690
H    -2.902213  2.122725  1.585302
H    -5.213926  1.216799  1.777766
H    -5.047798  0.355454  0.251081
H    -6.315345  2.404654  -0.063243
H    -4.796475  2.513644  -0.974036
H    -3.991602  4.105277  0.601282
H    -5.721287  5.770398  3.047901
H    -4.890999  6.075152  1.618625
H    -7.090944  3.940397  3.015892
N    -2.968907  -1.380343  -0.235845
C    -2.982675  -2.600993  -1.018622
H    -3.131538  -0.499114  -0.705603
H    -2.144871  -2.633655  -1.730952
H    -3.925079  -2.698294  -1.573816
H    -2.883484  -3.440638  -0.322799
