35
Energy: -21190.3659011 eV PBE+vdW (tier 2 basis)
C    -0.963932  0.924403  -0.581098
C    -0.413518  0.798213  0.824895
O    0.689954  1.262825  1.128819
H    -0.935427  -0.051543  -1.083958
H    -0.318819  1.617070  -1.127842
H    -1.995412  1.301623  -0.603718
N    -1.157532  0.129014  1.757640
C    -2.502580  -0.406144  1.662013
C    -3.317893  0.173985  2.832745
O    -2.786443  0.372915  3.924608
H    -0.793094  0.186089  2.707849
H    -2.929419  -0.104047  0.698444
C    -2.549647  -1.952157  1.771150
C    -1.875870  -2.701158  0.605781
C    -0.723069  -3.634260  1.019081
N    0.382108  -2.975281  1.699173
C    1.167103  -2.056939  1.018236
N    2.083158  -1.366136  1.816478
N    1.049659  -1.926552  -0.262002
H    -3.603033  -2.257209  1.864845
H    -2.085836  -2.215500  2.735363
H    -1.459589  -1.994331  -0.122454
H    -2.621863  -3.302396  0.065396
H    -0.319046  -4.112341  0.117196
H    -1.087607  -4.430521  1.685135
H    0.225101  -2.760942  2.677433
H    2.096200  -0.366876  1.606025
H    2.000919  -1.526393  2.816881
H    1.778268  -1.300195  -0.612382
N    -4.646106  0.399263  2.625138
C    -5.391837  0.253094  1.385118
H    -5.135340  0.744576  3.444932
H    -6.440890  0.495008  1.583963
H    -5.356899  -0.775478  0.998219
H    -5.035125  0.937092  0.600688
