35
Energy: -21190.5920554 eV PBE+vdW (tier 2 basis)
C    0.512310  0.708754  0.203652
C    0.247618  0.674722  1.693371
O    1.096762  1.044698  2.514839
H    1.416158  0.125392  -0.010057
H    0.715648  1.745923  -0.091450
H    -0.317022  0.323368  -0.401711
N    -0.976467  0.216651  2.072877
C    -1.447834  0.208601  3.460206
C    -0.919182  -1.025092  4.253136
O    -1.666572  -1.890647  4.723183
H    -1.608031  -0.132498  1.361500
H    -0.999647  1.094637  3.936508
C    -2.970646  0.323070  3.518721
C    -3.749453  -0.741205  2.715826
C    -5.024144  -1.202238  3.431241
N    -4.684988  -1.869707  4.685684
C    -5.306632  -1.595972  5.893281
N    -6.635638  -1.171874  5.777469
N    -4.778778  -1.687920  7.068520
H    -3.256522  1.329760  3.181894
H    -3.253525  0.256021  4.577864
H    -3.122109  -1.630392  2.546164
H    -4.029890  -0.356301  1.723160
H    -5.586089  -1.875448  2.759837
H    -5.675511  -0.339734  3.641829
H    -3.689074  -2.079233  4.783606
H    -7.070272  -1.132350  6.695029
H    -7.196561  -1.693615  5.109035
H    -3.772805  -1.867609  6.999160
N    0.425160  -1.029247  4.392726
C    1.146136  -2.088304  5.071623
H    0.937191  -0.265607  3.937007
H    0.415757  -2.774107  5.512752
H    1.779040  -1.675896  5.868773
H    1.783612  -2.647603  4.371743
