35
Energy: -21190.0041402 eV PBE+vdW (tier 2 basis)
C    -1.092119  -0.201228  -0.352061
C    -0.557617  -0.434987  1.050794
O    0.634036  -0.318729  1.316680
H    -0.331389  -0.506255  -1.077339
H    -1.269080  0.876370  -0.476539
H    -2.030524  -0.731299  -0.559695
N    -1.523437  -0.801854  1.961785
C    -1.415757  -0.784462  3.415742
C    -1.739333  0.639203  3.945984
O    -1.704430  1.622577  3.213747
H    -2.474326  -0.715025  1.620345
H    -2.218126  -1.453377  3.765717
C    -0.079630  -1.352460  3.965893
C    1.000830  -0.322840  4.308253
C    2.366797  -0.982356  4.477721
N    3.368791  0.010920  4.832249
C    4.642232  -0.267947  5.303906
N    4.864987  -1.607771  5.630821
N    5.578320  0.591805  5.534854
H    0.304209  -2.054630  3.214511
H    -0.305599  -1.952463  4.859892
H    0.749201  0.216252  5.234734
H    1.061963  0.415254  3.497218
H    2.614833  -1.512867  3.536580
H    2.327526  -1.731902  5.283245
H    3.290821  0.898386  4.348444
H    5.840606  -1.747192  5.877072
H    4.533029  -2.291891  4.957275
H    5.247775  1.548799  5.383559
N    -2.098170  0.747565  5.262381
C    -2.138022  -0.278173  6.289926
H    -2.236647  1.711097  5.552313
H    -2.790489  0.062469  7.101751
H    -1.146201  -0.497123  6.716250
H    -2.562678  -1.212389  5.901377
