35
Energy: -21190.3872153 eV PBE+vdW (tier 2 basis)
C    -0.592639  0.407946  -0.412856
C    -0.301606  0.133294  1.048325
O    0.832809  0.213824  1.509840
H    -0.775006  1.483549  -0.547459
H    -1.461327  -0.122738  -0.818877
H    0.302414  0.145259  -0.985554
N    -1.348527  -0.244205  1.877783
C    -2.793621  -0.192575  1.623147
C    -3.255312  -1.322897  0.659329
O    -4.326712  -1.282643  0.047225
H    -1.054781  -0.282306  2.850140
H    -3.258617  -0.468604  2.584953
C    -3.281199  1.225817  1.262891
C    -4.805896  1.464550  1.305915
C    -5.333861  2.094041  0.006828
N    -5.020377  1.284875  -1.165654
C    -4.015032  1.668100  -2.030849
N    -3.640374  0.632812  -2.903454
N    -3.474707  2.841952  -1.976109
H    -2.904333  1.498138  0.270349
H    -2.777997  1.903257  1.966389
H    -5.064528  2.129003  2.143829
H    -5.338236  0.520190  1.484988
H    -4.886529  3.082285  -0.159858
H    -6.424630  2.226253  0.078922
H    -5.036050  0.280992  -0.974432
H    -3.163466  0.955701  -3.738373
H    -4.380700  -0.028854  -3.124111
H    -2.803744  2.973073  -2.736188
N    -2.422196  -2.391624  0.610786
C    -2.687027  -3.564136  -0.197812
H    -1.542503  -2.305211  1.109713
H    -2.588316  -4.478415  0.401881
H    -1.998160  -3.625365  -1.052875
H    -3.712016  -3.489304  -0.575493
