35
Energy: -21190.2840225 eV PBE+vdW (tier 2 basis)
C    0.577284  0.417420  0.438948
C    0.323491  0.180448  1.915137
O    1.240129  0.068495  2.727040
H    1.223449  -0.382988  0.058336
H    1.125443  1.360913  0.324597
H    -0.335877  0.460119  -0.167638
N    -0.995564  0.083536  2.275216
C    -1.427666  -0.048387  3.663320
C    -2.353895  -1.274729  3.828784
O    -3.540266  -1.160565  4.147898
H    -1.703821  0.222934  1.564066
H    -0.498732  -0.230565  4.224616
C    -2.077595  1.228095  4.208909
C    -3.248912  1.782316  3.375573
C    -4.309688  2.468779  4.238046
N    -4.955487  1.499192  5.117640
C    -5.336043  1.781852  6.412653
N    -5.677712  3.128751  6.621487
N    -5.317435  0.847842  7.304992
H    -1.291920  1.991519  4.301025
H    -2.422665  1.005554  5.228585
H    -3.745002  0.971084  2.821437
H    -2.884117  2.503658  2.629829
H    -5.046689  2.954289  3.572684
H    -3.846557  3.268795  4.839319
H    -4.662906  0.528354  4.996506
H    -6.120775  3.296300  7.518031
H    -6.182977  3.574628  5.859759
H    -5.750786  1.162525  8.177004
N    -1.806552  -2.503521  3.612441
C    -0.449286  -2.853987  3.228638
H    -2.482180  -3.255935  3.709987
H    -0.191192  -3.822253  3.673867
H    0.271299  -2.112850  3.591346
H    -0.333547  -2.929356  2.136054
