35
Energy: -21189.8703285 eV PBE+vdW (tier 2 basis)
C    -0.019144  0.003731  -0.311627
C    0.056007  -0.511715  1.110994
O    1.114924  -0.897987  1.597922
H    0.973133  -0.112495  -0.755319
H    -0.291003  1.068459  -0.328785
H    -0.753615  -0.563873  -0.894540
N    -1.077735  -0.493628  1.904393
C    -2.494602  -0.331050  1.603061
C    -3.056542  -1.527299  0.794188
O    -2.351570  -2.205194  0.053583
H    -0.877368  -0.930248  2.799680
H    -2.972292  -0.357926  2.591832
C    -2.872266  1.045180  0.963663
C    -3.338122  1.036658  -0.497877
C    -3.197617  2.418735  -1.154119
N    -3.652035  2.498342  -2.534655
C    -3.119221  1.716834  -3.557737
N    -1.735112  1.570639  -3.534643
N    -3.918767  1.284154  -4.472856
H    -1.989411  1.691137  1.072364
H    -3.650458  1.512838  1.584034
H    -4.389177  0.718104  -0.570412
H    -2.766230  0.305290  -1.084596
H    -2.147703  2.753505  -1.089956
H    -3.766331  3.170184  -0.586477
H    -4.660593  2.546151  -2.652283
H    -1.377942  0.756844  -4.019088
H    -1.242596  1.771548  -2.671958
H    -3.405127  0.850513  -5.244310
N    -4.389743  -1.795324  0.946090
C    -5.383447  -1.068871  1.716993
H    -4.714903  -2.539899  0.336434
H    -5.017251  -0.835106  2.725138
H    -6.269054  -1.702890  1.832241
H    -5.698672  -0.129681  1.234724
