35
Energy: -21190.2046654 eV PBE+vdW (tier 2 basis)
C    -0.233705  1.437301  0.646506
C    -0.268150  0.839737  2.036695
O    0.740064  0.453906  2.628001
H    -0.271126  0.604094  -0.072293
H    0.712297  1.971065  0.511437
H    -1.071434  2.118161  0.445734
N    -1.518413  0.737752  2.590465
C    -1.795948  0.063155  3.858100
C    -0.988190  0.652647  5.046954
O    -0.410828  -0.074702  5.848032
H    -2.304760  1.037318  2.028353
H    -2.860006  0.263253  4.074152
C    -1.564659  -1.450049  3.774723
C    -2.445740  -2.177420  2.751649
C    -1.813172  -3.483702  2.219804
N    -0.989874  -3.342200  1.016263
C    0.155226  -2.553031  0.937797
N    1.093788  -2.722124  1.948330
N    0.306314  -1.795675  -0.100511
H    -1.704534  -1.876487  4.776018
H    -0.504008  -1.584905  3.538513
H    -2.645376  -1.533257  1.880487
H    -3.425418  -2.405913  3.201075
H    -2.600730  -4.203856  1.959900
H    -1.226399  -3.969280  3.015836
H    -1.536674  -3.187518  0.172295
H    1.555970  -1.861391  2.230559
H    0.818866  -3.295960  2.738106
H    1.259697  -1.421449  -0.123341
N    -0.996466  2.010623  5.215140
C    -1.671908  3.048094  4.458164
H    -0.415904  2.301495  5.995061
H    -2.684314  2.738326  4.168064
H    -1.124643  3.341407  3.549578
H    -1.775560  3.931795  5.099255
