35
Energy: -21190.1642514 eV PBE+vdW (tier 2 basis)
C    -0.976298  0.058995  0.322664
C    -0.508508  0.011320  1.769261
O    0.668520  -0.204603  2.051810
H    -0.813359  -0.928604  -0.127413
H    -0.349542  0.773688  -0.223975
H    -2.030474  0.334962  0.195453
N    -1.500168  0.229702  2.690562
C    -1.469755  0.169126  4.157867
C    -1.552090  1.553888  4.850403
O    -2.468460  1.747366  5.656004
H    -2.417320  0.422800  2.305923
H    -2.440760  -0.261829  4.436237
C    -0.378473  -0.738559  4.760938
C    -0.434676  -0.821213  6.292584
C    -1.729669  -1.418563  6.868507
N    -1.731530  -1.557375  8.313872
C    -1.989446  -0.471119  9.152583
N    -1.730362  -0.789443  10.496926
N    -2.407615  0.704851  8.852287
H    0.616030  -0.403339  4.451531
H    -0.504077  -1.741258  4.322354
H    -0.271279  0.173147  6.735065
H    0.413126  -1.441850  6.622637
H    -1.905767  -2.414537  6.431000
H    -2.596681  -0.799641  6.599922
H    -1.038442  -2.201370  8.684907
H    -2.102899  -1.690124  10.788889
H    -2.059115  -0.038574  11.098072
H    -2.448425  0.884694  7.845089
N    -0.623788  2.516187  4.608261
C    0.502151  2.537688  3.689819
H    -0.817329  3.366499  5.130972
H    0.254854  3.064263  2.754556
H    0.827030  1.526211  3.428315
H    1.345371  3.054238  4.165384
