35
Energy: -21190.5503983 eV PBE+vdW (tier 2 basis)
C    -0.484003  0.661589  0.323512
C    -0.587571  0.323716  1.787293
O    0.372766  -0.085152  2.442199
H    0.096607  1.599032  0.267462
H    -1.455862  0.798688  -0.167795
H    0.084202  -0.121751  -0.189926
N    -1.817033  0.538311  2.373466
C    -1.990706  0.500026  3.819191
C    -2.866532  -0.669298  4.321207
O    -3.233657  -0.720256  5.493350
H    -2.520883  1.018297  1.821656
H    -0.984603  0.281917  4.213863
C    -2.502474  1.828989  4.393235
C    -1.625749  3.055081  4.111726
C    -0.154633  2.956335  4.594036
N    0.838586  2.805117  3.530172
C    1.002685  3.768616  2.552212
N    0.903975  5.082782  3.021045
N    1.197161  3.415832  1.321685
H    -2.619556  1.675897  5.474680
H    -3.520103  2.016900  4.010154
H    -2.106256  3.922000  4.587335
H    -1.613665  3.281322  3.034568
H    -0.022428  2.100476  5.270392
H    0.092572  3.841823  5.195162
H    0.915271  1.863670  3.142613
H    1.279579  5.247083  3.951028
H    1.205357  5.782876  2.352979
H    1.462966  4.220105  0.746562
N    -3.162257  -1.616275  3.390794
C    -3.881832  -2.831535  3.713791
H    -2.754540  -1.497248  2.470119
H    -4.245911  -2.737297  4.742621
H    -3.229609  -3.714631  3.649444
H    -4.737866  -2.973037  3.040168
