35
Energy: -21190.2538578 eV PBE+vdW (tier 2 basis)
C    0.749392  -0.068873  0.012325
C    0.691514  -1.109551  1.119613
O    1.687480  -1.740916  1.461785
H    -0.043113  -0.190091  -0.737958
H    1.723853  -0.154700  -0.475364
H    0.658210  0.943622  0.432789
N    -0.523046  -1.337056  1.722792
C    -1.755824  -0.581615  1.572150
C    -2.130146  -0.014970  2.956983
O    -1.826290  -0.620472  3.982558
H    -0.461351  -1.850928  2.603275
H    -1.580987  0.236055  0.861734
C    -2.934213  -1.450461  1.070055
C    -2.903629  -1.863940  -0.406378
C    -1.788447  -2.845214  -0.841246
N    -1.543708  -3.967983  0.038685
C    -2.421730  -5.030763  0.173137
N    -2.067433  -5.886921  1.220927
N    -3.478132  -5.290197  -0.521333
H    -3.870178  -0.898314  1.246419
H    -2.995359  -2.341786  1.712877
H    -2.835482  -0.969518  -1.048496
H    -3.880243  -2.319084  -0.627866
H    -0.832930  -2.319201  -0.951188
H    -2.033177  -3.230839  -1.843190
H    -0.961480  -3.764550  0.844738
H    -2.624248  -6.736067  1.193683
H    -1.072882  -6.083257  1.296898
H    -3.694313  -4.536992  -1.177157
N    -2.845621  1.145670  2.987228
C    -3.223603  1.991679  1.866578
H    -3.099558  1.443881  3.923757
H    -3.777919  2.851494  2.256221
H    -3.878115  1.471588  1.152029
H    -2.348352  2.379269  1.324261
