35
Energy: -21189.8368007 eV PBE+vdW (tier 2 basis)
C    -0.108330  -0.144565  0.065578
C    0.001587  0.013432  1.572200
O    1.076285  0.260695  2.115015
H    0.880601  0.041733  -0.360813
H    -0.430889  -1.157774  -0.208710
H    -0.818994  0.572804  -0.367092
N    -1.136270  -0.143199  2.320191
C    -2.527457  -0.316880  1.912819
C    -2.710745  -1.595799  1.047340
O    -2.379179  -2.670478  1.540858
H    -0.991340  -0.004933  3.318852
H    -3.016049  -0.653462  2.837810
C    -3.202320  1.016513  1.531244
C    -4.722849  1.047990  1.743280
C    -5.179783  1.030501  3.218063
N    -4.586661  2.068416  4.046828
C    -3.406819  1.873681  4.762345
N    -2.755815  3.071970  5.061945
N    -2.868059  0.764495  5.141432
H    -2.956883  1.315928  0.505663
H    -2.739725  1.783056  2.168943
H    -5.215575  0.202358  1.235799
H    -5.124089  1.958131  1.268633
H    -4.965296  0.060280  3.685991
H    -6.274379  1.134911  3.250982
H    -4.678968  3.004157  3.661150
H    -2.024676  2.927326  5.752372
H    -3.361571  3.851163  5.303113
H    -3.408608  -0.048530  4.841009
N    -3.300682  -1.586663  -0.194698
C    -3.577794  -0.534460  -1.162703
H    -3.360463  -2.538205  -0.546317
H    -4.397071  0.125473  -0.849512
H    -3.886793  -1.018834  -2.095322
H    -2.693968  0.077420  -1.387545
