35
Energy: -21190.4099846 eV PBE+vdW (tier 2 basis)
C    0.515789  -1.362827  0.411951
C    -0.143579  -0.912288  1.702615
O    -0.503985  -1.701527  2.571631
H    0.663294  -0.556064  -0.317143
H    -0.095612  -2.151756  -0.041430
H    1.492320  -1.802668  0.652429
N    -0.314486  0.440720  1.837522
C    -0.802278  1.026256  3.078912
C    -2.304077  0.792151  3.349482
O    -2.686546  0.506875  4.490171
H    0.060100  1.057064  1.125686
H    -0.307485  0.489124  3.894064
C    -0.404249  2.516131  3.128703
C    -0.882163  3.332570  4.339778
C    -0.209311  3.021180  5.687236
N    -0.523608  1.708062  6.222754
C    0.385056  0.670079  6.123811
N    -0.209647  -0.579937  6.325597
N    1.641052  0.905780  5.913335
H    -0.777956  3.009025  2.214576
H    0.695458  2.550175  3.083255
H    -1.976584  3.247787  4.443749
H    -0.688425  4.393647  4.116792
H    -0.514802  3.793041  6.411900
H    0.884177  3.068190  5.597944
H    -1.492547  1.419770  6.108433
H    0.366693  -1.353634  6.011885
H    -1.157371  -0.655494  5.954186
H    2.171887  0.032624  5.891470
N    -3.216330  0.941494  2.348872
C    -3.038446  1.273773  0.944931
H    -4.158434  0.722197  2.658565
H    -4.010699  1.581323  0.542955
H    -2.670520  0.423857  0.352492
H    -2.351237  2.117822  0.812407
