35
Energy: -21189.9999883 eV PBE+vdW (tier 2 basis)
C    0.988477  -0.358107  -0.008531
C    0.541552  0.016878  1.395635
O    1.313992  0.546478  2.192078
H    0.209441  -0.825068  -0.623905
H    1.839519  -1.045804  0.069180
H    1.347451  0.547246  -0.513876
N    -0.770170  -0.264495  1.668933
C    -1.525924  -0.144947  2.922324
C    -2.548012  1.015443  2.997719
O    -3.587739  0.818561  3.630176
H    -1.291197  -0.692095  0.912720
H    -2.192748  -1.017861  2.918185
C    -0.711569  -0.245764  4.236883
C    -0.221994  1.060821  4.859813
C    0.500309  0.813935  6.191674
N    0.866639  2.039159  6.887569
C    0.176110  2.575527  7.956689
N    -1.164514  2.179590  8.036395
N    0.807735  3.336024  8.788580
H    0.133423  -0.926909  4.064804
H    -1.376873  -0.743484  4.958341
H    -1.078302  1.731771  5.036146
H    0.461770  1.579859  4.177158
H    1.419684  0.240444  6.001720
H    -0.125396  0.191659  6.851823
H    1.848508  2.286163  6.920540
H    -1.658504  2.066725  7.155120
H    -1.704244  2.707321  8.712468
H    0.168153  3.763199  9.462411
N    -2.316032  2.213372  2.390728
C    -1.128739  2.745611  1.737225
H    -3.096773  2.850084  2.521790
H    -1.126576  3.834595  1.862871
H    -1.112753  2.523977  0.659146
H    -0.209275  2.358976  2.187988
