35
Energy: -21190.3950867 eV PBE+vdW (tier 2 basis)
C    0.938809  1.299424  -0.254995
C    0.330894  1.380303  1.133638
O    0.531111  2.329830  1.883848
H    0.456233  0.562792  -0.909480
H    2.000334  1.034118  -0.155785
H    0.890366  2.289340  -0.721193
N    -0.475486  0.317421  1.478353
C    -0.984535  0.061571  2.829910
C    -1.706949  1.284838  3.444352
O    -1.730617  1.472348  4.660877
H    -0.510537  -0.460424  0.829297
H    -1.807977  -0.658350  2.686259
C    0.019687  -0.635422  3.775260
C    1.447506  -0.082200  3.864168
C    1.636610  1.125162  4.787538
N    1.442611  0.745327  6.184479
C    1.025267  1.631626  7.173997
N    0.062743  2.544216  6.765900
N    1.565448  1.526991  8.345963
H    0.074117  -1.684522  3.446695
H    -0.428956  -0.645011  4.779134
H    1.832112  0.170238  2.865207
H    2.095265  -0.896634  4.227496
H    0.934422  1.922116  4.526493
H    2.647672  1.543219  4.625683
H    2.188644  0.168830  6.567198
H    -0.606640  2.213184  6.067591
H    -0.367548  3.055107  7.527072
H    1.085515  2.124902  9.024217
N    -2.436059  2.025859  2.572468
C    -3.109797  3.243321  2.985410
H    -2.245373  1.893670  1.586117
H    -2.422522  4.103175  3.001726
H    -3.508698  3.101463  3.995038
H    -3.936039  3.455837  2.297485
