35
Energy: -21190.3559633 eV PBE+vdW (tier 2 basis)
C    0.381668  -0.484385  1.002065
C    0.099731  -0.890661  2.432002
O    0.648761  -1.867055  2.952401
H    1.375071  -0.858088  0.736360
H    0.342385  0.600455  0.840832
H    -0.349815  -0.974654  0.341749
N    -0.784790  -0.132248  3.151013
C    -1.780460  0.800070  2.659373
C    -2.229114  1.643660  3.864146
O    -2.163592  1.199612  5.010076
H    -0.905383  -0.400203  4.127586
H    -1.327874  1.450652  1.897824
C    -3.003052  0.076053  2.019428
C    -3.700932  -0.895134  2.978557
C    -4.436624  -2.063240  2.293736
N    -3.672925  -2.823291  1.303904
C    -2.342610  -3.203845  1.458363
N    -1.979207  -3.691277  2.704130
N    -1.569510  -3.131123  0.423051
H    -2.619176  -0.472468  1.147803
H    -3.715010  0.820752  1.631544
H    -4.420303  -0.363982  3.619548
H    -2.951249  -1.313610  3.663275
H    -5.327720  -1.695440  1.765954
H    -4.819984  -2.738638  3.077511
H    -3.825493  -2.549815  0.338568
H    -1.026721  -3.468046  2.988088
H    -2.656192  -3.623343  3.454795
H    -0.669127  -3.577623  0.618040
N    -2.756429  2.874015  3.602814
C    -2.769292  3.594979  2.339023
H    -3.050937  3.369001  4.438651
H    -3.356856  3.075320  1.569807
H    -3.236306  4.570934  2.506331
H    -1.755882  3.771173  1.948606
