35
Energy: -21190.4851112 eV PBE+vdW (tier 2 basis)
C    0.406503  -0.738896  -0.535644
C    -0.133466  -0.287656  0.807774
O    -0.657652  0.815352  0.972231
H    1.228303  -0.073753  -0.831131
H    -0.385069  -0.630061  -1.286721
H    0.763440  -1.776201  -0.536063
N    0.021428  -1.193096  1.819538
C    -0.479996  -0.953514  3.163437
C    0.666998  -1.217750  4.155589
O    0.723775  -2.224994  4.871114
H    0.463635  -2.102709  1.643682
H    -0.718031  0.119893  3.187691
C    -1.797356  -1.711211  3.484923
C    -2.004457  -3.069004  2.798710
C    -1.224752  -4.256227  3.410404
N    -0.718775  -5.224974  2.439025
C    0.349147  -4.979571  1.593211
N    1.232173  -3.974685  2.031979
N    0.609823  -5.558324  0.470317
H    -2.615195  -1.049259  3.167235
H    -1.880401  -1.812905  4.576827
H    -1.731098  -2.974922  1.737425
H    -3.080486  -3.297351  2.804766
H    -1.863542  -4.808563  4.112883
H    -0.392311  -3.878166  4.015569
H    -1.415113  -5.836490  2.026447
H    2.117201  -4.072266  1.540114
H    1.359994  -3.913235  3.041566
H    -0.139370  -6.199166  0.195740
N    1.652818  -0.277732  4.210458
C    1.853843  0.893975  3.372423
H    2.408498  -0.541046  4.836766
H    2.399120  1.652958  3.945753
H    0.898887  1.326914  3.056455
H    2.428469  0.657388  2.463512
