35
Energy: -21190.2253322 eV PBE+vdW (tier 2 basis)
C    -0.016989  -0.231756  0.124212
C    0.048765  -0.118890  1.638452
O    1.112219  -0.174996  2.250248
H    -0.443209  0.670999  -0.335786
H    -0.628472  -1.088487  -0.191423
H    1.003381  -0.367317  -0.243102
N    -1.137992  0.065606  2.306204
C    -2.494379  0.023107  1.760935
C    -3.312190  1.088185  2.525868
O    -4.018141  0.795273  3.488182
H    -1.046372  0.041186  3.319623
H    -2.431004  0.320189  0.704434
C    -3.132595  -1.366010  1.847757
C    -4.469423  -1.459692  1.109537
C    -5.065259  -2.873559  1.069976
N    -4.286248  -3.839413  0.307998
C    -3.408134  -4.716344  0.917281
N    -2.664256  -5.451520  -0.024959
N    -3.306177  -4.777422  2.200240
H    -3.269747  -1.637253  2.903089
H    -2.415857  -2.087911  1.430745
H    -4.352644  -1.089761  0.073712
H    -5.205752  -0.798057  1.590989
H    -6.078126  -2.826763  0.641044
H    -5.149121  -3.279046  2.085896
H    -4.045006  -3.576426  -0.641483
H    -2.132569  -6.209635  0.389901
H    -3.201213  -5.774656  -0.826828
H    -2.697256  -5.545958  2.488178
N    -3.185488  2.380927  2.099564
C    -2.292867  2.901651  1.076869
H    -3.675849  3.046654  2.688641
H    -2.462778  3.979654  0.987331
H    -2.496518  2.455999  0.092523
H    -1.233556  2.740087  1.325311
