35
Energy: -21190.1190808 eV PBE+vdW (tier 2 basis)
C    -0.566883  0.039563  -1.042997
C    0.142340  0.130739  0.300507
O    1.361119  0.260443  0.374832
H    -1.170607  -0.872283  -1.139421
H    0.200386  0.044307  -1.821424
H    -1.232044  0.900944  -1.202342
N    -0.627941  0.056056  1.434016
C    -2.072901  0.032836  1.546695
C    -2.490101  1.135331  2.539711
O    -1.756841  1.446967  3.474734
H    -0.134683  0.262108  2.302720
H    -2.503468  0.230283  0.556383
C    -2.605018  -1.321986  2.073681
C    -2.309854  -2.497140  1.141609
C    -2.769968  -3.849414  1.693248
N    -2.048153  -4.192316  2.902366
C    -2.359801  -5.232172  3.759902
N    -3.672881  -5.709782  3.656742
N    -1.472746  -5.602674  4.620278
H    -3.692356  -1.243602  2.236723
H    -2.160796  -1.501092  3.063544
H    -1.228846  -2.542058  0.933161
H    -2.805607  -2.343430  0.169928
H    -2.653106  -4.613589  0.897992
H    -3.844650  -3.786183  1.929647
H    -1.053726  -3.986770  2.919804
H    -3.818783  -6.583172  4.150042
H    -4.081601  -5.728115  2.727288
H    -1.822849  -6.348031  5.225668
N    -3.718317  1.703986  2.365111
C    -4.657444  1.489619  1.276453
H    -3.950750  2.393164  3.073304
H    -5.534687  2.121433  1.449391
H    -5.005952  0.447711  1.224601
H    -4.234638  1.768508  0.299669
