35
Energy: -21190.375576 eV PBE+vdW (tier 2 basis)
C    0.824655  1.051524  0.939836
C    0.174567  2.368981  1.332071
O    0.828729  3.398554  1.470489
H    0.456525  0.699745  -0.035088
H    0.633575  0.257121  1.674142
H    1.902407  1.218373  0.868321
N    -1.185735  2.369772  1.511790
C    -2.116819  1.269008  1.373564
C    -3.463302  1.879189  0.948039
O    -3.770802  3.035616  1.255299
H    -1.610151  3.278330  1.695086
H    -1.768680  0.594236  0.576030
C    -2.269217  0.430645  2.677506
C    -2.923291  1.172687  3.853554
C    -4.444073  0.954685  3.944637
N    -5.096753  1.854275  4.876851
C    -6.115117  2.736602  4.554012
N    -6.151932  3.131951  3.215363
N    -6.939419  3.080061  5.488411
H    -1.258316  0.101227  2.953421
H    -2.832537  -0.489564  2.446147
H    -2.722842  2.251302  3.784232
H    -2.463709  0.845749  4.797348
H    -4.642205  -0.093282  4.231536
H    -4.913680  1.086021  2.962376
H    -5.176359  1.552499  5.841893
H    -6.782124  3.907675  3.047372
H    -5.264373  3.244956  2.722082
H    -7.567787  3.823198  5.174392
N    -4.296006  1.058715  0.265502
C    -5.646790  1.457464  -0.107095
H    -3.986528  0.118492  0.052674
H    -6.291392  1.563156  0.777095
H    -6.066839  0.697982  -0.773754
H    -5.622938  2.421384  -0.629908
