35
Energy: -21190.2173007 eV PBE+vdW (tier 2 basis)
C    0.231168  -0.132512  0.061285
C    0.121453  -0.251088  1.567458
O    1.082369  -0.582386  2.263806
H    0.989015  0.624023  -0.178306
H    -0.709429  0.138269  -0.434127
H    0.585540  -1.089771  -0.339962
N    -1.105101  0.045794  2.094288
C    -1.409391  -0.113247  3.515415
C    -2.679642  -0.953910  3.751764
O    -2.619624  -1.969017  4.438228
H    -1.853748  0.244493  1.443142
H    -0.606979  -0.749138  3.907126
C    -1.422277  1.211145  4.312259
C    -0.074182  1.940491  4.359493
C    1.006883  1.220716  5.186363
N    2.249443  1.957338  5.329795
C    3.170535  2.164997  4.308688
N    3.290820  1.138626  3.385949
N    3.891203  3.239931  4.365928
H    -1.748795  0.968548  5.336959
H    -2.182563  1.891040  3.901909
H    0.299678  2.114939  3.338749
H    -0.236082  2.938745  4.794892
H    1.223810  0.231847  4.759583
H    0.621704  1.027918  6.199829
H    2.209504  2.783847  5.919200
H    3.803107  1.382112  2.548496
H    2.516480  0.500359  3.209353
H    4.611455  3.238401  3.639433
N    -3.869655  -0.578973  3.172641
C    -4.287301  0.692060  2.602552
H    -4.617338  -1.217771  3.432570
H    -4.989691  0.513963  1.777778
H    -3.438353  1.252098  2.199366
H    -4.780060  1.339818  3.345211
