35
Energy: -21190.5885213 eV PBE+vdW (tier 2 basis)
C    -1.880349  -0.744036  -1.898461
C    -1.245832  -1.382158  -0.682089
O    -0.457711  -2.320048  -0.748358
H    -1.513214  -1.265224  -2.786008
H    -1.616444  0.321126  -1.970881
H    -2.979251  -0.794561  -1.871213
N    -1.567542  -0.835299  0.550347
C    -2.608386  0.147117  0.830414
C    -2.141208  1.607165  0.651774
O    -2.958759  2.528110  0.524781
H    -1.199012  -1.373124  1.331502
H    -3.421626  0.016440  0.104695
C    -3.149701  -0.113772  2.255835
C    -4.243487  0.814564  2.802775
C    -5.618718  0.717779  2.125193
N    -5.628836  1.224897  0.751982
C    -5.792095  0.420616  -0.361872
N    -6.568274  -0.724792  -0.165276
N    -5.273828  0.623628  -1.532183
H    -2.291411  -0.077256  2.948180
H    -3.518219  -1.151979  2.266006
H    -3.901300  1.859747  2.784249
H    -4.385891  0.562111  3.865249
H    -6.344142  1.280750  2.735781
H    -5.950737  -0.329496  2.113940
H    -4.931441  1.957265  0.593702
H    -6.771680  -1.166636  -1.057259
H    -7.405358  -0.588273  0.394523
H    -4.642630  1.430298  -1.509483
N    -0.800796  1.792800  0.658823
C    -0.175438  3.088719  0.484704
H    -0.232629  0.951068  0.685453
H    0.491941  3.318276  1.326215
H    -0.969816  3.841181  0.440742
H    0.404726  3.127780  -0.447896
