35
Energy: -21190.4713674 eV PBE+vdW (tier 2 basis)
C    -1.759880  1.225045  -0.835270
C    -1.157943  0.256920  0.157747
O    -0.080395  -0.305639  -0.024375
H    -1.002112  1.444769  -1.591915
H    -2.087705  2.160963  -0.362549
H    -2.632835  0.760735  -1.325556
N    -1.878865  0.004835  1.309339
C    -3.223709  0.445185  1.658494
C    -3.248988  1.552086  2.745713
O    -4.314893  1.945372  3.215995
H    -1.473877  -0.741405  1.870861
H    -3.661147  0.922875  0.769529
C    -4.143892  -0.723612  2.060177
C    -4.826404  -1.435425  0.887466
C    -3.899263  -2.231023  -0.039467
N    -4.608885  -2.732485  -1.214325
C    -4.761753  -1.920752  -2.322192
N    -5.325017  -2.601925  -3.410819
N    -4.376237  -0.687973  -2.297976
H    -4.919952  -0.302199  2.712284
H    -3.569343  -1.436517  2.677645
H    -5.354824  -0.685298  0.281139
H    -5.595372  -2.118166  1.280388
H    -3.486263  -3.099236  0.493843
H    -3.052260  -1.617066  -0.370517
H    -4.488333  -3.716144  -1.423520
H    -5.610148  -1.995324  -4.171919
H    -6.053870  -3.267963  -3.167732
H    -4.641255  -0.204173  -3.158701
N    -2.033297  2.052475  3.088826
C    -1.867691  3.129467  4.043005
H    -1.225460  1.648381  2.626241
H    -2.861705  3.394376  4.419793
H    -1.417161  4.014468  3.571766
H    -1.235664  2.818557  4.886397
