35
Energy: -21190.2455022 eV PBE+vdW (tier 2 basis)
C    0.107067  -0.228276  0.206079
C    0.043035  0.194958  1.664395
O    1.063986  0.412528  2.313939
H    1.089932  0.051524  -0.182957
H    -0.675933  0.226263  -0.415779
H    0.004634  -1.319715  0.127492
N    -1.194408  0.315415  2.237876
C    -2.503542  0.100806  1.657087
C    -3.498050  0.873537  2.545830
O    -3.194646  1.223834  3.688005
H    -1.212758  0.642483  3.204680
H    -2.536510  0.549409  0.650338
C    -2.880811  -1.402105  1.502553
C    -2.723068  -2.285360  2.743639
C    -3.793798  -2.074532  3.823701
N    -3.779455  -3.138756  4.820392
C    -4.486477  -4.305876  4.603176
N    -4.479815  -5.151761  5.724869
N    -5.090377  -4.509323  3.480977
H    -2.243439  -1.805790  0.703258
H    -3.911635  -1.482776  1.125512
H    -1.722671  -2.150790  3.180900
H    -2.790610  -3.331034  2.413737
H    -4.788069  -2.038114  3.348513
H    -3.632432  -1.128448  4.353266
H    -3.719155  -2.845058  5.787540
H    -4.825053  -6.085535  5.530578
H    -3.597157  -5.179271  6.229780
H    -5.494577  -5.447626  3.444792
N    -4.730462  1.147225  2.034261
C    -5.280630  0.834844  0.726894
H    -5.340977  1.602727  2.706113
H    -4.499211  0.852606  -0.041564
H    -6.021249  1.598222  0.460818
H    -5.771557  -0.150018  0.699642
