35
Energy: -21190.312254 eV PBE+vdW (tier 2 basis)
C    0.011915  -0.180191  0.259094
C    0.166962  0.011219  1.754109
O    1.269369  0.129964  2.279909
H    0.916091  -0.672048  -0.112103
H    -0.054266  0.805860  -0.222005
H    -0.871647  -0.760007  -0.030449
N    -0.974148  0.038340  2.537059
C    -2.383769  0.102543  2.142328
C    -2.933403  -1.219024  1.542846
O    -3.948853  -1.226836  0.851898
H    -0.755243  0.267188  3.502888
H    -2.929173  0.198097  3.095123
C    -2.771105  1.308088  1.263468
C    -2.298531  2.659933  1.803905
C    -2.914943  3.041968  3.149480
N    -2.446317  4.346256  3.577482
C    -2.778309  4.852979  4.829815
N    -2.328023  6.165158  5.005018
N    -3.423177  4.266950  5.778827
H    -3.864016  1.289909  1.158107
H    -2.379201  1.165470  0.247918
H    -2.558960  3.431485  1.061234
H    -1.201701  2.678430  1.896689
H    -2.620186  2.315853  3.924190
H    -4.020122  2.997257  3.077303
H    -2.387748  5.046900  2.843699
H    -2.474033  6.470114  5.963074
H    -1.376013  6.332527  4.690052
H    -3.825077  3.379034  5.470158
N    -2.242373  -2.335856  1.895667
C    -2.632604  -3.666792  1.475054
H    -1.399369  -2.204408  2.444210
H    -2.818270  -4.316370  2.341428
H    -1.859069  -4.129028  0.845643
H    -3.556292  -3.574414  0.893857
