35
Energy: -21190.4857302 eV PBE+vdW (tier 2 basis)
C    -0.325482  -0.210182  0.145413
C    -0.533235  0.334131  1.546239
O    0.184814  1.238956  1.988211
H    -1.076920  -0.944377  -0.169320
H    0.666166  -0.678794  0.100718
H    -0.321520  0.628177  -0.561098
N    -1.560903  -0.231021  2.240554
C    -1.956932  -0.101547  3.656919
C    -2.203589  1.302466  4.251669
O    -2.783497  1.343398  5.346417
H    -2.071033  -0.948536  1.739262
H    -2.978056  -0.512309  3.674162
C    -1.141463  -1.024643  4.591895
C    0.371560  -0.801406  4.745368
C    0.802461  0.211910  5.810564
N    0.595450  1.604068  5.421445
C    0.319726  2.604019  6.347971
N    -0.659192  2.250804  7.277196
N    0.956555  3.727109  6.254899
H    -1.304193  -2.048651  4.221557
H    -1.629091  -0.974689  5.576930
H    0.831049  -0.542277  3.780257
H    0.814611  -1.766917  5.036177
H    1.868753  0.036843  6.048023
H    0.244485  0.037361  6.739072
H    1.260721  1.948390  4.733342
H    -0.917925  3.016863  7.889647
H    -1.481120  1.808954  6.850696
H    0.544284  4.430160  6.875454
N    -1.860015  2.379189  3.520868
C    -2.025095  3.730242  4.030702
H    -1.114571  2.215395  2.833900
H    -1.088475  4.105715  4.469091
H    -2.333034  4.398339  3.216503
H    -2.798863  3.720999  4.804819
