35
Energy: -21190.2198427 eV PBE+vdW (tier 2 basis)
C    -0.984061  0.040525  -0.007836
C    -0.540791  0.133241  1.442792
O    0.615677  -0.091605  1.787023
H    -0.120233  -0.272130  -0.599814
H    -1.341955  1.008092  -0.387351
H    -1.793956  -0.690065  -0.141177
N    -1.490575  0.498526  2.367939
C    -2.925611  0.681894  2.162346
C    -3.359291  1.865450  3.058166
O    -3.866675  1.684432  4.163177
H    -1.158760  0.469990  3.329745
H    -3.072813  0.962247  1.109798
C    -3.740472  -0.580399  2.460875
C    -5.209194  -0.464085  2.045792
C    -6.012286  -1.744455  2.277416
N    -5.530537  -2.832611  1.440883
C    -5.979785  -4.137685  1.628971
N    -5.509075  -5.002586  0.633511
N    -6.739964  -4.594601  2.561835
H    -3.677717  -0.790672  3.538507
H    -3.265437  -1.422827  1.938118
H    -5.280148  -0.178820  0.980237
H    -5.691829  0.344227  2.613428
H    -7.086896  -1.540958  2.109747
H    -5.905548  -2.052403  3.328848
H    -5.398680  -2.587583  0.462687
H    -5.749193  -5.964777  0.855353
H    -4.520888  -4.897840  0.418027
H    -7.130568  -3.843576  3.134880
N    -3.120143  3.120160  2.575715
C    -2.419709  3.492005  1.356749
H    -3.349311  3.855142  3.237606
H    -2.432208  4.583418  1.271593
H    -2.916230  3.088939  0.462421
H    -1.371426  3.159292  1.359988
