35
Energy: -21190.2379049 eV PBE+vdW (tier 2 basis)
C    -0.921448  -1.879556  -0.059334
C    -0.427401  -1.705643  1.365175
O    0.537285  -2.318693  1.811990
H    -0.152419  -1.501555  -0.745330
H    -1.866181  -1.362720  -0.269682
H    -1.042133  -2.949922  -0.263508
N    -1.137083  -0.821287  2.134623
C    -0.726929  -0.457589  3.484144
C    -0.544793  -1.637162  4.459759
O    0.380498  -1.584140  5.275955
H    -1.906705  -0.311395  1.716707
H    0.284352  -0.024544  3.447980
C    -1.697214  0.611999  4.028119
C    -1.332781  1.194984  5.403081
C    -1.936223  0.426435  6.597235
N    -1.543051  0.916297  7.901360
C    -0.272603  0.770547  8.451868
N    0.436576  -0.350552  8.046335
N    0.082975  1.629608  9.352548
H    -2.722368  0.203023  4.055693
H    -1.710428  1.424046  3.284123
H    -1.688428  2.234675  5.454144
H    -0.239401  1.239754  5.512824
H    -1.695582  -0.643352  6.535614
H    -3.034836  0.482911  6.541834
H    -1.945358  1.801139  8.194988
H    0.295712  -0.742146  7.113945
H    1.414065  -0.334667  8.309489
H    0.991088  1.386240  9.755050
N    -1.436981  -2.664388  4.497266
C    -2.579540  -2.962976  3.650336
H    -1.162470  -3.375084  5.169280
H    -3.219052  -3.677534  4.181358
H    -2.285984  -3.409004  2.688283
H    -3.179256  -2.067856  3.454222
