35
Energy: -21190.468945 eV PBE+vdW (tier 2 basis)
C    0.817832  0.499613  0.523102
C    0.289470  -0.532491  1.502204
O    1.021878  -1.332801  2.077175
H    1.290851  -0.024541  -0.316946
H    1.596089  1.091000  1.020253
H    0.048213  1.177146  0.132692
N    -1.066973  -0.506136  1.709836
C    -1.732184  -1.526388  2.526183
C    -3.197174  -1.637996  2.073713
O    -3.660235  -2.689812  1.625661
H    -1.640265  0.081476  1.115925
H    -1.266291  -2.494818  2.296282
C    -1.566821  -1.239812  4.038085
C    -1.728149  -2.455122  4.961918
C    -3.048966  -3.226648  4.872374
N    -4.200650  -2.337165  5.012648
C    -5.506859  -2.742912  4.743199
N    -5.632748  -3.649072  3.698101
N    -6.452916  -2.251984  5.477306
H    -2.258557  -0.438690  4.342346
H    -0.550899  -0.847132  4.173371
H    -1.578385  -2.108676  5.997453
H    -0.911391  -3.166363  4.764787
H    -3.049515  -4.021820  5.641163
H    -3.115744  -3.736510  3.904770
H    -4.206371  -1.790181  5.871440
H    -6.590796  -3.804544  3.406824
H    -4.994916  -3.522093  2.907936
H    -7.373629  -2.519646  5.119480
N    -3.921128  -0.487664  2.172695
C    -5.355993  -0.447217  1.937806
H    -3.530867  0.248730  2.751721
H    -5.609129  -1.240099  1.227381
H    -5.637027  0.523148  1.511455
H    -5.918725  -0.611923  2.868872
