35
Energy: -21190.5221525 eV PBE+vdW (tier 2 basis)
C    -0.490035  -1.836037  1.027291
C    -0.639247  -1.039640  2.306625
O    0.221226  -0.233434  2.678003
H    -0.373270  -1.136334  0.190407
H    -1.336507  -2.502025  0.819855
H    0.429389  -2.431702  1.085591
N    -1.782561  -1.259613  3.016358
C    -2.077208  -0.570515  4.274222
C    -1.405882  -1.323030  5.454108
O    -2.032078  -2.065089  6.206710
H    -2.396636  -2.016658  2.736551
H    -1.603848  0.419218  4.185467
C    -3.580529  -0.410130  4.482689
C    -4.246251  0.451545  3.407418
C    -5.741740  0.721746  3.632752
N    -6.055557  1.519208  4.802362
C    -6.461616  1.000676  6.024849
N    -6.629656  2.009266  6.984430
N    -6.678087  -0.223603  6.358984
H    -3.733117  0.031679  5.477026
H    -4.047682  -1.406656  4.536947
H    -4.136517  -0.017546  2.416260
H    -3.720198  1.419102  3.334950
H    -6.296055  -0.224590  3.715610
H    -6.146228  1.233074  2.744767
H    -5.626762  2.437731  4.846446
H    -7.024976  1.619538  7.835708
H    -7.155734  2.817041  6.659911
H    -6.378848  -0.882510  5.637632
N    -0.069308  -1.078801  5.539067
C    0.787392  -1.764827  6.486265
H    0.348575  -0.553688  4.768946
H    1.389570  -2.547191  5.999418
H    0.149711  -2.235256  7.242078
H    1.465272  -1.053951  6.976295
