35
Energy: -21190.2803336 eV PBE+vdW (tier 2 basis)
C    -0.316265  0.476189  1.329307
C    -0.072715  0.221507  2.803681
O    0.812951  0.807180  3.427669
H    0.226356  1.383992  1.052647
H    -1.377914  0.586003  1.079510
H    0.069282  -0.360082  0.729009
N    -0.852237  -0.713530  3.437452
C    -1.979397  -1.513161  2.963206
C    -1.658978  -2.317740  1.683202
O    -2.302625  -2.184485  0.642354
H    -0.624146  -0.838699  4.421448
H    -2.099311  -2.257437  3.763578
C    -3.297803  -0.729610  2.824999
C    -4.560248  -1.583040  3.034406
C    -5.021294  -1.722767  4.494576
N    -4.067568  -2.377628  5.395092
C    -3.082767  -1.720373  6.110304
N    -3.477776  -0.507202  6.662419
N    -1.900741  -2.251835  6.182466
H    -3.333839  -0.281903  1.823747
H    -3.276100  0.091659  3.555743
H    -4.419004  -2.581087  2.588560
H    -5.398045  -1.136637  2.476910
H    -5.963688  -2.290400  4.524788
H    -5.240279  -0.727391  4.902608
H    -3.722725  -3.278201  5.072848
H    -4.428227  -0.454816  7.015650
H    -2.795839  -0.070950  7.271202
H    -1.327071  -1.790024  6.893237
N    -0.632205  -3.213096  1.773719
C    0.216445  -3.516143  2.917006
H    -0.439299  -3.687675  0.897335
H    0.625872  -4.524933  2.788107
H    -0.357609  -3.506556  3.852354
H    1.051323  -2.807383  3.019785
