35
Energy: -21190.1040784 eV PBE+vdW (tier 2 basis)
C    0.503144  -0.930817  0.546230
C    0.144171  -0.200668  1.828912
O    0.987031  0.368001  2.516215
H    -0.361977  -1.207564  -0.069706
H    1.052576  -1.845056  0.810690
H    1.180538  -0.301577  -0.041546
N    -1.179704  -0.259114  2.176489
C    -1.785020  0.324436  3.379846
C    -1.108470  1.635172  3.858704
O    -0.747929  1.781238  5.021309
H    -1.814243  -0.706838  1.525452
H    -2.795565  0.636401  3.060789
C    -2.008997  -0.685536  4.523016
C    -0.813161  -1.281268  5.280668
C    0.128108  -2.225380  4.507270
N    -0.499286  -3.234602  3.664004
C    -1.177386  -4.330450  4.173360
N    -1.850075  -5.048866  3.168499
N    -1.256684  -4.735311  5.393690
H    -2.627700  -1.501776  4.114689
H    -2.641486  -0.173028  5.261828
H    -1.242185  -1.825679  6.135485
H    -0.206572  -0.468937  5.699607
H    0.777040  -2.744253  5.228862
H    0.802043  -1.641306  3.869945
H    -0.867387  -2.891831  2.783306
H    -2.228397  -5.909048  3.557219
H    -1.278252  -5.238396  2.348236
H    -0.837123  -4.064053  6.040547
N    -1.070987  2.683901  2.978223
C    -1.407425  2.724434  1.569123
H    -0.575331  3.482096  3.363046
H    -1.597114  3.766213  1.284494
H    -2.325878  2.159594  1.365842
H    -0.605143  2.330886  0.924245
