35
Energy: -21190.303731 eV PBE+vdW (tier 2 basis)
C    -0.645338  -0.613901  0.812581
C    -0.933883  -0.249902  2.255041
O    -0.068234  -0.316869  3.122930
H    -0.258377  0.274118  0.293110
H    -1.515069  -0.981051  0.256687
H    0.144512  -1.371311  0.808407
N    -2.213821  0.153940  2.589947
C    -3.341775  0.508342  1.722295
C    -3.990379  -0.709602  1.011346
O    -4.651263  -0.569673  -0.014625
H    -2.261711  0.470675  3.554332
H    -4.122529  0.858566  2.418181
C    -3.084788  1.656260  0.734620
C    -2.575384  2.929420  1.407510
C    -2.426438  4.109220  0.434984
N    -3.668892  4.550430  -0.205519
C    -4.750626  5.042850  0.528702
N    -4.385285  5.832922  1.618657
N    -6.001248  4.841809  0.290677
H    -4.040738  1.839267  0.226404
H    -2.385272  1.331634  -0.050420
H    -1.595792  2.749382  1.878393
H    -3.259435  3.229398  2.217932
H    -1.729937  3.847693  -0.375804
H    -1.970663  4.958543  0.961854
H    -3.976436  3.947530  -0.961982
H    -5.198953  6.295488  2.013005
H    -3.613326  6.472628  1.454023
H    -6.133961  4.132659  -0.435806
N    -3.813499  -1.898956  1.646803
C    -4.379708  -3.141584  1.161673
H    -3.212685  -1.900644  2.464088
H    -4.983453  -2.909382  0.277865
H    -5.021999  -3.606011  1.922349
H    -3.593274  -3.855844  0.878938
