35
Energy: -21190.4525231 eV PBE+vdW (tier 2 basis)
C    -0.909027  0.415680  -0.735644
C    -0.798644  0.178154  0.757960
O    0.123947  -0.470782  1.251647
H    -0.008920  0.942829  -1.075874
H    -1.793441  0.995879  -1.025265
H    -0.931139  -0.555381  -1.245349
N    -1.782060  0.754845  1.514402
C    -1.910284  0.501411  2.935572
C    -3.400793  0.257730  3.222405
O    -4.276882  0.766158  2.521760
H    -2.618499  1.133664  1.075203
H    -1.313204  -0.398846  3.152141
C    -1.392078  1.667253  3.809309
C    0.070120  2.027378  3.542240
C    0.608455  3.034443  4.565659
N    1.954492  3.522519  4.269311
C    3.103143  3.009952  4.851854
N    3.042602  1.638690  5.126190
N    4.079023  3.813003  5.113976
H    -1.519579  1.384567  4.867564
H    -2.036070  2.546038  3.642766
H    0.180460  2.448658  2.533164
H    0.675273  1.107969  3.550929
H    0.580248  2.590643  5.574882
H    -0.056746  3.910529  4.588644
H    2.046216  4.525962  4.154827
H    3.930245  1.245186  5.418048
H    2.587592  1.069413  4.417014
H    4.917119  3.300980  5.400654
N    -3.659409  -0.511551  4.313729
C    -5.003134  -0.788256  4.787814
H    -2.873819  -0.924755  4.801975
H    -5.700737  -0.268249  4.123397
H    -5.145118  -0.422653  5.814170
H    -5.219908  -1.864872  4.759174
