35
Energy: -21190.5974364 eV PBE+vdW (tier 2 basis)
C    -0.442065  -3.024990  4.134979
C    -0.336207  -1.639368  3.534022
O    -0.563998  -1.424271  2.339714
H    0.262318  -3.688935  3.618503
H    -1.451708  -3.411668  3.949685
H    -0.239590  -3.055820  5.212453
N    0.013696  -0.640035  4.397462
C    0.173203  0.744746  3.948806
C    1.613263  0.918422  3.404129
O    2.539350  1.340350  4.108862
H    0.314005  -0.878164  5.336215
H    -0.530772  0.859371  3.111962
C    -0.194422  1.724917  5.067448
C    -0.652235  3.122678  4.601620
C    0.434675  4.209421  4.482213
N    1.476695  3.995447  3.497764
C    1.393935  4.262412  2.146155
N    0.236457  4.925607  1.729987
N    2.315490  4.018483  1.270135
H    0.655209  1.814302  5.763039
H    -1.022562  1.263177  5.624321
H    -1.391369  3.500278  5.325487
H    -1.196484  3.024434  3.646984
H    0.929104  4.316353  5.460084
H    -0.046322  5.177077  4.276746
H    2.191774  3.319022  3.754987
H    0.224393  5.004876  0.717525
H    -0.642845  4.582378  2.103904
H    3.165254  3.681217  1.731110
N    1.742259  0.532957  2.117257
C    2.999387  0.554476  1.393577
H    0.927201  0.096874  1.687570
H    3.789977  0.849576  2.091082
H    2.957248  1.282326  0.572101
H    3.228688  -0.440926  0.990111
