35
Energy: -21190.5370659 eV PBE+vdW (tier 2 basis)
C    0.232158  0.510562  -0.039158
C    -0.438162  -0.601025  0.739334
O    -0.177623  -1.792847  0.531055
H    1.316541  0.438924  0.111969
H    -0.102209  1.514732  0.247885
H    0.040615  0.359576  -1.108635
N    -1.337268  -0.211010  1.685035
C    -2.039360  -1.153415  2.557034
C    -3.283067  -1.739616  1.827202
O    -4.435635  -1.410507  2.116197
H    -1.586360  0.769502  1.756543
H    -1.334762  -1.978360  2.746065
C    -2.434783  -0.469152  3.860897
C    -3.045636  -1.434227  4.891615
C    -4.088127  -0.761667  5.786596
N    -5.221494  -0.290964  4.993546
C    -5.864204  0.905508  5.234725
N    -5.874718  1.278401  6.589431
N    -6.352088  1.583570  4.248913
H    -3.164363  0.321124  3.625025
H    -1.546811  0.022559  4.284458
H    -2.257378  -1.865864  5.525271
H    -3.528869  -2.278611  4.378650
H    -3.634194  0.087557  6.323474
H    -4.413464  -1.487255  6.553609
H    -5.195478  -0.526825  3.999483
H    -6.488839  2.060859  6.786485
H    -6.006918  0.516389  7.249965
H    -6.920936  2.365034  4.585488
N    -2.959101  -2.630529  0.858110
C    -3.948123  -3.224631  -0.020406
H    -1.962498  -2.723107  0.641272
H    -3.780412  -4.305765  -0.109518
H    -3.915518  -2.779517  -1.026185
H    -4.939501  -3.045591  0.408425
