35
Energy: -21190.2630584 eV PBE+vdW (tier 2 basis)
C    -1.957294  0.556724  -1.298561
C    -1.010503  0.702095  -0.116935
O    -0.035013  1.450457  -0.160954
H    -2.989986  0.809590  -1.020866
H    -1.958232  -0.465530  -1.704851
H    -1.619158  1.241356  -2.080464
N    -1.278902  -0.040049  1.002335
C    -2.320121  -1.039320  1.187324
C    -3.513614  -0.430222  1.955435
O    -3.374576  0.041178  3.079375
H    -0.665502  0.156430  1.789302
H    -2.648834  -1.354729  0.187739
C    -1.800515  -2.272568  1.957376
C    -0.439631  -2.808994  1.494962
C    -0.333766  -3.108914  -0.007950
N    0.972749  -3.572244  -0.455743
C    2.147250  -2.843436  -0.280400
N    1.986923  -1.463102  -0.261558
N    3.248736  -3.498309  -0.123917
H    -2.572101  -3.055259  1.880343
H    -1.741825  -2.004562  3.022600
H    -0.216717  -3.727330  2.058740
H    0.352016  -2.092818  1.755635
H    -0.608675  -2.215513  -0.590277
H    -1.062618  -3.880839  -0.297807
H    1.165377  -4.557790  -0.301699
H    2.839902  -0.923827  -0.338803
H    1.209483  -1.047726  -0.763435
H    4.057908  -2.872708  -0.115747
N    -4.703584  -0.461632  1.286937
C    -5.937376  0.051775  1.854144
H    -4.723136  -0.867071  0.359199
H    -5.701639  0.440270  2.850501
H    -6.692634  -0.740593  1.947948
H    -6.347807  0.866214  1.241580
