35
Energy: -21190.2607772 eV PBE+vdW (tier 2 basis)
C    -0.731865  2.813411  1.471822
C    -0.751834  2.206789  2.863936
O    -0.683222  2.885664  3.883003
H    0.154449  3.452563  1.379253
H    -1.612162  3.458418  1.357428
H    -0.727786  2.073293  0.661687
N    -0.848496  0.840346  2.909894
C    -0.928797  0.100937  4.163983
C    0.276489  0.331504  5.101190
O    0.073613  0.458462  6.314809
H    -0.905282  0.320709  2.042132
H    -1.773971  0.490838  4.751404
C    -1.174284  -1.386977  3.833748
C    -1.700878  -2.295004  4.954782
C    -0.754209  -2.578584  6.131364
N    0.586127  -2.929745  5.673428
C    1.756795  -2.756980  6.416470
N    1.695939  -1.795539  7.407896
N    2.857545  -3.414496  6.233077
H    -0.255288  -1.827198  3.418736
H    -1.925431  -1.404492  3.027284
H    -1.977358  -3.251027  4.480207
H    -2.636505  -1.883284  5.363525
H    -1.196966  -3.377589  6.753931
H    -0.684293  -1.691003  6.764271
H    0.630142  -3.766321  5.099433
H    1.146797  -0.950885  7.227958
H    2.610881  -1.623889  7.810079
H    2.728238  -4.174407  5.559134
N    1.541675  0.346596  4.608399
C    2.044895  0.096893  3.269100
H    2.233624  0.502998  5.334535
H    3.098267  -0.192929  3.352528
H    1.976752  0.983810  2.622282
H    1.519301  -0.734625  2.785915
