35
Energy: -21190.5328537 eV PBE+vdW (tier 2 basis)
C    0.134387  0.140029  1.413907
C    -0.373567  0.498571  2.799570
O    0.393237  0.935755  3.657136
H    0.200112  1.062497  0.819583
H    -0.488277  -0.574240  0.864916
H    1.149446  -0.257618  1.515842
N    -1.709453  0.316643  3.090521
C    -2.815414  0.100800  2.155528
C    -2.815799  -1.290305  1.482772
O    -3.364041  -1.486551  0.399747
H    -1.998766  0.823260  3.943611
H    -3.700914  0.063167  2.811541
C    -3.045392  1.236874  1.137235
C    -3.031295  2.623541  1.789140
C    -4.182256  2.862349  2.784780
N    -3.839120  3.824292  3.826752
C    -3.191028  3.417530  4.972942
N    -3.046294  4.449018  5.907675
N    -2.812662  2.189608  5.130807
H    -3.999396  1.042610  0.627107
H    -2.279056  1.193443  0.351240
H    -2.082359  2.765212  2.324935
H    -3.057808  3.396685  1.007574
H    -4.477471  1.919337  3.268093
H    -5.067592  3.243863  2.259509
H    -4.452752  4.621799  3.935657
H    -2.415037  4.226153  6.669680
H    -2.842824  5.361769  5.508748
H    -2.260865  2.082386  5.984129
N    -2.224501  -2.266318  2.224919
C    -2.148929  -3.646346  1.794701
H    -1.764612  -1.969173  3.079897
H    -2.634086  -4.316329  2.518468
H    -1.105826  -3.967717  1.661277
H    -2.670177  -3.723695  0.834235
