35
Energy: -21189.9647028 eV PBE+vdW (tier 2 basis)
C    0.245556  0.274360  0.727195
C    -0.222133  0.114957  2.158421
O    0.500370  -0.453200  2.979023
H    0.916477  -0.562294  0.509949
H    0.844462  1.194209  0.661398
H    -0.530382  0.318658  -0.041319
N    -1.418446  0.645714  2.599625
C    -2.637079  1.243592  2.035152
C    -3.863633  0.293937  2.066410
O    -4.903587  0.690278  2.594983
H    -1.505098  0.458320  3.596774
H    -2.939895  2.010430  2.763895
C    -2.550237  1.947011  0.675547
C    -1.651425  3.186587  0.655365
C    -1.549020  3.828234  -0.737206
N    -0.980227  2.946147  -1.761313
C    -1.739029  2.023486  -2.471021
N    -2.953446  2.522628  -2.938095
N    -1.289155  0.819176  -2.613820
H    -3.579576  2.249971  0.430072
H    -2.254074  1.245560  -0.112818
H    -2.041071  3.940244  1.359225
H    -0.640325  2.938911  1.011412
H    -0.927886  4.734032  -0.679879
H    -2.543700  4.147995  -1.074028
H    -0.099428  2.513705  -1.491735
H    -3.449348  1.903981  -3.568937
H    -2.945996  3.488189  -3.253852
H    -1.841324  0.291832  -3.295606
N    -3.795232  -0.949241  1.507955
C    -2.721557  -1.603891  0.774609
H    -4.666378  -1.459126  1.615649
H    -1.874761  -1.870894  1.421051
H    -2.354417  -0.990998  -0.059027
H    -3.122849  -2.528298  0.345614
