35
Energy: -21190.1672755 eV PBE+vdW (tier 2 basis)
C    -2.097218  1.756718  -2.003310
C    -1.479671  1.817150  -0.620428
O    -1.004623  2.850566  -0.150662
H    -1.630118  0.980557  -2.625125
H    -3.170642  1.524569  -1.950419
H    -1.963988  2.731536  -2.478676
N    -1.478613  0.654299  0.109438
C    -2.073063  -0.625216  -0.240916
C    -3.619562  -0.708024  -0.262253
O    -4.141299  -1.558530  -0.982708
H    -1.061196  0.759798  1.029454
H    -1.811273  -0.861107  -1.282343
C    -1.483986  -1.760858  0.618702
C    -1.826549  -1.711519  2.110589
C    -1.196572  -2.849554  2.928701
N    0.255733  -2.822579  2.994644
C    1.039938  -3.604932  2.166265
N    2.408458  -3.329985  2.326050
N    0.508606  -4.441550  1.342420
H    -0.393581  -1.751547  0.477470
H    -1.836940  -2.711434  0.199364
H    -2.918704  -1.771250  2.245802
H    -1.516464  -0.750277  2.559672
H    -1.465585  -3.820526  2.494205
H    -1.594860  -2.815919  3.954538
H    0.683693  -1.960594  3.314650
H    3.011946  -3.993056  1.851638
H    2.704850  -3.178772  3.287485
H    1.219671  -5.017121  0.887069
N    -4.396151  0.132288  0.488337
C    -4.066548  1.158576  1.470441
H    -5.382711  -0.056570  0.338537
H    -3.663576  2.073161  1.015666
H    -3.353402  0.799446  2.221875
H    -4.990831  1.419854  1.998150
