35
Energy: -21190.274672 eV PBE+vdW (tier 2 basis)
C    0.087563  0.005092  -0.060388
C    -0.433409  0.990758  0.963972
O    0.021652  2.128823  1.073310
H    -0.718707  -0.511171  -0.600480
H    0.705580  -0.755308  0.443708
H    0.706350  0.555054  -0.774664
N    -1.432001  0.559730  1.801058
C    -2.085670  -0.732209  1.854853
C    -3.462311  -0.500374  2.497316
O    -3.650553  0.419889  3.294175
H    -1.785133  1.247790  2.465290
H    -2.223782  -1.113860  0.832490
C    -1.308243  -1.811959  2.666649
C    -0.841465  -1.329791  4.053924
C    0.627393  -0.880006  4.119763
N    1.595158  -1.967628  4.190125
C    2.247786  -2.502970  3.105663
N    3.145354  -3.517246  3.482050
N    2.002002  -2.112689  1.897827
H    -0.440125  -2.130086  2.073289
H    -1.957913  -2.693728  2.770338
H    -0.988920  -2.133725  4.791901
H    -1.474753  -0.498296  4.398399
H    0.771407  -0.254070  5.013431
H    0.892159  -0.266381  3.251344
H    1.558509  -2.557171  5.013599
H    3.724100  -3.850072  2.718517
H    3.699234  -3.311267  4.309936
H    2.675666  -2.513404  1.241699
N    -4.453422  -1.388030  2.192522
C    -4.445238  -2.430255  1.178096
H    -5.328114  -1.188989  2.667231
H    -4.277103  -2.027727  0.167947
H    -5.424106  -2.921002  1.183329
H    -3.686961  -3.199883  1.378564
