35
Energy: -21190.1422333 eV PBE+vdW (tier 2 basis)
C    -1.475417  1.016604  4.583979
C    -0.612755  0.286546  3.574435
O    0.280519  -0.491785  3.903214
H    -1.108663  0.773041  5.584040
H    -2.529018  0.712848  4.502345
H    -1.440569  2.105275  4.439057
N    -0.875303  0.523084  2.245837
C    -1.951039  1.315123  1.675616
C    -3.392194  0.752735  1.776303
O    -4.323508  1.555869  1.724845
H    -0.278287  -0.011203  1.621522
H    -2.027833  2.256191  2.238609
C    -1.639325  1.707577  0.219104
C    -1.603315  0.554558  -0.789502
C    -1.277743  1.015644  -2.212087
N    0.071067  1.549495  -2.299695
C    0.496605  2.246945  -3.429798
N    1.861767  2.544777  -3.376388
N    -0.196158  2.612173  -4.451144
H    -0.680833  2.246041  0.209317
H    -2.410374  2.426866  -0.090205
H    -2.579507  0.047060  -0.814069
H    -0.867459  -0.215049  -0.495029
H    -1.977127  1.815664  -2.499535
H    -1.439425  0.178709  -2.917496
H    0.790607  0.953158  -1.898290
H    2.127957  3.152743  -4.145612
H    2.186436  2.895864  -2.479308
H    -1.135170  2.208729  -4.439705
N    -3.636313  -0.584833  1.918621
C    -2.757210  -1.748949  1.912225
H    -4.633672  -0.766489  1.981672
H    -3.389841  -2.639582  1.828041
H    -2.161079  -1.840444  2.829399
H    -2.077170  -1.751131  1.051750
