35
Energy: -21190.1668679 eV PBE+vdW (tier 2 basis)
C    0.292013  -0.017603  0.160295
C    0.115038  -0.453304  1.604978
O    1.069858  -0.701918  2.333997
H    -0.066453  1.011769  0.013640
H    -0.254717  -0.668224  -0.536926
H    1.358420  -0.056721  -0.075533
N    -1.176262  -0.585940  2.062035
C    -2.382635  -0.140758  1.392865
C    -2.524186  1.398265  1.448879
O    -2.071480  2.057439  2.381337
H    -1.225553  -0.721378  3.068378
H    -2.314418  -0.452981  0.341180
C    -3.618943  -0.855221  1.989718
C    -3.996705  -0.495420  3.437200
C    -4.967752  0.692015  3.544958
N    -5.353466  1.018720  4.908615
C    -6.285149  0.248357  5.579884
N    -6.405674  0.615784  6.929735
N    -6.915352  -0.702273  4.976212
H    -3.410402  -1.932067  1.916930
H    -4.485540  -0.670111  1.335902
H    -3.098470  -0.277329  4.037037
H    -4.483854  -1.362707  3.901629
H    -5.890621  0.450974  3.000298
H    -4.532017  1.597271  3.103797
H    -4.623733  1.420289  5.488238
H    -7.199026  0.190988  7.397501
H    -6.357629  1.616290  7.106539
H    -7.648133  -1.094693  5.571355
N    -3.203688  1.990615  0.419864
C    -3.731932  1.373720  -0.786746
H    -3.284567  2.997755  0.517687
H    -4.184227  2.156910  -1.403897
H    -4.513711  0.631900  -0.570036
H    -2.944735  0.891925  -1.385921
