35
Energy: -21190.1759735 eV PBE+vdW (tier 2 basis)
C    -0.147233  -0.672765  0.161222
C    -0.570860  -0.551039  1.611536
O    -0.027399  -1.183332  2.514297
H    -0.915936  -0.343400  -0.549087
H    0.120945  -1.713620  -0.047072
H    0.751471  -0.058210  0.012089
N    -1.600374  0.323583  1.849409
C    -1.959548  0.763927  3.197542
C    -0.669739  1.128240  3.983983
O    0.129404  1.922286  3.497443
H    -1.890393  0.915962  1.081379
H    -2.432530  1.748495  3.060879
C    -3.024986  -0.127782  3.869381
C    -2.750396  -1.629123  3.985367
C    -3.934282  -2.397972  4.592228
N    -5.162602  -2.326146  3.804436
C    -5.598242  -3.302653  2.918543
N    -4.599861  -4.170444  2.478400
N    -6.807653  -3.477733  2.502117
H    -3.950445  -0.007429  3.284895
H    -3.245751  0.297947  4.863461
H    -1.852728  -1.844360  4.585105
H    -2.520588  -2.030911  2.988001
H    -4.156609  -1.998919  5.594200
H    -3.656788  -3.453260  4.728136
H    -5.909355  -1.755772  4.178264
H    -4.951777  -4.772732  1.740584
H    -3.704536  -3.749227  2.249054
H    -7.468418  -2.880123  3.006255
N    -0.550402  0.625359  5.243532
C    0.649407  0.857405  6.028598
H    -1.118420  -0.178445  5.480042
H    0.420602  0.736374  7.093730
H    0.995361  1.879713  5.844987
H    1.461043  0.167598  5.750018
