35
Energy: -21190.1539848 eV PBE+vdW (tier 2 basis)
C    0.057189  0.153233  0.217677
C    -0.016476  0.184482  1.731176
O    0.939702  0.505135  2.432037
H    1.028808  -0.251947  -0.083771
H    -0.004361  1.186346  -0.151232
H    -0.743957  -0.433026  -0.249451
N    -1.231511  -0.163534  2.267105
C    -1.555276  0.059995  3.676172
C    -1.097486  1.485669  4.094555
O    -1.467899  2.453333  3.436927
H    -2.010611  -0.246968  1.626066
H    -2.651730  0.150415  3.708755
C    -1.200980  -1.134049  4.586952
C    0.236010  -1.665554  4.551140
C    0.453818  -2.760560  5.592041
N    1.808392  -3.296793  5.485976
C    2.323110  -4.203413  6.404430
N    1.388219  -5.126352  6.883379
N    3.562779  -4.107212  6.746110
H    -1.876994  -1.958469  4.308319
H    -1.484575  -0.863369  5.617904
H    0.967326  -0.856854  4.705185
H    0.459391  -2.066920  3.552593
H    -0.278119  -3.566768  5.420884
H    0.249425  -2.364549  6.606140
H    2.518048  -2.599462  5.271766
H    1.801166  -5.909539  7.377067
H    0.675453  -5.420261  6.221299
H    3.857113  -4.901186  7.320752
N    -0.391897  1.596266  5.253258
C    0.134008  2.879669  5.685564
H    0.055483  0.762046  5.612046
H    1.060118  3.142991  5.151692
H    0.333052  2.849090  6.762870
H    -0.610888  3.653906  5.475019
