35
Energy: -21190.3129774 eV PBE+vdW (tier 2 basis)
C    -0.080670  -0.289457  -0.113475
C    -0.146399  -0.533707  1.383184
O    0.473153  -1.442690  1.929524
H    0.970168  -0.182408  -0.408022
H    -0.638473  0.595428  -0.444716
H    -0.477967  -1.173081  -0.628831
N    -0.943720  0.333048  2.085110
C    -1.192855  0.166053  3.517865
C    -2.613979  0.676626  3.824138
O    -3.546745  -0.095586  4.021184
H    -1.483863  1.025187  1.579722
H    -1.220987  -0.914339  3.714744
C    -0.055751  0.780097  4.362417
C    -0.123658  0.510323  5.872376
C    -1.225841  1.270236  6.609275
N    -1.074795  1.153765  8.054370
C    -1.867249  1.949802  8.866274
N    -1.765027  1.596042  10.220161
N    -2.610318  2.874331  8.358020
H    0.016736  1.866225  4.175875
H    0.874899  0.347847  3.970151
H    0.843741  0.791206  6.315587
H    -0.236115  -0.574907  6.036844
H    -2.226530  0.927354  6.299940
H    -1.179315  2.342449  6.374810
H    -0.954178  0.204380  8.396812
H    -2.190008  2.265705  10.852298
H    -0.830642  1.332138  10.522797
H    -3.042191  3.441500  9.091599
N    -2.755211  2.039092  3.811520
C    -3.974717  2.684969  4.274274
H    -1.904353  2.590851  3.830314
H    -4.809283  1.999324  4.098112
H    -4.142371  3.614317  3.716883
H    -3.923902  2.908986  5.351636
