35
Energy: -21190.3367886 eV PBE+vdW (tier 2 basis)
C    -0.101421  3.289248  0.761253
C    0.313996  2.066340  1.556664
O    1.454106  1.943237  2.001179
H    0.672553  4.049906  0.893883
H    -1.072449  3.697438  1.066227
H    -0.166078  3.033045  -0.305565
N    -0.613281  1.073114  1.761231
C    -2.004231  0.962471  1.321207
C    -2.112021  1.128766  -0.221455
O    -1.441497  0.408262  -0.960968
H    -0.205934  0.258504  2.208346
H    -2.254807  -0.099931  1.467946
C    -2.969213  1.793662  2.186145
C    -4.431281  1.330496  2.121992
C    -5.409631  2.377842  2.710352
N    -6.434890  2.871987  1.801314
C    -6.137428  3.707813  0.753760
N    -7.269093  4.102708  0.037590
N    -4.909436  4.034460  0.487427
H    -2.920536  2.857188  1.909381
H    -2.609196  1.734738  3.223802
H    -4.537744  0.374143  2.656017
H    -4.723148  1.130639  1.081722
H    -4.842557  3.252104  3.058867
H    -5.938143  1.971750  3.582326
H    -7.276218  2.316210  1.702632
H    -7.094922  4.789412  -0.687163
H    -8.092112  4.318881  0.592588
H    -4.873973  4.787547  -0.203328
N    -2.973537  2.066312  -0.686538
C    -3.142657  2.267982  -2.112195
H    -3.508454  2.685512  -0.064411
H    -2.304781  2.833093  -2.550292
H    -4.072541  2.823369  -2.279883
H    -3.193439  1.301169  -2.627958
