35
Energy: -21190.4130415 eV PBE+vdW (tier 2 basis)
C    -0.132134  1.928498  0.090002
C    -0.337018  1.591834  1.559404
O    -0.204194  2.430313  2.450103
H    -0.281910  1.072934  -0.580342
H    0.883592  2.321150  -0.044805
H    -0.827706  2.730722  -0.187693
N    -0.679627  0.294279  1.800195
C    -0.946087  -0.241683  3.129717
C    -2.046721  0.531743  3.904712
O    -1.903987  0.850908  5.080635
H    -0.834082  -0.354246  1.016713
H    -1.365798  -1.245405  2.947601
C    0.299271  -0.376469  4.024665
C    1.547054  -1.002648  3.392599
C    1.422179  -2.427720  2.827883
N    0.880776  -2.452939  1.462495
C    -0.377992  -2.882092  1.113079
N    -0.819689  -4.013931  1.785491
N    -1.052319  -2.191472  0.239714
H    0.003202  -0.954481  4.911770
H    0.556365  0.624211  4.393756
H    2.329343  -1.019676  4.166751
H    1.940336  -0.345571  2.598820
H    0.774735  -3.041151  3.469830
H    2.415016  -2.903869  2.822387
H    1.146560  -1.647465  0.902463
H    -1.693540  -4.403489  1.453588
H    -0.119512  -4.714368  2.008196
H    -1.884813  -2.689933  -0.082276
N    -3.223694  0.783071  3.250723
C    -3.642521  0.432780  1.906204
H    -3.866112  1.327592  3.816990
H    -4.738081  0.373720  1.886327
H    -3.253238  -0.549295  1.610697
H    -3.321138  1.167605  1.151630
