35
Energy: -21190.1030215 eV PBE+vdW (tier 2 basis)
C    -0.210903  -0.205378  -0.331921
C    0.092998  0.200740  1.095118
O    1.242829  0.390875  1.486023
H    0.672857  0.018391  -0.935340
H    -1.090646  0.291671  -0.755497
H    -0.399321  -1.287400  -0.381224
N    -0.952421  0.317925  1.986387
C    -2.401952  0.245041  1.784925
C    -2.827060  -1.040069  1.031728
O    -3.427781  -0.998080  -0.039985
H    -0.632359  0.612341  2.904647
H    -2.821439  0.154651  2.801436
C    -3.002609  1.508577  1.153507
C    -4.510349  1.656112  1.362895
C    -5.052609  2.994815  0.848114
N    -4.505504  4.148329  1.560098
C    -3.916528  5.243905  0.947441
N    -3.206787  4.943501  -0.220576
N    -4.083165  6.410182  1.474736
H    -2.781161  1.509971  0.075308
H    -2.489799  2.369907  1.607657
H    -5.041837  0.842091  0.849914
H    -4.744566  1.567443  2.437802
H    -6.151760  2.997338  0.930807
H    -4.825577  3.106513  -0.220755
H    -5.035249  4.457356  2.369527
H    -2.653422  5.717754  -0.569439
H    -2.685253  4.071186  -0.213061
H    -3.486757  7.111558  1.028807
N    -2.513511  -2.231327  1.621315
C    -1.811629  -2.480724  2.870059
H    -2.796623  -3.033173  1.066762
H    -2.016731  -3.510664  3.182440
H    -2.171139  -1.818855  3.669140
H    -0.724053  -2.350302  2.777208
