35
Energy: -21190.6280727 eV PBE+vdW (tier 2 basis)
C    1.202765  -0.920040  1.739804
C    0.318287  0.308912  1.631444
O    0.784920  1.429009  1.393120
H    1.856800  -0.970340  0.860281
H    0.643909  -1.859007  1.832535
H    1.851859  -0.805523  2.617685
N    -1.011941  0.085846  1.795583
C    -2.013931  1.134980  1.847289
C    -3.287931  0.465204  2.398178
O    -3.382489  -0.761320  2.484614
H    -1.376073  -0.836438  2.036742
H    -1.672057  1.902716  2.562770
C    -2.274491  1.860658  0.503652
C    -2.989401  1.085206  -0.607691
C    -2.223105  -0.109763  -1.217679
N    -0.811560  0.109787  -1.484836
C    -0.331408  1.183982  -2.224136
N    0.952695  1.565357  -1.842519
N    -0.922272  1.778848  -3.207155
H    -1.307458  2.237203  0.147714
H    -2.866942  2.761677  0.728672
H    -3.207087  1.809958  -1.404900
H    -3.965596  0.711351  -0.258332
H    -2.738442  -0.416054  -2.142865
H    -2.278643  -0.975429  -0.545805
H    -0.181449  -0.221381  -0.766152
H    1.269478  2.374007  -2.367890
H    1.108747  1.652029  -0.837208
H    -1.784009  1.291180  -3.465922
N    -4.281595  1.319288  2.750559
C    -5.578672  0.873773  3.226748
H    -4.119291  2.313274  2.640154
H    -5.795883  1.288492  4.220159
H    -5.550822  -0.218254  3.294264
H    -6.379264  1.168458  2.534041
