35
Energy: -21190.5107845 eV PBE+vdW (tier 2 basis)
C    -0.988404  -0.188671  -0.054857
C    -0.826836  -0.033793  1.443870
O    0.295018  -0.020386  1.967627
H    -0.394360  0.585105  -0.555805
H    -2.027017  -0.126746  -0.401276
H    -0.574320  -1.161201  -0.350320
N    -1.984808  0.087002  2.150951
C    -2.133978  0.149191  3.614688
C    -1.643579  1.476868  4.252726
O    -2.418007  2.148976  4.935550
H    -2.843873  0.118900  1.616691
H    -3.216636  0.176593  3.791325
C    -1.552696  -1.096010  4.310497
C    -1.770817  -1.091426  5.825349
C    -1.169643  -2.312460  6.522513
N    0.276542  -2.333380  6.384943
C    1.027601  -3.439831  6.761824
N    2.403213  -3.204138  6.654980
N    0.608134  -4.585162  7.177458
H    -0.482361  -1.179531  4.085027
H    -2.035256  -1.982650  3.869036
H    -2.846236  -1.054447  6.056478
H    -1.345021  -0.175939  6.267795
H    -1.566043  -3.233105  6.065468
H    -1.483689  -2.320066  7.583596
H    0.736317  -1.441218  6.546089
H    2.925760  -4.060223  6.817158
H    2.686190  -2.740572  5.795342
H    -0.399231  -4.576746  7.351592
N    -0.336799  1.773681  4.046414
C    0.274914  2.981377  4.564609
H    0.179583  1.167077  3.397851
H    -0.422531  3.443391  5.271327
H    0.490762  3.701300  3.761094
H    1.214336  2.746994  5.083180
