35
Energy: -21190.1711471 eV PBE+vdW (tier 2 basis)
C    -0.312846  0.051750  0.016452
C    -0.265394  0.315825  1.511987
O    0.686967  0.869019  2.052193
H    -1.257848  -0.383160  -0.332567
H    0.508011  -0.627719  -0.245789
H    -0.135058  0.995672  -0.512795
N    -1.369456  -0.093176  2.213535
C    -1.481050  -0.011437  3.669756
C    -1.122909  1.387286  4.240588
O    -0.388247  1.503140  5.214654
H    -2.102454  -0.577348  1.710805
H    -2.552180  -0.166096  3.889385
C    -0.676133  -1.098339  4.394532
C    -1.072314  -2.517034  3.989428
C    -0.297704  -3.579207  4.785293
N    -0.634135  -4.955699  4.464171
C    -1.797887  -5.558567  4.926006
N    -2.014896  -6.810961  4.335859
N    -2.648032  -5.112831  5.785825
H    -0.820403  -0.951762  5.473931
H    0.392254  -0.919816  4.207221
H    -0.880114  -2.676863  2.915924
H    -2.153669  -2.673064  4.138885
H    -0.454713  -3.433892  5.865041
H    0.782299  -3.451217  4.619362
H    -0.332510  -5.275336  3.548838
H    -2.786675  -7.286919  4.794870
H    -1.187320  -7.400013  4.284841
H    -2.450546  -4.145363  6.050331
N    -1.731892  2.481110  3.686985
C    -2.662895  2.577627  2.579203
H    -1.407553  3.347720  4.103932
H    -3.219085  3.518031  2.674569
H    -3.397366  1.762695  2.602393
H    -2.165279  2.568946  1.596835
