35
Energy: -21190.065999 eV PBE+vdW (tier 2 basis)
C    0.217470  -0.314281  -0.148027
C    -0.298380  -0.729132  1.218601
O    -0.296085  -1.894853  1.599436
H    1.280251  -0.578160  -0.217249
H    0.103782  0.755919  -0.362983
H    -0.311709  -0.892578  -0.915241
N    -0.772009  0.292692  2.002210
C    -1.254478  0.075871  3.355602
C    -2.660401  -0.550425  3.516419
O    -2.885383  -1.213796  4.525649
H    -0.745507  1.236977  1.637011
H    -0.606242  -0.685280  3.813501
C    -1.177091  1.370243  4.179973
C    0.252714  1.858943  4.423353
C    0.297090  3.123205  5.280787
N    1.666992  3.570155  5.468084
C    2.052068  4.827324  5.912633
N    1.008046  5.745824  6.040184
N    3.261018  5.222162  6.131921
H    -1.672118  1.170777  5.140889
H    -1.769375  2.160375  3.684707
H    0.768847  2.061853  3.472703
H    0.821472  1.055201  4.920185
H    -0.218164  2.925476  6.242942
H    -0.257486  3.928215  4.775656
H    2.358200  2.844576  5.617627
H    0.169473  5.410322  6.505199
H    1.354153  6.611567  6.443742
H    3.942577  4.505606  5.867485
N    -3.640491  -0.336972  2.587823
C    -3.665459  0.485895  1.389933
H    -4.495619  -0.827694  2.830150
H    -3.264576  1.491651  1.573394
H    -4.711650  0.607831  1.086422
H    -3.117143  0.034525  0.550913
