35
Energy: -21190.4117775 eV PBE+vdW (tier 2 basis)
C    -2.911751  1.751032  2.065748
C    -2.250706  0.541499  2.695152
O    -1.022733  0.389819  2.655321
H    -2.687542  1.750721  0.991528
H    -2.465886  2.657932  2.491938
H    -3.999427  1.786987  2.200726
N    -3.093658  -0.344191  3.295847
C    -2.739670  -1.634370  3.909192
C    -1.965733  -1.517361  5.250311
O    -2.411695  -2.061894  6.261380
H    -4.074381  -0.095215  3.323316
H    -3.695350  -2.079651  4.212753
C    -2.054844  -2.588925  2.911452
C    -1.806323  -3.977679  3.501299
C    -1.116056  -4.909478  2.507231
N    -0.898863  -6.217590  3.101990
C    -0.499498  -7.357078  2.421507
N    -0.464238  -7.222216  1.032443
N    -0.241926  -8.510203  2.942673
H    -1.109405  -2.145768  2.569935
H    -2.705620  -2.667272  2.026078
H    -2.755181  -4.433327  3.824216
H    -1.183558  -3.888861  4.406314
H    -0.168787  -4.437740  2.173434
H    -1.748193  -5.034031  1.614663
H    -0.709174  -6.231486  4.096977
H    -0.072707  -8.058260  0.608980
H    -0.045868  -6.369502  0.672821
H    -0.436386  -8.516884  3.947628
N    -0.790739  -0.844670  5.186539
C    0.053565  -0.643523  6.347531
H    -0.561753  -0.391224  4.294370
H    1.079923  -0.978525  6.144328
H    -0.358914  -1.228678  7.176237
H    0.084095  0.415740  6.642151
