35
Energy: -21190.0114827 eV PBE+vdW (tier 2 basis)
C    0.350220  0.379742  0.297181
C    -0.299782  0.673347  1.636942
O    -0.822170  1.764194  1.880175
H    0.910722  -0.563488  0.280578
H    1.014984  1.210372  0.032275
H    -0.436097  0.329796  -0.467340
N    -0.276979  -0.354916  2.525415
C    -0.848131  -0.286843  3.865674
C    -2.267975  0.346767  3.792702
O    -3.135594  -0.298843  3.208950
H    0.310258  -1.162108  2.322617
H    -1.125255  -1.324437  4.102260
C    0.157917  0.137764  4.966818
C    1.259494  1.154964  4.628422
C    2.469648  0.614377  3.838218
N    3.082016  -0.591420  4.396372
C    2.767968  -1.891649  4.028092
N    2.393127  -2.049985  2.678852
N    2.799627  -2.942015  4.774066
H    0.645591  -0.782689  5.322160
H    -0.420101  0.495575  5.830189
H    1.636353  1.565872  5.579579
H    0.857606  2.009799  4.067643
H    3.235918  1.403141  3.791556
H    2.186011  0.398598  2.804715
H    3.345334  -0.519500  5.374556
H    2.375153  -3.045235  2.465054
H    2.992863  -1.547817  2.026264
H    2.949349  -2.701528  5.758100
N    -2.603974  1.478637  4.492601
C    -1.787439  2.651511  4.785276
H    -3.592689  1.668278  4.351983
H    -2.465139  3.484310  5.002502
H    -1.166076  2.923714  3.922324
H    -1.152379  2.508820  5.669778
