35
Energy: -21190.123031 eV PBE+vdW (tier 2 basis)
C    0.210941  -0.695957  0.373742
C    -0.030990  -0.173070  1.778881
O    0.907471  0.211958  2.479243
H    -0.700515  -0.972174  -0.170285
H    0.865279  -1.574349  0.438454
H    0.750608  0.070164  -0.196437
N    -1.339547  -0.152686  2.164511
C    -1.963336  0.170630  3.457810
C    -2.701336  1.529378  3.537699
O    -3.727007  1.578725  4.218409
H    -1.996226  -0.485456  1.468464
H    -2.804785  -0.532031  3.524897
C    -1.113640  -0.080976  4.725473
C    -0.251082  1.069620  5.240873
C    0.561762  0.683503  6.485164
N    1.340426  -0.557564  6.363975
C    2.650152  -0.599680  5.874993
N    2.889585  0.257896  4.811406
N    3.602626  -1.349232  6.325403
H    -0.486848  -0.966619  4.556214
H    -1.833303  -0.355381  5.511639
H    -0.885494  1.926634  5.516932
H    0.428572  1.417188  4.455151
H    -0.129254  0.527344  7.326605
H    1.217307  1.526765  6.757299
H    1.219438  -1.188402  7.147248
H    3.827401  0.118286  4.447975
H    2.182853  0.268787  4.075002
H    3.331188  -1.803344  7.202411
N    -2.242077  2.636128  2.887178
C    -1.017821  2.875049  2.137765
H    -2.858101  3.430604  3.033597
H    -0.174356  2.309310  2.545664
H    -0.769815  3.940047  2.214578
H    -1.125895  2.624375  1.071124
