35
Energy: -21190.6186679 eV PBE+vdW (tier 2 basis)
C    -1.231089  -1.087919  0.371701
C    -0.570175  -0.967052  1.727791
O    0.651285  -1.113548  1.871689
H    -0.808570  -0.322845  -0.291888
H    -2.321224  -0.971348  0.399134
H    -0.983891  -2.065914  -0.058652
N    -1.397666  -0.695070  2.772334
C    -0.944871  -0.393319  4.130292
C    -0.594562  -1.669024  4.954448
O    -1.066015  -1.906622  6.072082
H    -2.390594  -0.610243  2.589836
H    0.017143  0.133497  4.016175
C    -1.925122  0.557060  4.842259
C    -3.435271  0.334920  4.652100
C    -4.027644  -0.979522  5.192254
N    -3.816002  -1.202976  6.618813
C    -4.309551  -0.335068  7.586212
N    -5.563173  0.213901  7.290109
N    -3.733527  -0.008024  8.693628
H    -1.697121  1.577897  4.504079
H    -1.687272  0.525608  5.913831
H    -3.720861  0.439450  3.588802
H    -3.949746  1.166411  5.155986
H    -3.594631  -1.849775  4.676918
H    -5.102675  -0.996818  4.960748
H    -2.856115  -1.503472  6.800202
H    -5.935832  0.691801  8.105763
H    -6.231088  -0.441539  6.892896
H    -2.776002  -0.369915  8.724132
N    0.317450  -2.464270  4.357489
C    0.805562  -3.678199  4.985723
H    0.716079  -2.139781  3.468951
H    1.382017  -4.248226  4.249940
H    -0.033029  -4.290167  5.340990
H    1.448652  -3.457395  5.850476
