35
Energy: -21190.4265482 eV PBE+vdW (tier 2 basis)
C    -2.099529  2.763971  0.955894
C    -1.536182  1.496937  1.551224
O    -0.614700  0.870077  1.017027
H    -2.975213  3.147851  1.493797
H    -2.367060  2.572635  -0.090195
H    -1.302065  3.525656  0.960509
N    -2.064853  1.112526  2.753997
C    -1.714953  -0.149668  3.378385
C    -3.015750  -0.763347  3.919844
O    -3.953759  -0.052729  4.283450
H    -2.917856  1.541353  3.105951
H    -1.279799  -0.779574  2.586123
C    -0.681893  -0.030422  4.527337
C    0.633253  0.662706  4.134567
C    0.583701  2.204449  4.217329
N    1.067100  2.820884  2.986284
C    1.009396  4.185792  2.765853
N    1.294568  4.980310  3.876083
N    0.781133  4.618407  1.567943
H    -0.463949  -1.050934  4.877338
H    -1.149089  0.491268  5.377932
H    0.909988  0.363360  3.114290
H    1.434566  0.292151  4.787482
H    1.212272  2.530502  5.061912
H    -0.450691  2.523824  4.444142
H    0.835472  2.307083  2.136409
H    1.209095  4.561088  4.794795
H    0.934181  5.924971  3.830468
H    0.899888  5.633255  1.511383
N    -3.022523  -2.121094  4.002644
C    -4.132477  -2.875181  4.555835
H    -2.227828  -2.624587  3.626807
H    -4.584595  -3.530562  3.798698
H    -4.884042  -2.154699  4.894460
H    -3.809809  -3.486258  5.410004
