35
Energy: -21190.4872433 eV PBE+vdW (tier 2 basis)
C    -1.091691  1.777491  2.250649
C    -0.974069  0.696942  3.308547
O    -0.741269  0.951127  4.485076
H    -1.173071  1.390159  1.227330
H    -0.220025  2.438736  2.319437
H    -1.979795  2.384732  2.468934
N    -1.131063  -0.593841  2.847035
C    -1.250360  -1.729446  3.752291
C    -0.099770  -2.754250  3.630960
O    -0.192143  -3.866323  4.147809
H    -1.452728  -0.714655  1.892456
H    -1.148109  -1.294456  4.759792
C    -2.616411  -2.424057  3.647762
C    -2.914423  -3.026188  2.273488
C    -4.277410  -3.728334  2.233879
N    -4.627692  -4.210542  0.907850
C    -5.172332  -3.372649  -0.056926
N    -5.496171  -4.056942  -1.232266
N    -5.404027  -2.106810  0.026138
H    -3.391930  -1.691938  3.920959
H    -2.632258  -3.216982  4.408220
H    -2.136044  -3.754326  2.001794
H    -2.911144  -2.249174  1.491633
H    -5.060895  -3.051298  2.623860
H    -4.260561  -4.596304  2.906835
H    -4.917246  -5.179577  0.844173
H    -4.789803  -4.713632  -1.552882
H    -5.780638  -3.409239  -1.961170
H    -5.266295  -1.760800  0.978745
N    0.996811  -2.321033  2.953629
C    2.208783  -3.106761  2.840423
H    0.976669  -1.367713  2.609192
H    3.033323  -2.659469  3.414260
H    2.518555  -3.203409  1.791020
H    1.997231  -4.102037  3.246070
