35
Energy: -21190.1095524 eV PBE+vdW (tier 2 basis)
C    0.489680  0.086075  0.083550
C    0.157236  0.579660  1.481321
O    0.805859  1.479445  2.014749
H    1.393207  -0.537366  0.140310
H    0.723985  0.948895  -0.548870
H    -0.308119  -0.504077  -0.384632
N    -0.883093  -0.081082  2.080292
C    -1.408255  -0.000860  3.451287
C    -2.776420  0.724330  3.559943
O    -3.707942  0.127829  4.104126
H    -1.337457  -0.783324  1.508424
H    -1.699711  -1.030411  3.704871
C    -0.440286  0.466620  4.559676
C    0.576927  -0.582307  5.032604
C    1.680486  -0.934790  4.036496
N    2.644836  -1.838680  4.644355
C    3.749364  -2.269774  3.915915
N    4.453483  -3.289077  4.568597
N    4.153643  -1.851773  2.766441
H    -1.079823  0.713454  5.419598
H    0.074285  1.387423  4.264064
H    0.035818  -1.499941  5.323452
H    1.054663  -0.203176  5.949251
H    2.201958  -0.017252  3.729297
H    1.245264  -1.378200  3.121476
H    2.237808  -2.560336  5.234068
H    5.328762  -3.480126  4.089065
H    4.592974  -3.132115  5.563469
H    3.488930  -1.194500  2.351954
N    -2.934641  1.994049  3.095077
C    -2.001490  2.887155  2.429699
H    -3.887460  2.324016  3.221499
H    -0.963821  2.635950  2.668918
H    -2.188258  3.915077  2.764942
H    -2.111053  2.854130  1.334067
