35
Energy: -21190.0014747 eV PBE+vdW (tier 2 basis)
C    -1.007853  1.099740  1.367580
C    -1.175775  -0.130749  2.240754
O    -0.399094  -1.086125  2.171337
H    -0.100224  1.630002  1.684069
H    -1.854562  1.795566  1.424247
H    -0.858962  0.782908  0.328594
N    -2.224618  -0.085044  3.104167
C    -2.565872  -1.155557  4.035544
C    -1.276645  -1.634522  4.764710
O    -0.739770  -0.834496  5.528466
H    -2.905569  0.663698  2.999726
H    -3.066341  -0.646031  4.871669
C    -3.598691  -2.175166  3.489400
C    -3.592148  -2.525458  1.992749
C    -4.219237  -1.483511  1.041803
N    -5.548468  -1.014792  1.429131
C    -5.799511  0.098409  2.211086
N    -4.923378  1.184815  1.987380
N    -6.767173  0.065491  3.061657
H    -4.596685  -1.786701  3.741400
H    -3.504669  -3.096559  4.080728
H    -4.152967  -3.466675  1.872268
H    -2.575178  -2.730342  1.630765
H    -4.288959  -1.929454  0.037994
H    -3.565196  -0.611967  0.944758
H    -6.218281  -1.746770  1.654100
H    -5.283846  2.047466  2.384926
H    -4.676319  1.318150  1.007724
H    -6.951962  0.986876  3.465783
N    -0.843718  -2.935020  4.712179
C    -0.914111  -3.882212  3.604964
H    -0.029799  -3.034678  5.312814
H    -0.150456  -4.649441  3.773043
H    -0.704292  -3.385535  2.649014
H    -1.884732  -4.393144  3.552735
