35
Energy: -21189.9760123 eV PBE+vdW (tier 2 basis)
C    -0.228248  0.792354  -0.119055
C    -0.284130  0.084406  1.219704
O    0.692646  -0.535887  1.637624
H    -0.392030  1.871886  -0.017027
H    -0.973828  0.406444  -0.825187
H    0.769574  0.619419  -0.530397
N    -1.417368  0.132415  2.007336
C    -2.792577  0.634210  1.908460
C    -3.841240  -0.498221  2.015428
O    -4.781317  -0.369783  2.808500
H    -1.237856  -0.367616  2.876122
H    -2.971768  1.197004  2.835937
C    -3.119254  1.580341  0.738460
C    -4.553661  2.128819  0.778103
C    -4.848555  3.072707  1.959700
N    -6.223236  3.525002  2.034942
C    -7.272279  2.814281  2.620576
N    -6.897555  1.765240  3.442278
N    -8.524417  3.125191  2.521258
H    -2.967866  1.073157  -0.222978
H    -2.407823  2.419357  0.767603
H    -5.280187  1.303072  0.787337
H    -4.731562  2.677663  -0.159521
H    -4.195668  3.958196  1.889897
H    -4.606455  2.594886  2.918016
H    -6.526015  4.158900  1.304922
H    -7.711719  1.264024  3.780602
H    -6.130832  1.150063  3.170270
H    -8.650765  3.992272  1.991966
N    -3.741434  -1.611402  1.240997
C    -2.758171  -1.976880  0.231040
H    -4.487157  -2.275090  1.428317
H    -2.606248  -1.171411  -0.497687
H    -3.144743  -2.842272  -0.317579
H    -1.787017  -2.247311  0.666078
