35
Energy: -21190.4728921 eV PBE+vdW (tier 2 basis)
C    1.296811  0.025463  0.281819
C    0.771860  -0.077527  1.700779
O    1.476843  -0.448720  2.639820
H    2.127956  0.741609  0.264598
H    0.539388  0.340611  -0.446032
H    1.699942  -0.950203  -0.015871
N    -0.535015  0.281059  1.869453
C    -1.196825  0.166663  3.152595
C    -2.686031  -0.035754  2.860267
O    -3.168909  0.339373  1.781711
H    -1.143123  0.488454  1.081127
H    -0.768649  -0.707210  3.666502
C    -0.936357  1.410769  4.050087
C    -1.598638  2.707629  3.559455
C    -2.985459  2.953722  4.179549
N    -3.751618  3.993530  3.513788
C    -4.966121  3.807958  2.864725
N    -5.246683  2.491823  2.504509
N    -5.830790  4.730802  2.596521
H    0.155388  1.516147  4.087580
H    -1.250571  1.188703  5.082412
H    -1.697377  2.696060  2.464269
H    -0.948792  3.564282  3.791061
H    -2.864248  3.206482  5.247467
H    -3.590827  2.039788  4.155373
H    -3.585064  4.947351  3.808858
H    -6.084855  2.465238  1.931790
H    -4.486741  1.937507  2.105777
H    -5.573128  5.620867  3.032135
N    -3.467806  -0.594151  3.818339
C    -3.096270  -1.030723  5.153443
H    -4.456575  -0.587312  3.580827
H    -3.753961  -1.853413  5.456643
H    -3.183517  -0.222886  5.896104
H    -2.066993  -1.404828  5.165228
