35
Energy: -21190.2137634 eV PBE+vdW (tier 2 basis)
C    0.025864  -0.174303  0.211219
C    -0.012754  -0.100375  1.728360
O    1.013888  -0.130139  2.402202
H    1.076010  -0.153999  -0.091063
H    -0.499108  0.662036  -0.268849
H    -0.429689  -1.105499  -0.150312
N    -1.241014  -0.001490  2.338049
C    -2.579795  0.022062  1.752259
C    -3.354440  1.179082  2.427914
O    -4.139916  0.976206  3.350883
H    -1.187163  -0.023138  3.354486
H    -2.464682  0.241236  0.681689
C    -3.344456  -1.297517  1.918168
C    -2.702435  -2.482313  1.199473
C    -3.490848  -3.779536  1.425965
N    -2.913209  -4.958751  0.796896
C    -1.817630  -5.584519  1.369944
N    -1.300899  -6.600384  0.547125
N    -1.364899  -5.203817  2.514331
H    -4.372216  -1.138524  1.554375
H    -3.441305  -1.509641  2.993050
H    -1.678027  -2.642026  1.564609
H    -2.641252  -2.280771  0.115504
H    -4.521472  -3.672134  1.054313
H    -3.544938  -3.987531  2.502426
H    -2.920076  -4.967226  -0.218036
H    -0.601447  -7.174152  1.006255
H    -2.006274  -7.170742  0.086391
H    -0.636494  -5.834346  2.856220
N    -3.104341  2.444907  1.974758
C    -2.125074  2.876571  0.992221
H    -3.579299  3.159718  2.517253
H    -1.090353  2.715841  1.329547
H    -2.264968  3.947889  0.813343
H    -2.265173  2.365837  0.029148
