35
Energy: -21190.3617312 eV PBE+vdW (tier 2 basis)
C    -0.978742  0.765245  0.569137
C    -1.231856  -0.352268  1.561358
O    -0.973180  -1.526807  1.307897
H    -1.309404  1.751562  0.917531
H    -1.489529  0.526172  -0.371470
H    0.096576  0.806133  0.354818
N    -1.784134  0.036258  2.755670
C    -1.999920  -0.893402  3.857599
C    -3.458141  -0.790056  4.341179
O    -3.767485  -0.379188  5.463712
H    -1.939265  1.023916  2.919603
H    -1.879748  -1.884517  3.393228
C    -0.932298  -0.796663  4.973126
C    -0.404333  0.594513  5.355656
C    -1.229085  1.376587  6.382903
N    -1.202065  0.712201  7.681210
C    -2.203696  0.847261  8.639834
N    -3.490647  0.916471  8.125603
N    -1.846467  0.900637  9.882072
H    -0.081762  -1.396492  4.620291
H    -1.320216  -1.294825  5.872812
H    -0.264519  1.216424  4.456647
H    0.610869  0.464403  5.763302
H    -2.270651  1.460581  6.056577
H    -0.831318  2.407337  6.453103
H    -0.299825  0.745657  8.150549
H    -3.664600  0.402196  7.260843
H    -4.220882  0.813476  8.819230
H    -2.660919  0.859588  10.500593
N    -4.425181  -1.191429  3.469676
C    -4.300441  -1.684228  2.107334
H    -5.362432  -1.060955  3.839264
H    -5.125940  -2.376512  1.904371
H    -3.360070  -2.227228  1.963227
H    -4.336170  -0.869607  1.367672
