35
Energy: -21190.5636416 eV PBE+vdW (tier 2 basis)
C    -1.484476  0.267245  1.421548
C    0.028898  0.330420  1.435086
O    0.723531  0.076571  0.455141
H    -1.902376  1.283078  1.509803
H    -1.869478  -0.323886  2.264369
H    -1.812613  -0.184648  0.481684
N    0.575256  0.684754  2.655145
C    1.989798  1.015126  2.782812
C    2.765519  0.080817  3.735831
O    3.880967  0.388019  4.155633
H    -0.065398  1.068558  3.351514
H    2.414046  0.833910  1.781430
C    2.208960  2.486459  3.162756
C    1.676472  2.843383  4.563220
C    0.922788  4.181203  4.638813
N    -0.141445  4.380574  3.653564
C    -1.234755  3.568933  3.426136
N    -1.494897  2.618840  4.426093
N    -2.004866  3.577173  2.390043
H    1.708013  3.091107  2.393266
H    3.282650  2.700473  3.100891
H    2.505884  2.879204  5.283033
H    1.012546  2.047761  4.930801
H    1.623760  5.013258  4.486052
H    0.521956  4.318863  5.657876
H    0.082858  4.984448  2.873922
H    -2.441882  2.263396  4.321350
H    -1.308902  2.924062  5.378034
H    -1.673902  4.228776  1.674232
N    2.136632  -1.087375  4.032780
C    2.755603  -2.136537  4.814963
H    1.229139  -1.233659  3.603269
H    2.958278  -3.028033  4.203686
H    2.119294  -2.426518  5.662521
H    3.706139  -1.747757  5.196701
