35
Energy: -21190.310114 eV PBE+vdW (tier 2 basis)
C    -1.371911  -0.250846  -0.150936
C    -1.619776  -0.418883  1.335418
O    -1.203084  -1.402276  1.939142
H    -1.569517  0.746373  -0.552551
H    -2.011630  -0.967226  -0.684688
H    -0.332059  -0.527464  -0.354614
N    -2.407674  0.506670  2.004585
C    -2.772667  1.886212  1.662855
C    -3.570810  1.998555  0.342474
O    -3.538743  3.010769  -0.359474
H    -2.455593  0.275808  2.994590
H    -3.540494  2.150987  2.410683
C    -1.657558  2.938186  1.861831
C    -0.295525  2.721869  1.190925
C    -0.175521  3.249316  -0.243555
N    -0.277199  4.704342  -0.274788
C    -0.770008  5.418786  -1.365267
N    -1.840799  4.817831  -2.013270
N    -0.193513  6.536973  -1.663733
H    -1.501305  2.999496  2.948911
H    -2.059321  3.914420  1.553416
H    -0.002130  1.662107  1.220205
H    0.462581  3.237380  1.801394
H    -0.964363  2.838972  -0.882790
H    0.783717  2.905703  -0.674450
H    0.540064  5.190682  0.086934
H    -2.308041  5.417423  -2.682242
H    -2.481948  4.273455  -1.433228
H    -0.719123  7.042282  -2.382006
N    -4.384876  0.943663  0.088697
C    -5.245777  0.867908  -1.075062
H    -4.306218  0.144023  0.708441
H    -6.273387  0.617344  -0.781610
H    -4.887283  0.113832  -1.790947
H    -5.240403  1.847683  -1.563183
