35
Energy: -21190.0586194 eV PBE+vdW (tier 2 basis)
C    -0.280912  0.059730  -0.529522
C    0.030232  0.282539  0.935707
O    1.182244  0.405544  1.345646
H    -1.158110  0.611946  -0.884662
H    -0.476109  -1.006965  -0.710845
H    0.601477  0.351676  -1.105106
N    -1.014906  0.304564  1.835026
C    -2.461468  0.237775  1.623150
C    -2.892208  -0.959596  0.740791
O    -3.564907  -0.807060  -0.275803
H    -0.691045  0.453951  2.786282
H    -2.878315  0.029146  2.622353
C    -3.085082  1.547195  1.109497
C    -2.724999  2.786682  1.932972
C    -3.255266  2.767067  3.365687
N    -2.941442  4.026761  4.036054
C    -3.247400  4.247871  5.375097
N    -4.472004  3.707040  5.779017
N    -2.400517  4.885831  6.107884
H    -4.175937  1.410619  1.076144
H    -2.782358  1.701535  0.065684
H    -3.129988  3.675658  1.427433
H    -1.630154  2.914403  1.950120
H    -2.843625  1.904423  3.926490
H    -4.346759  2.624849  3.338127
H    -1.997729  4.364155  3.856478
H    -4.788988  4.042420  6.681783
H    -5.212092  3.722412  5.082444
H    -2.789338  5.106113  7.028623
N    -2.507018  -2.203954  1.155090
C    -1.758115  -2.591754  2.339874
H    -2.811136  -2.938800  0.524276
H    -2.098065  -2.040263  3.226668
H    -0.676059  -2.433189  2.228731
H    -1.938095  -3.655989  2.529255
