35
Energy: -21190.4618819 eV PBE+vdW (tier 2 basis)
C    -0.575736  -0.131641  0.993208
C    -1.188346  -0.517847  2.322567
O    -0.548398  -1.134440  3.172384
H    -1.246623  -0.360478  0.157632
H    0.356789  -0.692693  0.886651
H    -0.335043  0.941300  0.982734
N    -2.481416  -0.126677  2.618484
C    -3.558929  0.446968  1.820326
C    -4.157586  -0.532334  0.777227
O    -3.461230  -1.299944  0.113670
H    -2.764206  -0.512357  3.514619
H    -4.357936  0.644050  2.547377
C    -3.223633  1.792800  1.144511
C    -2.925640  2.936822  2.118888
C    -4.128342  3.399760  2.962230
N    -5.284255  3.818414  2.180752
C    -6.264742  2.957394  1.733592
N    -6.913441  3.396595  0.588251
N    -6.653656  1.848369  2.287510
H    -4.077347  2.062786  0.505076
H    -2.377970  1.661831  0.459165
H    -2.546121  3.798432  1.546562
H    -2.117468  2.643870  2.807285
H    -3.826503  4.239049  3.604122
H    -4.448542  2.604881  3.649686
H    -5.195077  4.691739  1.672929
H    -7.630661  2.751397  0.274273
H    -6.333895  3.763715  -0.159847
H    -6.263053  1.747318  3.227324
N    -5.508213  -0.432831  0.663019
C    -6.250735  -1.203074  -0.315219
H    -6.011129  0.269569  1.225849
H    -7.233407  -1.468914  0.092673
H    -5.691413  -2.116583  -0.545659
H    -6.398252  -0.648287  -1.256005
