35
Energy: -21190.2828463 eV PBE+vdW (tier 2 basis)
C    -0.122192  -0.609057  -0.275402
C    -0.296865  -0.450182  1.227489
O    0.622353  -0.663046  2.015508
H    0.523505  -1.472048  -0.470356
H    0.388499  0.284854  -0.659043
H    -1.070856  -0.722459  -0.815855
N    -1.555150  -0.061506  1.597244
C    -2.004316  0.267692  2.936198
C    -1.597765  1.709988  3.323157
O    -0.647271  2.290598  2.816580
H    -2.288056  -0.019417  0.885691
H    -3.101431  0.259361  2.867091
C    -1.580685  -0.734562  4.034954
C    -1.876177  -2.212435  3.746193
C    -3.335376  -2.592402  3.445845
N    -3.736097  -2.307781  2.062173
C    -4.610212  -1.317181  1.676404
N    -5.684408  -1.113317  2.545963
N    -4.356979  -0.637927  0.599201
H    -2.089679  -0.446389  4.967521
H    -0.502896  -0.625900  4.204599
H    -1.557788  -2.790139  4.627791
H    -1.235217  -2.563672  2.922533
H    -4.018178  -2.057809  4.121520
H    -3.470013  -3.668118  3.640656
H    -2.978545  -2.387823  1.388861
H    -6.402728  -0.498985  2.179385
H    -6.069703  -1.950263  2.975110
H    -5.148845  -0.052751  0.323760
N    -2.377674  2.329619  4.271686
C    -3.555503  1.844034  4.967080
H    -2.026558  3.248881  4.522328
H    -4.181713  2.699413  5.248971
H    -3.313213  1.282842  5.884589
H    -4.160616  1.195750  4.320630
