35
Energy: -21190.4001926 eV PBE+vdW (tier 2 basis)
C    -0.632331  -0.842487  0.239119
C    -0.674399  0.080146  1.441900
O    -0.239120  1.236414  1.361568
H    0.413387  -1.130415  0.065296
H    -0.975549  -0.291069  -0.643090
H    -1.230298  -1.754761  0.353955
N    -1.212910  -0.466533  2.567651
C    -1.248168  0.008094  3.967981
C    -1.860394  1.396959  4.278464
O    -2.415825  1.545514  5.370488
H    -1.529654  -1.422776  2.461319
H    -1.965135  -0.665694  4.454786
C    0.095881  -0.182979  4.706662
C    1.268460  0.669360  4.223804
C    2.534356  0.395483  5.045943
N    3.720052  1.082406  4.556906
C    4.424923  0.577857  3.480336
N    5.509415  1.376648  3.093261
N    4.122535  -0.572887  2.978468
H    0.368376  -1.248360  4.632658
H    -0.108668  0.015333  5.770619
H    1.011752  1.738895  4.284984
H    1.493699  0.454179  3.171857
H    2.764678  -0.677844  5.022813
H    2.383699  0.684769  6.097388
H    3.725771  2.090179  4.666178
H    5.751701  1.302952  2.112036
H    5.516644  2.337386  3.422155
H    4.814538  -0.857708  2.281823
N    -1.727324  2.373386  3.358009
C    -2.231754  3.710250  3.604208
H    -1.137921  2.174106  2.535494
H    -2.259837  4.258631  2.656320
H    -1.601471  4.263998  4.317746
H    -3.243028  3.660668  4.026147
