35
Energy: -21190.179191 eV PBE+vdW (tier 2 basis)
C    -0.404728  0.243660  -0.620831
C    -0.235168  -0.079865  0.846249
O    0.831331  -0.498268  1.304800
H    0.551018  0.064590  -1.119572
H    -0.710320  1.285356  -0.781892
H    -1.179024  -0.387595  -1.077377
N    -1.322790  0.057147  1.680315
C    -2.490831  0.929888  1.518005
C    -3.375935  0.530285  0.312367
O    -3.637077  1.316800  -0.594770
H    -1.069232  -0.147458  2.649224
H    -3.102785  0.727582  2.411399
C    -2.161521  2.440062  1.484577
C    -1.010407  2.851733  2.408197
C    -1.265408  2.580904  3.897929
N    -0.058541  2.625229  4.726012
C    0.559137  1.477510  5.219325
N    0.492684  0.372550  4.359357
N    1.148040  1.352658  6.359993
H    -3.081205  2.989439  1.738465
H    -1.933114  2.729616  0.451042
H    -0.801378  3.922273  2.265767
H    -0.088347  2.332841  2.109468
H    -1.735033  1.596036  4.036055
H    -1.981452  3.319167  4.289540
H    -0.001520  3.406196  5.368301
H    0.984327  -0.410192  4.784581
H    0.839479  0.519997  3.408745
H    0.987036  2.171492  6.954343
N    -3.871863  -0.742713  0.311385
C    -3.703154  -1.795388  1.300456
H    -4.432182  -0.946956  -0.509966
H    -4.484149  -2.547185  1.141087
H    -3.822456  -1.409283  2.321641
H    -2.721368  -2.284068  1.232218
