35
Energy: -21190.3919782 eV PBE+vdW (tier 2 basis)
C    -1.770749  -1.362799  4.005034
C    -0.709383  -0.880064  3.035370
O    -0.895221  -0.836948  1.824523
H    -2.578686  -0.619710  4.037979
H    -1.399129  -1.523028  5.024989
H    -2.201226  -2.296151  3.624979
N    0.485622  -0.502317  3.614314
C    1.527514  0.185333  2.861841
C    2.882238  -0.558080  2.855778
O    3.916319  0.016922  2.524011
H    0.511198  -0.423725  4.626273
H    1.173287  0.166009  1.817025
C    1.704807  1.642207  3.306701
C    0.477758  2.508976  3.027154
C    0.681081  3.963172  3.448554
N    -0.518032  4.743956  3.190739
C    -0.775692  6.013132  3.687637
N    0.142527  6.465327  4.636814
N    -1.801255  6.748008  3.412795
H    2.589440  2.031438  2.784707
H    1.951762  1.665833  4.382707
H    -0.406799  2.114560  3.551070
H    0.243669  2.465711  1.950169
H    1.569758  4.370444  2.924602
H    0.893293  4.005801  4.527609
H    -1.023152  4.517522  2.342030
H    -0.057778  7.429526  4.885649
H    1.123706  6.313940  4.422357
H    -2.466739  6.250586  2.814827
N    2.822414  -1.872302  3.202721
C    3.972761  -2.751626  3.139350
H    1.905886  -2.252415  3.411034
H    4.116514  -3.280180  4.091302
H    4.852821  -2.132276  2.935629
H    3.868467  -3.492783  2.333728
