35
Energy: -21190.4742584 eV PBE+vdW (tier 2 basis)
C    -1.392108  2.696205  0.957344
C    -0.447245  1.542676  1.233941
O    0.696441  1.708237  1.646342
H    -0.903351  3.618208  1.281643
H    -2.349112  2.583704  1.484970
H    -1.616001  2.773520  -0.116421
N    -0.934457  0.270138  1.012879
C    -2.220379  -0.110033  0.443889
C    -3.380551  -0.199635  1.464122
O    -4.536849  -0.337082  1.067712
H    -0.236769  -0.456335  1.154954
H    -2.540786  0.671256  -0.260128
C    -2.095829  -1.413594  -0.373506
C    -1.706976  -2.677236  0.414681
C    -2.905554  -3.446966  1.004027
N    -2.538996  -4.573788  1.843805
C    -2.105638  -4.391877  3.152156
N    -1.637945  -5.575857  3.729613
N    -2.090407  -3.299117  3.837031
H    -1.353360  -1.224847  -1.161921
H    -3.058629  -1.571884  -0.880186
H    -1.003160  -2.442324  1.229439
H    -1.159616  -3.357895  -0.254756
H    -3.534595  -3.824592  0.184719
H    -3.555509  -2.784859  1.590870
H    -2.114097  -5.361880  1.364528
H    -1.457991  -5.445239  4.720896
H    -2.214252  -6.393904  3.550461
H    -2.334293  -2.496910  3.252325
N    -3.018357  -0.138709  2.772372
C    -3.976070  -0.185454  3.863135
H    -2.036193  0.024518  2.971537
H    -4.039836  0.783576  4.378114
H    -3.695740  -0.960275  4.588257
H    -4.955705  -0.424278  3.435969
