35
Energy: -21190.2572617 eV PBE+vdW (tier 2 basis)
C    0.247577  -0.335151  0.618248
C    0.028611  0.252803  2.003646
O    0.968427  0.615201  2.706558
H    1.325978  -0.383765  0.447205
H    -0.203490  0.296580  -0.160701
H    -0.175795  -1.343433  0.519880
N    -1.264148  0.367600  2.449812
C    -2.504306  0.053722  1.765598
C    -3.444345  1.265612  1.909418
O    -3.520868  1.880702  2.969940
H    -1.372109  0.864060  3.333625
H    -2.282611  -0.126927  0.704211
C    -3.207290  -1.189973  2.359441
C    -2.399265  -2.478124  2.218673
C    -3.041604  -3.659198  2.959463
N    -2.290538  -4.903534  2.838194
C    -1.459854  -5.428842  3.820633
N    -0.981775  -4.488298  4.732699
N    -1.124906  -6.667170  3.961159
H    -4.190565  -1.303445  1.873907
H    -3.408888  -0.981767  3.422262
H    -1.383565  -2.317238  2.612005
H    -2.280637  -2.745109  1.155944
H    -4.056505  -3.830603  2.568499
H    -3.153957  -3.411904  4.025774
H    -2.670663  -5.600793  2.211454
H    -0.297569  -4.912554  5.351956
H    -0.655046  -3.609464  4.340878
H    -1.659396  -7.274031  3.333305
N    -4.190884  1.556486  0.807383
C    -5.177088  2.622214  0.782740
H    -4.036911  1.013711  -0.033598
H    -4.917799  3.385656  0.036655
H    -5.185293  3.084492  1.775197
H    -6.179336  2.230753  0.560700
