35
Energy: -21190.5127142 eV PBE+vdW (tier 2 basis)
C    -1.666046  0.396782  -0.432003
C    -1.264291  0.977116  0.909758
O    -0.323018  1.766999  1.029556
H    -2.490572  -0.322742  -0.361011
H    -0.792257  -0.088560  -0.883791
H    -1.958914  1.223122  -1.092746
N    -2.027732  0.564171  1.962497
C    -1.839171  1.066670  3.316483
C    -1.247979  -0.068382  4.181623
O    -1.975084  -0.957370  4.631305
H    -2.803123  -0.076265  1.777134
H    -1.136459  1.904178  3.222507
C    -3.157618  1.544494  3.945280
C    -3.926121  2.569184  3.094807
C    -5.439399  2.300221  3.026231
N    -5.801087  0.947921  2.567453
C    -5.276155  0.411036  1.394073
N    -5.219576  1.298117  0.331327
N    -4.830321  -0.795010  1.230616
H    -2.931860  1.951995  4.941244
H    -3.761854  0.644354  4.130440
H    -3.537182  2.568020  2.066987
H    -3.772132  3.588353  3.478701
H    -5.919257  3.049467  2.379039
H    -5.902987  2.416165  4.016111
H    -5.792105  0.261085  3.314676
H    -5.967904  1.979802  0.271250
H    -5.011459  0.836336  -0.547238
H    -4.823616  -1.309998  2.115950
N    0.095958  -0.069623  4.394451
C    1.099805  0.887353  3.945808
H    0.405132  -0.850892  4.965622
H    0.845283  1.293098  2.959026
H    2.061052  0.367841  3.854967
H    1.226815  1.718842  4.657146
