35
Energy: -21190.1830598 eV PBE+vdW (tier 2 basis)
C    0.477154  1.061180  1.915192
C    0.040497  0.383790  3.197688
O    0.722351  0.391353  4.220708
H    0.404597  0.390509  1.048411
H    1.511526  1.390833  2.039724
H    -0.153007  1.934812  1.695592
N    -1.176363  -0.258538  3.180536
C    -2.179437  -0.254005  2.125837
C    -2.801230  1.126973  1.808134
O    -2.974868  1.451291  0.633592
H    -1.417666  -0.683177  4.071809
H    -1.708538  -0.537149  1.172750
C    -3.258801  -1.302842  2.444391
C    -4.294417  -1.493946  1.336840
C    -5.272204  -2.638564  1.636358
N    -4.627739  -3.939371  1.755342
C    -4.327563  -4.712862  0.635453
N    -3.821188  -5.968558  0.987089
N    -4.474485  -4.411627  -0.606837
H    -3.768152  -1.037547  3.387091
H    -2.744373  -2.259645  2.622394
H    -3.779736  -1.688645  0.384423
H    -4.875844  -0.573025  1.183473
H    -6.059268  -2.660385  0.861682
H    -5.784798  -2.445609  2.589929
H    -4.877692  -4.481302  2.574834
H    -3.495338  -6.468053  0.164589
H    -3.125313  -5.955205  1.727905
H    -4.974088  -3.528416  -0.731435
N    -3.169779  1.961954  2.826213
C    -3.069225  1.807640  4.271173
H    -3.545049  2.838792  2.477954
H    -3.679980  2.589479  4.736370
H    -2.039340  1.908989  4.640458
H    -3.468952  0.842853  4.608733
