35
Energy: -21190.6208052 eV PBE+vdW (tier 2 basis)
C    -1.739979  -0.041159  2.519201
C    -0.278895  0.331795  2.521039
O    0.362446  0.515058  1.475511
H    -2.311995  0.860437  2.251569
H    -2.093868  -0.412563  3.489090
H    -1.918073  -0.799105  1.748793
N    0.298549  0.508744  3.743774
C    1.679667  0.960345  3.885802
C    2.622029  -0.266409  3.994554
O    3.104570  -0.644024  5.059559
H    -0.228217  0.282774  4.579741
H    1.917970  1.458200  2.935485
C    1.860794  1.928827  5.051437
C    0.956622  3.169449  5.029270
C    1.052988  4.065248  3.771414
N    0.265490  3.656373  2.617951
C    -1.106176  3.800656  2.497984
N    -1.706719  4.635703  3.440693
N    -1.842207  3.301105  1.558764
H    2.915836  2.242317  5.051195
H    1.726168  1.380428  5.996044
H    1.216163  3.782953  5.906076
H    -0.094445  2.870067  5.172318
H    2.102877  4.133728  3.447508
H    0.756745  5.091921  4.031363
H    0.647220  2.929742  2.021455
H    -2.716700  4.616068  3.340635
H    -1.400767  4.547879  4.403803
H    -1.269072  2.820532  0.859594
N    2.826367  -0.870774  2.791776
C    3.566837  -2.109745  2.653479
H    2.288888  -0.515961  2.000787
H    4.304860  -2.031410  1.844468
H    2.900006  -2.958938  2.441623
H    4.087020  -2.299264  3.598245
