35
Energy: -21190.4747801 eV PBE+vdW (tier 2 basis)
C    0.451679  -2.057554  1.048764
C    -0.088425  -1.536317  2.366151
O    -0.162089  -2.239212  3.374199
H    1.489670  -2.380676  1.197191
H    0.421097  -1.320055  0.237618
H    -0.127345  -2.941703  0.755623
N    -0.477186  -0.226421  2.363450
C    -1.076755  0.390904  3.527829
C    -2.008736  1.491406  3.017914
O    -1.831059  2.006062  1.903903
H    -0.517313  0.319243  1.506703
H    -1.645389  -0.391522  4.053002
C    -0.007076  0.924808  4.523210
C    0.924020  2.011447  3.968683
C    0.385945  3.448419  4.115954
N    1.190187  4.476033  3.483855
C    1.303905  4.649252  2.108256
N    0.184794  4.304187  1.361028
N    2.386241  5.201341  1.663899
H    0.574993  0.042348  4.820132
H    -0.506759  1.278996  5.439265
H    1.145226  1.808817  2.909828
H    1.892180  1.953990  4.487967
H    0.314606  3.699770  5.185707
H    -0.641322  3.527193  3.733642
H    2.078229  4.688211  3.928870
H    -0.454333  3.581784  1.689249
H    0.352720  4.250354  0.364419
H    2.327712  5.373431  0.657389
N    -3.014413  1.911274  3.826339
C    -3.362613  1.456233  5.162170
H    -3.539332  2.690759  3.439201
H    -2.841197  2.026220  5.945853
H    -3.121351  0.395070  5.285783
H    -4.442620  1.572012  5.308856
