35
Energy: -21190.1721337 eV PBE+vdW (tier 2 basis)
C    -0.078548  -0.130651  0.080178
C    -0.031789  -0.029959  1.590553
O    1.030670  -0.009316  2.208731
H    -0.273188  -1.171722  -0.215307
H    0.903641  0.158040  -0.303558
H    -0.857775  0.484843  -0.382928
N    -1.221296  -0.007221  2.286745
C    -2.604755  0.068786  1.812733
C    -2.941548  -1.008995  0.753044
O    -3.394662  -0.713325  -0.349893
H    -1.070659  0.057692  3.289061
H    -3.216535  -0.179180  2.697371
C    -3.031200  1.464676  1.337543
C    -2.869412  2.536414  2.414452
C    -3.297802  3.926278  1.917998
N    -3.220436  4.981632  2.912359
C    -4.184189  5.129224  3.904216
N    -3.811258  6.074901  4.866420
N    -5.314419  4.521469  4.023396
H    -4.079274  1.402661  1.010423
H    -2.459088  1.734714  0.437735
H    -1.819287  2.588291  2.742739
H    -3.462859  2.273655  3.305442
H    -4.330191  3.894571  1.537122
H    -2.671439  4.223876  1.063504
H    -2.281011  5.236716  3.202039
H    -4.586685  6.268041  5.493997
H    -3.408439  6.928200  4.487552
H    -5.417828  3.770237  3.337961
N    -2.730399  -2.312128  1.106310
C    -2.253013  -2.861142  2.365476
H    -2.961691  -2.962661  0.362134
H    -2.542160  -3.916994  2.413793
H    -2.716079  -2.356059  3.223555
H    -1.161148  -2.790830  2.471613
