35
Energy: -21190.2197397 eV PBE+vdW (tier 2 basis)
C    -0.169267  0.143505  0.053242
C    -0.053703  -0.104934  1.545313
O    1.015141  -0.367578  2.086357
H    0.839751  0.128916  -0.366295
H    -0.640237  1.110149  -0.172269
H    -0.766773  -0.639941  -0.434507
N    -1.207592  0.003510  2.299153
C    -2.584791  0.050009  1.819314
C    -3.405435  1.151676  2.539349
O    -4.632166  1.103177  2.598917
H    -1.066168  -0.305040  3.260054
H    -2.545409  0.364815  0.765489
C    -3.279630  -1.326329  1.885442
C    -4.435236  -1.493915  0.895879
C    -5.088692  -2.870373  1.002316
N    -6.145128  -3.005164  0.015341
C    -6.914300  -4.141889  -0.167086
N    -6.306018  -5.336579  0.231508
N    -8.056217  -4.023264  -0.757399
H    -3.635748  -1.501133  2.912884
H    -2.509793  -2.086259  1.679508
H    -4.066462  -1.356555  -0.133826
H    -5.185559  -0.712988  1.082695
H    -5.458285  -3.013707  2.038789
H    -4.322598  -3.642607  0.818051
H    -6.689683  -2.169110  -0.174656
H    -6.951136  -6.112667  0.320100
H    -5.652084  -5.288141  1.006134
H    -8.499865  -4.932967  -0.902096
N    -2.661349  2.168706  3.050722
C    -3.248923  3.317031  3.712130
H    -1.653089  2.088904  2.968381
H    -4.335381  3.178925  3.715954
H    -3.008774  4.247399  3.178952
H    -2.894902  3.401667  4.748771
