35
Energy: -21190.3120949 eV PBE+vdW (tier 2 basis)
C    -0.065080  -0.199072  -0.261417
C    -0.052922  -0.471600  1.229306
O    1.003607  -0.640706  1.830395
H    -1.028517  0.099908  -0.681062
H    0.269599  -1.113011  -0.770797
H    0.676957  0.579436  -0.469481
N    -1.251467  -0.622580  1.910187
C    -2.614677  -0.176614  1.588831
C    -3.164522  -0.777993  0.272941
O    -3.951819  -0.162922  -0.450059
H    -1.071662  -0.774094  2.900419
H    -3.238942  -0.658988  2.360662
C    -2.879172  1.329953  1.726778
C    -2.175314  2.264188  0.743452
C    -2.748704  3.689035  0.770671
N    -4.210875  3.772717  0.650969
C    -4.868373  3.730572  -0.582834
N    -4.455913  2.702174  -1.423322
N    -5.760513  4.633713  -0.822950
H    -2.621897  1.615315  2.759540
H    -3.963876  1.480165  1.631867
H    -2.255736  1.876189  -0.279244
H    -1.099919  2.336070  0.967305
H    -2.246103  4.285857  -0.010746
H    -2.502664  4.153928  1.736362
H    -4.602475  4.549114  1.176763
H    -5.006587  2.627605  -2.271359
H    -4.287299  1.790534  -0.990605
H    -6.285589  4.415161  -1.674735
N    -2.775414  -2.055595  0.034771
C    -3.187742  -2.804591  -1.135815
H    -2.075870  -2.444561  0.658605
H    -2.357342  -2.930870  -1.846163
H    -3.990176  -2.245896  -1.628152
H    -3.562167  -3.795629  -0.848810
