35
Energy: -21190.386286 eV PBE+vdW (tier 2 basis)
C    -0.387124  -0.090619  -0.475350
C    -0.150786  -0.436984  0.980727
O    0.951025  -0.754021  1.419512
H    0.576678  -0.104990  -0.990044
H    -0.852538  0.897369  -0.593565
H    -1.056863  -0.822542  -0.949199
N    -1.245226  -0.372863  1.819997
C    -2.637165  -0.121584  1.458963
C    -2.949319  1.368883  1.189468
O    -3.920101  1.697066  0.510472
H    -1.053166  -0.720665  2.756234
H    -2.886941  -0.645016  0.523768
C    -3.548913  -0.668782  2.576942
C    -5.025726  -0.779884  2.197710
C    -5.919864  -1.243223  3.357192
N    -5.570605  -2.521026  3.966997
C    -5.802800  -3.714774  3.310497
N    -5.284479  -4.815607  4.016992
N    -6.403564  -3.736454  2.170002
H    -3.427777  -0.034555  3.473515
H    -3.165831  -1.669396  2.836414
H    -5.141481  -1.485697  1.363418
H    -5.399460  0.191002  1.843673
H    -6.950785  -1.329843  2.991574
H    -5.915518  -0.493305  4.163236
H    -4.775557  -2.523246  4.595484
H    -5.568826  -5.710042  3.631582
H    -5.434224  -4.781534  5.022815
H    -6.608490  -4.694854  1.878465
N    -2.102219  2.250821  1.787054
C    -2.246184  3.687053  1.661349
H    -1.291371  1.862235  2.257249
H    -2.351213  4.162838  2.646248
H    -3.150529  3.879217  1.073799
H    -1.383829  4.131690  1.144595
