35
Energy: -21190.5574277 eV PBE+vdW (tier 2 basis)
C    0.299531  -2.370412  -0.279087
C    0.936896  -1.769003  0.964013
O    2.010863  -2.185626  1.394685
H    1.076323  -2.910755  -0.827026
H    -0.161018  -1.621085  -0.937014
H    -0.482387  -3.088696  0.005583
N    0.261882  -0.763220  1.603433
C    -0.938002  -0.062545  1.190455
C    -0.917188  1.300755  1.937719
O    0.033719  1.607262  2.662891
H    0.778799  -0.279039  2.341530
H    -0.894695  0.171313  0.111771
C    -2.239298  -0.847294  1.453733
C    -2.546832  -1.088734  2.941125
C    -4.049087  -1.076048  3.252444
N    -4.659148  0.234286  2.972080
C    -5.233048  0.546525  1.750477
N    -6.130205  -0.400379  1.281459
N    -4.882288  1.641500  1.145518
H    -2.190829  -1.805803  0.919323
H    -3.060295  -0.293601  0.978638
H    -2.112384  -2.040524  3.278879
H    -2.063669  -0.313642  3.558892
H    -4.215688  -1.323195  4.310990
H    -4.575596  -1.833409  2.657009
H    -4.079584  1.012170  3.281737
H    -6.636990  -0.151559  0.440972
H    -6.691534  -0.880415  1.977409
H    -5.497230  1.854854  0.356532
N    -1.981730  2.113332  1.749673
C    -2.063053  3.396076  2.428520
H    -2.837614  1.817300  1.263350
H    -1.841622  3.290152  3.499585
H    -3.079882  3.780922  2.297422
H    -1.345130  4.116962  2.012720
