35
Energy: -21190.3707972 eV PBE+vdW (tier 2 basis)
C    0.155466  -1.248465  1.750306
C    -0.245652  -1.185572  3.214208
O    0.484807  -1.596343  4.110932
H    1.144180  -1.710856  1.695792
H    0.205820  -0.248789  1.296004
H    -0.553213  -1.845960  1.160153
N    -1.470208  -0.630181  3.506888
C    -2.518629  -0.223637  2.570128
C    -3.157405  1.037058  3.189540
O    -4.157079  0.974495  3.911419
H    -1.726265  -0.696348  4.489808
H    -2.024854  0.055601  1.629287
C    -3.536347  -1.337586  2.279417
C    -4.361946  -1.152264  0.999533
C    -5.345203  0.032933  0.982630
N    -6.295525  0.056718  2.080260
C    -7.371510  -0.804916  2.090514
N    -8.057695  -0.792166  3.315017
N    -7.645896  -1.540271  1.063501
H    -4.195343  -1.453886  3.152388
H    -2.966842  -2.274654  2.196661
H    -3.684243  -1.045963  0.134576
H    -4.944806  -2.067436  0.826911
H    -5.919039  -0.006673  0.047976
H    -4.807247  0.993564  0.995487
H    -5.891575  0.301315  2.983503
H    -8.978412  -1.214838  3.271894
H    -8.075919  0.107552  3.788624
H    -8.524565  -2.045408  1.198112
N    -2.539143  2.225059  2.945805
C    -1.285563  2.452192  2.243488
H    -2.954036  3.005616  3.445434
H    -1.090525  3.529260  2.228362
H    -1.336581  2.112646  1.199456
H    -0.438455  1.956014  2.738881
