35
Energy: -21190.3951478 eV PBE+vdW (tier 2 basis)
C    1.206376  -0.089725  1.364357
C    -0.033065  0.546653  1.963018
O    0.048239  1.462296  2.776097
H    1.052285  -1.084626  0.934161
H    1.966946  -0.142381  2.150807
H    1.595929  0.572199  0.578844
N    -1.277435  0.058398  1.603401
C    -1.662675  -0.884775  0.550748
C    -1.362539  -2.368723  0.868924
O    -1.529000  -3.235181  0.005110
H    -2.023480  0.601690  2.028467
H    -2.765543  -0.869136  0.559778
C    -1.217648  -0.488022  -0.871517
C    -2.129893  0.559240  -1.515972
C    -3.477090  -0.015123  -1.976257
N    -3.329943  -1.002339  -3.044896
C    -3.974500  -2.238099  -3.032811
N    -3.958070  -2.883206  -1.795669
N    -4.523413  -2.647644  -4.128346
H    -1.209114  -1.390110  -1.497225
H    -0.184083  -0.122865  -0.842770
H    -1.617199  0.992171  -2.388183
H    -2.309176  1.397945  -0.822543
H    -4.129485  0.809263  -2.309894
H    -4.003275  -0.501627  -1.142928
H    -3.380546  -0.618172  -3.984499
H    -4.388488  -3.801076  -1.825217
H    -3.060795  -2.909424  -1.299691
H    -4.811352  -3.627028  -4.051414
N    -0.989350  -2.639086  2.141269
C    -0.745822  -3.983309  2.627304
H    -0.915881  -1.850099  2.774983
H    -0.873517  -4.672003  1.785801
H    -1.456937  -4.252395  3.420483
H    0.275628  -4.079710  3.019406
