35
Energy: -21190.2272016 eV PBE+vdW (tier 2 basis)
C    0.540834  0.841187  1.324714
C    -0.045975  0.053170  2.483578
O    0.566723  -0.123856  3.531162
H    1.315291  0.229000  0.842999
H    1.031183  1.737726  1.719591
H    -0.194686  1.132880  0.564647
N    -1.317880  -0.428805  2.269454
C    -2.033621  -1.368359  3.141812
C    -2.067114  -0.939473  4.631786
O    -2.102523  -1.776246  5.528821
H    -1.706821  -0.294109  1.343300
H    -3.086941  -1.292650  2.823564
C    -1.635620  -2.841889  2.961645
C    -0.193408  -3.216296  3.312480
C    0.074374  -4.714228  3.163263
N    -0.032933  -5.124904  1.770321
C    0.053222  -6.429226  1.316081
N    -0.341424  -7.405119  2.233947
N    0.392608  -6.629117  0.085103
H    -1.853723  -3.125682  1.921069
H    -2.317638  -3.427668  3.595101
H    0.024161  -2.923040  4.347009
H    0.521454  -2.663570  2.683346
H    -0.675857  -5.260256  3.758230
H    1.069208  -4.946817  3.591069
H    0.385088  -4.492332  1.093720
H    -0.040316  -8.341921  1.994222
H    -0.217990  -7.195040  3.218835
H    0.345529  -7.620939  -0.159039
N    -2.197296  0.399456  4.845244
C    -2.147383  0.962296  6.181556
H    -1.993466  1.009394  4.062185
H    -2.754694  1.874423  6.226065
H    -1.116302  1.199631  6.486568
H    -2.552093  0.223894  6.881169
