35
Energy: -21190.1434057 eV PBE+vdW (tier 2 basis)
C    0.412774  0.266709  1.517956
C    -0.115211  -0.274318  2.831569
O    0.583338  -0.914774  3.614378
H    -0.184809  -0.080080  0.663536
H    1.443882  -0.075031  1.399958
H    0.393553  1.365977  1.502080
N    -1.431661  -0.010184  3.129054
C    -2.361418  0.822134  2.386905
C    -2.135599  2.356065  2.411084
O    -2.600954  3.016420  1.482423
H    -1.720202  -0.382692  4.029089
H    -2.262346  0.588269  1.317362
C    -3.819945  0.502850  2.766350
C    -4.225984  0.862353  4.198473
C    -5.690883  0.526722  4.473690
N    -6.049949  0.864085  5.839744
C    -7.293592  0.505585  6.358881
N    -7.503949  1.043129  7.632742
N    -8.206365  -0.219041  5.812830
H    -3.985134  -0.570840  2.585969
H    -4.458942  1.048326  2.058233
H    -4.062771  1.940191  4.365944
H    -3.610144  0.328277  4.940225
H    -5.849911  -0.554231  4.336552
H    -6.333743  1.041872  3.733215
H    -5.729179  1.777981  6.149454
H    -6.710825  0.961907  8.263516
H    -8.357867  0.674401  8.041614
H    -7.995007  -0.424020  4.833943
N    -1.443292  2.966558  3.419256
C    -0.880466  2.463810  4.668029
H    -1.379208  3.967741  3.260256
H    -1.601481  1.864270  5.236722
H    -0.620137  3.331066  5.285070
H    0.028805  1.867391  4.518521
