35
Energy: -21190.2429183 eV PBE+vdW (tier 2 basis)
C    0.308357  -1.475237  0.181612
C    0.317179  -0.976053  1.616978
O    1.317893  -1.077666  2.326105
H    0.445021  -2.564306  0.190515
H    1.167986  -1.044093  -0.345155
H    -0.608829  -1.240106  -0.372187
N    -0.857370  -0.405853  2.030118
C    -1.263340  0.019783  3.371976
C    -1.245803  1.533380  3.691266
O    -2.127878  1.961135  4.447189
H    -1.607295  -0.394756  1.348861
H    -2.341205  -0.182915  3.396656
C    -0.629041  -0.741945  4.553531
C    -0.958472  -2.239149  4.624513
C    -2.439554  -2.599657  4.416306
N    -3.354462  -1.742518  5.152296
C    -4.358452  -1.018711  4.524526
N    -4.654605  0.177907  5.177276
N    -5.007012  -1.363636  3.458288
H    -1.010042  -0.237270  5.452595
H    0.459120  -0.614446  4.550099
H    -0.623568  -2.605993  5.607597
H    -0.367279  -2.796225  3.883218
H    -2.589114  -3.662169  4.671341
H    -2.700519  -2.502681  3.351370
H    -3.034026  -1.364623  6.036925
H    -5.422653  0.648267  4.705308
H    -3.847640  0.802686  5.266464
H    -4.811018  -2.337656  3.210051
N    -0.303045  2.369877  3.188715
C    0.902420  2.090597  2.421699
H    -0.456005  3.329487  3.485430
H    1.343046  1.127351  2.700982
H    1.636804  2.874553  2.639630
H    0.712442  2.088712  1.337666
