35
Energy: -21190.5145444 eV PBE+vdW (tier 2 basis)
C    -1.436815  2.548516  1.369945
C    -1.362306  1.060379  1.660312
O    -0.852699  0.267298  0.861820
H    -0.508767  3.026929  1.714583
H    -2.281684  3.034737  1.870928
H    -1.509882  2.691774  0.287449
N    -1.874628  0.680697  2.864707
C    -1.807631  -0.697906  3.333928
C    -3.208403  -1.342535  3.217984
O    -4.079029  -1.106928  4.057364
H    -2.228522  1.406410  3.498229
H    -1.087488  -1.201667  2.676401
C    -1.342373  -0.775434  4.793582
C    0.016870  -0.106683  5.060869
C    0.033661  0.725494  6.351890
N    -0.938685  1.827866  6.354524
C    -0.867961  2.853527  5.421088
N    0.395718  3.412056  5.279645
N    -1.934556  3.177771  4.761501
H    -1.317171  -1.833761  5.090160
H    -2.141421  -0.326121  5.402224
H    0.281731  0.559761  4.226223
H    0.814913  -0.862070  5.113306
H    1.040241  1.130778  6.523348
H    -0.199657  0.098536  7.224478
H    -1.904787  1.514259  6.416755
H    0.439265  4.250893  4.713836
H    0.967257  3.456500  6.117577
H    -1.804373  4.053226  4.246504
N    -3.448834  -2.153715  2.150515
C    -2.548475  -2.563081  1.080112
H    -4.388891  -2.539033  2.154686
H    -3.147894  -2.806502  0.194827
H    -1.960953  -3.455339  1.349911
H    -1.866874  -1.747774  0.807932
