35
Energy: -21190.285219 eV PBE+vdW (tier 2 basis)
C    0.038401  -0.942553  0.440942
C    -0.154927  -0.778488  1.938279
O    0.616944  -1.259660  2.760854
H    0.072379  -2.013622  0.206253
H    1.010791  -0.517278  0.163540
H    -0.743411  -0.468013  -0.165459
N    -1.258607  -0.056482  2.313786
C    -1.578636  0.210553  3.706441
C    -1.929236  -1.030517  4.553429
O    -1.579763  -1.045023  5.741789
H    -1.871691  0.313491  1.597349
H    -0.669337  0.580380  4.202443
C    -2.666129  1.304546  3.772924
C    -3.154837  1.655419  5.192452
C    -4.636017  1.317629  5.440805
N    -5.029140  -0.032839  5.037896
C    -5.156009  -1.107867  5.909314
N    -4.298163  -1.070972  7.006329
N    -6.053035  -2.000409  5.633126
H    -3.524427  0.981403  3.161830
H    -2.248197  2.194933  3.280826
H    -3.024698  2.731097  5.378769
H    -2.529907  1.144086  5.935975
H    -5.262371  2.013569  4.863312
H    -4.871058  1.480413  6.503367
H    -5.763565  -0.085833  4.340558
H    -3.315063  -0.879475  6.785249
H    -4.382702  -1.892512  7.595846
H    -5.979623  -2.800680  6.266349
N    -2.619080  -2.069944  4.020393
C    -3.380703  -2.146222  2.785110
H    -2.783697  -2.805670  4.700664
H    -4.213717  -2.840560  2.943412
H    -2.773357  -2.501048  1.940025
H    -3.823139  -1.177179  2.529700
