35
Energy: -21190.2898367 eV PBE+vdW (tier 2 basis)
C    1.532449  -0.068534  2.107917
C    0.588362  0.726552  2.983455
O    1.020656  1.361220  3.953821
H    2.458412  0.508336  2.014575
H    1.147997  -0.304036  1.108986
H    1.776402  -1.009030  2.622995
N    -0.747519  0.728617  2.706853
C    -1.519387  -0.132911  1.830497
C    -2.710284  0.699113  1.321304
O    -3.232705  1.546199  2.043232
H    -1.311789  1.327612  3.310611
H    -0.880017  -0.446964  0.995547
C    -2.082732  -1.401291  2.530715
C    -1.014958  -2.337820  3.116631
C    -0.559808  -1.971508  4.539685
N    0.788805  -2.471162  4.798762
C    1.529769  -2.050571  5.911124
N    1.436098  -0.699977  6.203373
N    2.204138  -2.949776  6.549280
H    -2.686598  -1.946299  1.789053
H    -2.787112  -1.078904  3.313748
H    -0.133983  -2.356687  2.458055
H    -1.405787  -3.366451  3.118589
H    -1.294482  -2.359949  5.271376
H    -0.552098  -0.886172  4.671860
H    0.869120  -3.485598  4.746629
H    2.084159  -0.380946  6.913079
H    1.324780  -0.031890  5.436561
H    2.818921  -2.524014  7.248395
N    -3.187613  0.416142  0.076437
C    -2.627456  -0.491560  -0.912495
H    -3.994612  0.973950  -0.184889
H    -3.274815  -0.479403  -1.795265
H    -2.586043  -1.528102  -0.548681
H    -1.619722  -0.188871  -1.233720
