35
Energy: -21190.1646193 eV PBE+vdW (tier 2 basis)
C    -2.571230  1.530342  -0.593269
C    -2.568640  1.586179  0.924113
O    -2.967577  2.581112  1.532686
H    -1.914666  2.322829  -0.974150
H    -3.584866  1.747556  -0.951754
H    -2.245061  0.568095  -1.006752
N    -2.116535  0.456101  1.544564
C    -1.866438  0.318488  2.986564
C    -1.252669  -1.051839  3.324749
O    -0.366933  -1.105506  4.173429
H    -1.673301  -0.235871  0.950660
H    -1.062159  1.014567  3.268877
C    -3.067270  0.669947  3.900498
C    -4.431703  0.071547  3.545180
C    -5.598513  0.932610  4.057014
N    -5.603566  2.251915  3.450959
C    -5.221742  3.374962  4.165516
N    -4.794302  4.411874  3.325928
N    -5.345797  3.403965  5.451216
H    -3.149747  1.761738  3.895387
H    -2.775680  0.387379  4.921966
H    -4.537716  -0.948965  3.944437
H    -4.533032  -0.014136  2.450449
H    -5.539494  1.091593  5.142071
H    -6.550698  0.417232  3.852808
H    -5.384304  2.288453  2.461140
H    -4.425523  5.210209  3.830631
H    -4.168697  4.110432  2.577569
H    -4.986721  4.281998  5.831183
N    -1.633040  -2.192796  2.652048
C    -2.884113  -2.527551  1.982174
H    -1.103071  -2.988420  3.002290
H    -3.344734  -1.636367  1.549861
H    -3.611078  -2.981098  2.673079
H    -2.683192  -3.240221  1.171626
