35
Energy: -21190.1209185 eV PBE+vdW (tier 2 basis)
C    -0.276438  -2.160715  1.609888
C    -0.274672  -0.847803  2.363761
O    0.755552  -0.365296  2.830681
H    0.752886  -2.374092  1.309622
H    -0.932089  -2.166077  0.731987
H    -0.620045  -2.969214  2.271067
N    -1.475259  -0.200811  2.564208
C    -2.821087  -0.499860  2.067172
C    -3.254476  -1.958312  2.355635
O    -3.600839  -2.721807  1.459420
H    -1.353498  0.664068  3.082320
H    -3.487588  0.138568  2.672599
C    -3.051151  -0.133399  0.594148
C    -2.711437  1.326164  0.292392
C    -3.006119  1.769856  -1.148823
N    -4.407602  1.781821  -1.520868
C    -5.051170  0.763728  -2.210969
N    -6.419278  1.030977  -2.370913
N    -4.568711  -0.332734  -2.682084
H    -4.101035  -0.349479  0.353172
H    -2.459753  -0.803389  -0.046273
H    -1.643275  1.511466  0.487353
H    -3.264421  1.989622  0.981807
H    -2.475444  1.124118  -1.863568
H    -2.599328  2.782634  -1.296696
H    -5.014522  2.376664  -0.966791
H    -6.844032  0.325040  -2.966163
H    -6.628171  1.971543  -2.697402
H    -3.606284  -0.495682  -2.380027
N    -3.247956  -2.356703  3.664259
C    -2.907255  -1.599001  4.857135
H    -3.526590  -3.325878  3.780337
H    -3.335567  -2.110797  5.726319
H    -3.339456  -0.589648  4.827437
H    -1.821815  -1.505238  5.004761
