35
Energy: -21190.1345941 eV PBE+vdW (tier 2 basis)
C    1.575646  0.487582  0.299984
C    1.130875  0.339554  1.743985
O    1.826236  -0.208492  2.593256
H    2.563880  0.962192  0.282987
H    0.886236  1.073652  -0.320556
H    1.685430  -0.513200  -0.136934
N    -0.101677  0.875796  2.035055
C    -0.751185  0.638516  3.329072
C    -2.272821  0.788500  3.200928
O    -3.015716  -0.111384  3.586998
H    -0.696397  1.122981  1.252229
H    -0.606836  -0.419057  3.592803
C    -0.121327  1.473043  4.471038
C    -0.724267  1.198556  5.856983
C    -1.961938  2.050838  6.189969
N    -2.532447  1.807948  7.501088
C    -3.397814  0.737661  7.739308
N    -3.675835  0.600895  9.108515
N    -3.931653  -0.077394  6.903197
H    -0.172969  2.547273  4.236751
H    0.942731  1.206083  4.473349
H    0.042599  1.402592  6.619890
H    -0.977146  0.132117  5.956958
H    -2.763196  1.891918  5.455843
H    -1.693628  3.118230  6.128782
H    -1.920602  2.020561  8.284146
H    -4.403288  -0.094959  9.248262
H    -3.894964  1.474890  9.580650
H    -3.564278  0.002223  5.951440
N    -2.795716  1.922153  2.623014
C    -2.190564  3.237823  2.458022
H    -3.812976  1.893855  2.624546
H    -2.304349  3.862436  3.358381
H    -2.670513  3.751783  1.615984
H    -1.122905  3.150947  2.235376
