35
Energy: -21190.635569 eV PBE+vdW (tier 2 basis)
C    0.544512  0.859373  0.850949
C    0.121992  -0.181352  1.871494
O    0.941399  -0.871104  2.485380
H    1.113632  0.364614  0.053539
H    1.222961  1.573638  1.334486
H    -0.303912  1.397618  0.410972
N    -1.226720  -0.286063  2.044817
C    -1.803204  -1.227413  2.990727
C    -2.884733  -2.040267  2.242591
O    -4.095184  -1.845526  2.403919
H    -1.873549  0.315018  1.495704
H    -0.968329  -1.886489  3.267681
C    -2.387972  -0.613030  4.289271
C    -1.815855  0.743953  4.739663
C    -2.733459  1.951513  4.474668
N    -2.968380  2.292312  3.070238
C    -3.770713  1.567264  2.208641
N    -5.010722  1.165257  2.674397
N    -3.327409  1.342608  1.005751
H    -2.231937  -1.354906  5.084275
H    -3.475914  -0.542697  4.164267
H    -0.831877  0.924584  4.281924
H    -1.637664  0.718833  5.825477
H    -2.307127  2.846403  4.950948
H    -3.703102  1.788327  4.968526
H    -2.139425  2.614419  2.576857
H    -5.229808  0.198629  2.437611
H    -5.216366  1.380478  3.644323
H    -4.066037  0.953830  0.414735
N    -2.445900  -2.983959  1.364363
C    -1.087325  -3.253971  0.921485
H    -3.202976  -3.419034  0.844778
H    -0.798708  -2.621275  0.067871
H    -1.012329  -4.306137  0.622234
H    -0.365141  -3.076722  1.725326
