35
Energy: -21189.9966789 eV PBE+vdW (tier 2 basis)
C    -0.768101  0.373808  -0.096545
C    -0.707625  0.104404  1.393430
O    0.354203  -0.090319  1.983669
H    -0.453159  1.411562  -0.272537
H    -1.767101  0.234221  -0.527741
H    -0.055255  -0.282007  -0.607557
N    -1.914397  0.099315  2.040557
C    -2.012602  0.109070  3.502789
C    -1.093082  1.240167  4.058489
O    -1.354906  2.382655  3.677431
H    -2.714250  0.445835  1.525577
H    -2.994514  0.557945  3.709157
C    -2.067117  -1.306070  4.130215
C    -1.222832  -2.409099  3.489458
C    -1.381371  -3.767390  4.192503
N    -0.876514  -3.846181  5.555984
C    0.453827  -3.715841  5.917789
N    1.376494  -4.206462  4.996568
N    0.725196  -3.240965  7.089293
H    -3.120942  -1.628608  4.081427
H    -1.839598  -1.213831  5.202039
H    -0.163832  -2.124442  3.459161
H    -1.529515  -2.533944  2.439468
H    -0.908224  -4.555868  3.584987
H    -2.445339  -4.045580  4.235900
H    -1.476307  -3.478424  6.287022
H    1.081844  -4.297870  4.030889
H    2.310917  -3.828587  5.090339
H    1.723787  -3.310959  7.299135
N    -0.147082  1.032481  5.018266
C    0.650018  -0.152645  5.318944
H    0.273025  1.921444  5.275425
H    0.129806  -0.873801  5.960531
H    1.537642  0.177315  5.869452
H    0.984878  -0.644023  4.396976
