35
Energy: -21190.5973669 eV PBE+vdW (tier 2 basis)
C    -4.284614  0.095337  0.390793
C    -2.961230  0.167569  1.128828
O    -1.907079  -0.210298  0.632297
H    -4.256216  0.803164  -0.448015
H    -5.155696  0.325296  1.017173
H    -4.399792  -0.908396  -0.034152
N    -3.027906  0.680056  2.409313
C    -1.831194  1.022336  3.167580
C    -1.414736  -0.016077  4.223734
O    -0.391257  0.165697  4.890806
H    -3.897490  1.116232  2.698185
H    -1.001822  1.001371  2.441752
C    -1.956502  2.422526  3.791515
C    -1.621657  3.553987  2.816253
C    -0.112939  3.681184  2.558838
N    0.625650  4.041856  3.767167
C    1.816185  3.420833  4.146417
N    1.824575  2.039356  3.984340
N    2.774687  4.171374  4.582419
H    -1.277742  2.488052  4.652248
H    -2.975698  2.540496  4.196056
H    -1.993234  4.505890  3.225781
H    -2.140201  3.407766  1.854135
H    0.059288  4.428895  1.766074
H    0.297467  2.735243  2.181091
H    0.720210  5.041916  3.922707
H    0.992438  1.519026  4.283226
H    2.677581  1.602653  4.314784
H    3.527264  3.606196  4.985162
N    -2.214105  -1.099887  4.348867
C    -1.909987  -2.209155  5.231555
H    -2.987242  -1.168382  3.695692
H    -1.621563  -3.105079  4.663428
H    -2.773952  -2.451133  5.864281
H    -1.070491  -1.909901  5.867670
