35
Energy: -21190.429707 eV PBE+vdW (tier 2 basis)
C    0.675912  0.358138  -0.247918
C    0.714685  0.130324  1.250071
O    0.702314  1.058790  2.055730
H    1.498287  1.028604  -0.525259
H    -0.261170  0.870127  -0.500273
H    0.748394  -0.563129  -0.839075
N    0.783621  -1.182250  1.643125
C    0.704155  -1.587469  3.042419
C    1.907669  -2.475211  3.431101
O    1.767280  -3.641567  3.817642
H    0.736635  -1.903607  0.932901
H    0.778674  -0.643740  3.605263
C    -0.633949  -2.251301  3.388564
C    -1.052706  -3.424239  2.475825
C    -1.746017  -4.550352  3.243206
N    -0.789119  -5.213374  4.105200
C    -1.178082  -6.039386  5.138453
N    -0.115079  -6.411413  5.968583
N    -2.367212  -6.464607  5.414092
H    -1.406547  -1.470336  3.364114
H    -0.569976  -2.594808  4.430462
H    -0.176164  -3.861058  1.971058
H    -1.726650  -3.066962  1.685119
H    -2.187722  -5.268653  2.531132
H    -2.585197  -4.131687  3.832845
H    0.126559  -4.764795  4.171245
H    -0.377509  -7.186238  6.569714
H    0.770336  -6.564425  5.494655
H    -3.065002  -6.047881  4.794429
N    3.147111  -1.921894  3.347371
C    3.534081  -0.576884  2.952326
H    3.886090  -2.574772  3.591953
H    4.429950  -0.286275  3.513675
H    2.743738  0.147523  3.177468
H    3.758111  -0.510925  1.876610
