35
Energy: -21190.2565491 eV PBE+vdW (tier 2 basis)
C    -1.096092  -0.926290  0.151335
C    -0.844840  -0.810810  1.644683
O    0.157893  -1.269933  2.183289
H    -2.063080  -0.520147  -0.171286
H    -1.037495  -1.983463  -0.134969
H    -0.294591  -0.399418  -0.381584
N    -1.817223  -0.160375  2.356534
C    -1.714787  0.070564  3.789277
C    -1.713705  -1.188736  4.684315
O    -1.056604  -1.163049  5.725361
H    -2.639271  0.178348  1.870989
H    -0.722638  0.499228  3.992947
C    -2.790859  1.096203  4.200732
C    -2.725939  1.568124  5.664467
C    -3.614990  0.805785  6.659430
N    -5.041190  0.961180  6.419419
C    -5.830683  0.039282  5.751823
N    -7.115877  0.535483  5.488051
N    -5.527301  -1.149329  5.354083
H    -3.794305  0.698752  3.977425
H    -2.648807  1.964610  3.539411
H    -3.015665  2.630394  5.701286
H    -1.689077  1.520527  6.027975
H    -3.390663  1.163077  7.676060
H    -3.374523  -0.264106  6.663459
H    -5.372871  1.919229  6.369103
H    -7.717687  -0.212195  5.154053
H    -7.541025  1.037699  6.263570
H    -4.539263  -1.359198  5.512112
N    -2.475915  -2.279543  4.372587
C    -3.320461  -2.571018  3.222763
H    -2.317782  -3.038731  5.028915
H    -3.967286  -3.414339  3.488753
H    -2.737987  -2.841381  2.329783
H    -3.985696  -1.733115  2.989546
