35
Energy: -21190.092836 eV PBE+vdW (tier 2 basis)
C    0.542783  0.785896  0.209648
C    0.414667  0.082429  1.544943
O    1.386209  -0.235249  2.226827
H    1.601474  0.813659  -0.059615
H    0.160153  1.814991  0.264940
H    -0.025377  0.276457  -0.580458
N    -0.860524  -0.201423  1.981366
C    -2.121072  0.237845  1.403237
C    -2.360582  1.767331  1.408754
O    -2.838215  2.300998  0.407157
H    -0.879355  -0.656668  2.889970
H    -2.134494  -0.007533  0.330963
C    -3.281523  -0.518058  2.075711
C    -4.652945  -0.222998  1.467655
C    -5.768169  -1.001091  2.160789
N    -7.054084  -0.693675  1.536284
C    -8.271850  -1.125991  2.058858
N    -8.199075  -2.331266  2.755321
N    -9.409262  -0.527143  1.958179
H    -3.297239  -0.286371  3.153772
H    -3.060159  -1.594078  1.991231
H    -4.646817  -0.468159  0.394642
H    -4.866586  0.855545  1.533562
H    -5.777192  -0.769281  3.242292
H    -5.562516  -2.080007  2.071661
H    -7.110918  0.247820  1.160037
H    -9.129352  -2.685154  2.957377
H    -7.588174  -3.037989  2.356802
H    -9.307939  0.403396  1.543967
N    -2.063167  2.502673  2.520786
C    -1.504856  2.105775  3.806816
H    -2.250809  3.490921  2.381810
H    -2.035019  1.245949  4.235840
H    -1.634682  2.942393  4.502189
H    -0.433902  1.866984  3.750593
