35
Energy: -21189.881341 eV PBE+vdW (tier 2 basis)
C    -0.309433  -0.249253  -0.071095
C    0.005224  0.012875  1.390264
O    1.162054  0.066250  1.800024
H    -1.001495  0.491903  -0.491552
H    -0.758362  -1.244167  -0.196526
H    0.631452  -0.214342  -0.626231
N    -1.044796  0.183101  2.260255
C    -2.487618  0.113169  2.027769
C    -2.875724  -1.281986  1.454090
O    -2.540454  -2.273089  2.097883
H    -0.735844  0.239116  3.224992
H    -2.919490  0.035458  3.037828
C    -3.064631  1.408494  1.429771
C    -2.856441  2.605135  2.360037
C    -3.375534  3.934333  1.791565
N    -4.781310  3.959668  1.405747
C    -5.785986  3.935455  2.354189
N    -7.062717  3.846781  1.768630
N    -5.507552  3.961172  3.612583
H    -4.143813  1.265366  1.270579
H    -2.617998  1.622762  0.446669
H    -1.783372  2.729836  2.569841
H    -3.356711  2.420656  3.321997
H    -2.796497  4.216976  0.899232
H    -3.228629  4.721211  2.542545
H    -5.016078  3.529337  0.518804
H    -7.818024  3.970018  2.434969
H    -7.192971  4.437753  0.950487
H    -6.353780  4.064782  4.177068
N    -3.617056  -1.442448  0.311269
C    -4.014239  -0.535176  -0.754719
H    -3.809771  -2.428064  0.157824
H    -4.353826  -1.144257  -1.599555
H    -3.179317  0.080824  -1.110109
H    -4.843427  0.125430  -0.464701
