35
Energy: -21190.572943 eV PBE+vdW (tier 2 basis)
C    -2.036739  1.572006  -0.556786
C    -1.746125  0.515361  0.488628
O    -1.071728  -0.488791  0.211995
H    -1.086128  1.927028  -0.973088
H    -2.606814  2.429103  -0.178978
H    -2.598388  1.106169  -1.376531
N    -2.261922  0.749876  1.725202
C    -2.215496  -0.145860  2.895101
C    -0.828674  -0.247017  3.582677
O    -0.776748  -0.176432  4.813550
H    -2.743076  1.630723  1.857040
H    -2.817403  0.353577  3.664277
C    -2.890756  -1.495214  2.557137
C    -2.770603  -2.624083  3.590782
C    -1.443315  -3.405769  3.578160
N    -1.056823  -3.799353  2.237009
C    0.230785  -3.706342  1.747939
N    0.268924  -3.548315  0.359375
N    1.330266  -3.777191  2.424395
H    -2.494060  -1.840807  1.594661
H    -3.955658  -1.275125  2.391841
H    -3.591010  -3.333435  3.396722
H    -2.930516  -2.245563  4.611060
H    -1.552676  -4.278758  4.245364
H    -0.631021  -2.795553  3.994678
H    -1.786740  -3.943585  1.549816
H    1.229889  -3.502183  0.032327
H    -0.285768  -2.764102  0.016868
H    1.147245  -4.066379  3.389167
N    0.237897  -0.418549  2.771012
C    1.597670  -0.538751  3.268319
H    0.048910  -0.569897  1.777675
H    2.224509  0.280674  2.887770
H    2.023650  -1.503962  2.960551
H    1.566544  -0.483290  4.361388
