35
Energy: -21190.582603 eV PBE+vdW (tier 2 basis)
C    0.353966  -0.981394  0.661662
C    -0.088059  -0.953198  2.110197
O    0.584440  -1.495045  2.995927
H    1.393339  -1.318623  0.628991
H    0.269770  0.000416  0.177771
H    -0.257675  -1.691340  0.086083
N    -1.243715  -0.287565  2.422269
C    -2.366724  -0.057333  1.517838
C    -3.124643  1.247438  1.855331
O    -4.247343  1.459787  1.400436
H    -1.557734  -0.448445  3.398670
H    -1.966782  0.106468  0.505831
C    -3.330822  -1.258588  1.440866
C    -4.078661  -1.666267  2.722105
C    -3.258838  -2.224018  3.894979
N    -2.695764  -1.144899  4.737775
C    -1.886650  -1.486650  5.860250
N    -0.819426  -2.295055  5.538931
N    -2.083534  -1.086318  7.069601
H    -2.757179  -2.121131  1.065701
H    -4.080455  -1.016115  0.675799
H    -4.795761  -2.448334  2.432079
H    -4.699230  -0.824602  3.071788
H    -2.429671  -2.844953  3.531403
H    -3.901474  -2.881956  4.505242
H    -3.435281  -0.512304  5.041126
H    -0.207009  -2.444996  6.334022
H    -0.319044  -2.084756  4.665894
H    -2.991366  -0.622418  7.164987
N    -2.445333  2.117079  2.648580
C    -2.971465  3.413331  3.026074
H    -1.517780  1.834486  2.949257
H    -3.995982  3.480855  2.644499
H    -2.377038  4.229405  2.591072
H    -2.983554  3.529415  4.118314
