35
Energy: -21190.3095829 eV PBE+vdW (tier 2 basis)
C    -0.023244  -0.156803  -0.048198
C    0.072081  0.036333  1.457756
O    1.153908  0.197334  2.018536
H    0.995550  -0.172165  -0.443820
H    -0.570658  0.671208  -0.521999
H    -0.530135  -1.091140  -0.321364
N    -1.095932  0.025663  2.175961
C    -2.459574  -0.063411  1.693895
C    -3.277727  1.049587  2.373472
O    -3.005569  1.425224  3.512378
H    -1.003165  0.289243  3.156504
H    -2.456716  0.075890  0.605314
C    -3.122250  -1.423567  2.024086
C    -2.476913  -2.609237  1.311809
C    -3.142411  -3.938651  1.691189
N    -2.627755  -5.095096  0.972726
C    -3.015619  -5.329955  -0.334866
N    -2.312351  -6.398550  -0.911850
N    -3.907983  -4.591025  -0.903349
H    -4.190801  -1.374278  1.758523
H    -3.081916  -1.556088  3.117350
H    -1.404392  -2.652976  1.558341
H    -2.565103  -2.485409  0.222081
H    -4.218104  -3.886524  1.477378
H    -3.024018  -4.131544  2.768154
H    -1.672500  -5.362070  1.188174
H    -2.683999  -6.696129  -1.807379
H    -2.148521  -7.187573  -0.291295
H    -4.172511  -4.970035  -1.815379
N    -4.341567  1.551430  1.682780
C    -4.737745  1.256930  0.314333
H    -4.863077  2.256049  2.194570
H    -3.977147  1.568979  -0.417146
H    -5.656125  1.811461  0.095707
H    -4.952750  0.189575  0.164036
