35
Energy: -21190.007797 eV PBE+vdW (tier 2 basis)
C    -0.027900  0.249860  0.755323
C    -0.564749  -0.579393  1.894120
O    0.193954  -1.103560  2.720611
H    -0.682331  1.072918  0.452485
H    0.103688  -0.402358  -0.118616
H    0.941793  0.655951  1.054960
N    -1.907773  -0.838330  1.982131
C    -3.098677  -0.216314  1.407975
C    -2.942551  0.078088  -0.103006
O    -2.540665  -0.794266  -0.865231
H    -2.095303  -1.470863  2.756154
H    -3.833783  -1.038957  1.373423
C    -3.765627  0.817888  2.365253
C    -3.353877  2.305682  2.518403
C    -1.886768  2.734340  2.497054
N    -1.048216  1.951990  3.378642
C    0.285971  2.280682  3.545868
N    0.944144  1.362556  4.373181
N    0.761043  3.332204  2.965375
H    -3.697490  0.345342  3.357212
H    -4.842983  0.815741  2.134866
H    -3.804612  2.639410  3.467203
H    -3.864993  2.924938  1.761739
H    -1.835106  3.807214  2.750309
H    -1.473929  2.661150  1.478920
H    -1.480969  1.461485  4.151809
H    1.937808  1.551953  4.457161
H    0.776245  0.389595  4.095654
H    1.777044  3.377411  3.074578
N    -3.351753  1.308017  -0.521987
C    -3.315381  1.705243  -1.917344
H    -3.616241  1.994759  0.172342
H    -4.289597  2.098417  -2.236483
H    -3.071775  0.817116  -2.509128
H    -2.546478  2.470783  -2.095551
