35
Energy: -21190.6522809 eV PBE+vdW (tier 2 basis)
C    -1.427373  -4.765341  2.484479
C    -1.046639  -3.302364  2.565972
O    -0.106984  -2.822723  1.916384
H    -1.636065  -5.185700  3.477459
H    -0.608352  -5.320479  2.019461
H    -2.337902  -4.880795  1.878219
N    -1.815629  -2.539030  3.390742
C    -1.724594  -1.079854  3.430221
C    -0.613732  -0.626431  4.417795
O    -0.866796  -0.110539  5.506282
H    -2.613112  -2.955481  3.867809
H    -1.426122  -0.756063  2.419621
C    -3.074631  -0.469850  3.802045
C    -4.238576  -0.906850  2.888276
C    -5.329501  -1.713045  3.607345
N    -4.865996  -2.975672  4.191337
C    -4.871834  -4.158907  3.444219
N    -4.675419  -5.288052  4.238252
N    -5.020777  -4.295355  2.174054
H    -2.958482  0.620884  3.783854
H    -3.284361  -0.716035  4.853820
H    -3.857922  -1.488942  2.035643
H    -4.727885  -0.024097  2.452218
H    -6.172689  -1.901096  2.920244
H    -5.730019  -1.112756  4.435739
H    -5.154959  -3.113671  5.154966
H    -4.026067  -5.188153  5.012623
H    -4.503392  -6.117406  3.678807
H    -5.268562  -3.414274  1.720085
N    0.636548  -0.864948  3.943900
C    1.828143  -0.624944  4.732304
H    0.695614  -1.409710  3.077808
H    1.547338  -0.017493  5.599242
H    2.580143  -0.085551  4.141299
H    2.273586  -1.565276  5.091477
