35
Energy: -21190.468298 eV PBE+vdW (tier 2 basis)
C    0.282553  -0.346685  1.702862
C    -0.317158  -0.589500  3.075391
O    0.270074  -0.293691  4.109558
H    1.308692  -0.731642  1.690458
H    0.338818  0.736596  1.532964
H    -0.285346  -0.803539  0.882472
N    -1.564023  -1.180048  3.074254
C    -2.377789  -1.288440  4.279581
C    -2.673030  -2.745919  4.702010
O    -3.555147  -3.000743  5.518985
H    -2.039337  -1.270702  2.181960
H    -1.747721  -0.869581  5.082580
C    -3.673634  -0.477768  4.179429
C    -3.449199  1.029425  4.073566
C    -4.761838  1.825691  4.112611
N    -5.474897  1.696892  5.371631
C    -5.189310  2.488687  6.476179
N    -6.040508  2.215876  7.553586
N    -4.288754  3.402107  6.592851
H    -4.267165  -0.709682  5.072960
H    -4.263987  -0.838705  3.317372
H    -2.919420  1.283827  3.141380
H    -2.799083  1.362675  4.897084
H    -5.434836  1.469062  3.319183
H    -4.560757  2.888476  3.889992
H    -6.423087  1.344451  5.327447
H    -6.176459  1.225764  7.741694
H    -5.736743  2.720098  8.381803
H    -3.822081  3.594194  5.703615
N    -1.872619  -3.687820  4.132959
C    -1.928389  -5.088083  4.501473
H    -1.144155  -3.357171  3.510319
H    -2.033239  -5.725025  3.612784
H    -2.801864  -5.226000  5.147815
H    -1.028559  -5.395079  5.054193
