35
Energy: -21190.2927397 eV PBE+vdW (tier 2 basis)
C    -0.045647  -0.518337  1.079860
C    -0.678762  0.179299  2.266557
O    -0.036182  0.931327  2.993081
H    1.019657  -0.646835  1.293900
H    -0.133866  0.130041  0.196594
H    -0.494968  -1.487508  0.835653
N    -2.016191  -0.056366  2.532443
C    -3.027530  -0.736825  1.717459
C    -2.839353  -2.276650  1.649057
O    -3.303040  -2.933872  0.720016
H    -2.356928  0.544708  3.277517
H    -3.966454  -0.603418  2.280391
C    -3.260947  -0.153155  0.316542
C    -3.527305  1.349296  0.299264
C    -3.871639  1.867741  -1.103425
N    -5.132849  1.340665  -1.622387
C    -5.254566  0.649090  -2.819881
N    -4.174695  -0.192249  -3.112134
N    -6.302993  0.850580  -3.544838
H    -4.123771  -0.689667  -0.100895
H    -2.404520  -0.389919  -0.333287
H    -2.648868  1.902846  0.667210
H    -4.357228  1.592184  0.984191
H    -3.068931  1.604675  -1.806907
H    -3.920202  2.967924  -1.082131
H    -5.941463  1.941892  -1.497500
H    -4.334324  -0.784292  -3.919603
H    -3.801235  -0.717697  -2.325283
H    -6.360170  0.177976  -4.313703
N    -2.182669  -2.816363  2.710156
C    -1.939533  -4.238849  2.844656
H    -1.798507  -2.170296  3.391443
H    -2.356446  -4.622598  3.785703
H    -0.864166  -4.465220  2.815979
H    -2.431028  -4.741408  2.004876
