35
Energy: -21190.4862515 eV PBE+vdW (tier 2 basis)
C    0.245203  -2.416803  2.658660
C    0.487437  -0.999193  3.134201
O    1.622872  -0.498300  3.131764
H    0.798099  -3.111843  3.303356
H    0.649272  -2.520093  1.644294
H    -0.815579  -2.696296  2.649157
N    -0.610294  -0.329903  3.564223
C    -0.600888  1.094680  3.903176
C    -0.106053  1.332038  5.357778
O    -0.836976  1.739472  6.263897
H    -1.534659  -0.771267  3.517133
H    0.153864  1.554687  3.244515
C    -1.957317  1.732996  3.562576
C    -3.180845  1.538189  4.480323
C    -3.523203  0.129152  4.987605
N    -3.438908  -0.983415  4.020078
C    -4.299588  -1.190396  2.925819
N    -5.049515  -0.092982  2.538068
N    -4.356681  -2.272126  2.227229
H    -2.210495  1.398198  2.544780
H    -1.795251  2.817897  3.489244
H    -4.035811  1.969059  3.939300
H    -3.045911  2.140749  5.386299
H    -4.517008  0.163621  5.472039
H    -2.807175  -0.124694  5.780632
H    -3.249852  -1.868090  4.482251
H    -5.425274  0.499793  3.269414
H    -5.721386  -0.335234  1.817128
H    -3.672828  -2.964133  2.545191
N    1.212686  1.050147  5.506634
C    1.885375  1.115208  6.787904
H    1.682306  0.624255  4.698220
H    1.222334  1.619953  7.498488
H    2.822431  1.681477  6.703562
H    2.117989  0.111137  7.173986
