35
Energy: -21190.2335858 eV PBE+vdW (tier 2 basis)
C    0.041701  -0.907429  -0.651231
C    0.039467  -0.527961  0.819307
O    0.893778  -0.933205  1.603073
H    1.018110  -0.651509  -1.079750
H    -0.745960  -0.418825  -1.238473
H    -0.077204  -1.995354  -0.732006
N    -0.977882  0.304275  1.208254
C    -1.197152  0.647887  2.616144
C    -2.693422  0.935710  2.849415
O    -3.357410  0.192300  3.568644
H    -1.717350  0.504258  0.545448
H    -1.007193  -0.258714  3.206055
C    -0.238298  1.751741  3.110049
C    -0.619290  2.324845  4.475109
C    0.237672  3.545608  4.835309
N    -0.290557  4.348833  5.929441
C    -1.359514  5.196682  5.708475
N    -1.831084  5.778047  6.893955
N    -1.840503  5.369086  4.520635
H    -0.205025  2.565719  2.372743
H    0.770340  1.315028  3.133357
H    -0.535281  1.553063  5.256499
H    -1.669197  2.650751  4.466596
H    0.302697  4.210944  3.964191
H    1.261849  3.244099  5.099229
H    -0.272007  3.918409  6.848370
H    -1.109114  6.048313  7.557047
H    -2.507706  6.519244  6.748747
H    -2.534244  6.120336  4.515903
N    -3.286907  1.992271  2.202813
C    -2.683440  3.171029  1.585096
H    -4.261090  2.083465  2.479464
H    -2.333878  3.904393  2.330032
H    -3.439994  3.647911  0.950420
H    -1.844434  2.892182  0.937838
