35
Energy: -21190.1224475 eV PBE+vdW (tier 2 basis)
C    -0.347103  0.114161  0.176213
C    -0.007782  0.316421  1.644486
O    1.004948  0.921193  1.989446
H    0.454606  -0.474670  -0.287121
H    -0.358639  1.093103  -0.318298
H    -1.304613  -0.390199  -0.003692
N    -0.922624  -0.208348  2.517920
C    -0.874440  -0.333631  3.981669
C    -1.755787  0.655032  4.777671
O    -2.243147  0.255723  5.842416
H    -1.717629  -0.668114  2.090585
H    -1.406124  -1.275424  4.176700
C    0.529182  -0.544143  4.612971
C    1.376412  0.648857  5.073084
C    0.865921  1.414145  6.316461
N    0.365819  0.606777  7.413551
C    1.195189  -0.135518  8.234961
N    0.484999  -1.009184  9.067614
N    2.484596  -0.117539  8.306471
H    1.111376  -1.133838  3.892509
H    0.370211  -1.201200  5.480017
H    1.521993  1.358482  4.248802
H    2.371743  0.238554  5.299601
H    0.056125  2.100670  6.038642
H    1.679083  2.054432  6.692017
H    -0.577464  0.247025  7.276840
H    -0.375362  -0.628520  9.452174
H    1.092677  -1.390549  9.786616
H    2.892937  0.468945  7.575980
N    -2.022828  1.909309  4.324364
C    -1.396224  2.690342  3.266461
H    -2.653430  2.401675  4.951023
H    -1.403673  3.744796  3.566716
H    -1.934635  2.600872  2.311177
H    -0.354030  2.393213  3.109531
