35
Energy: -21190.4051625 eV PBE+vdW (tier 2 basis)
C    -0.142960  -0.406924  1.872208
C    -0.731046  0.343161  3.044269
O    -0.042777  0.659151  4.025568
H    0.361447  0.303018  1.200807
H    -0.891901  -0.967314  1.302654
H    0.624950  -1.083781  2.261468
N    -2.064765  0.654840  3.035277
C    -3.026551  0.859354  1.941652
C    -3.722790  -0.470124  1.581666
O    -3.188889  -1.328137  0.880527
H    -2.337009  1.144718  3.883577
H    -3.768239  1.534731  2.395835
C    -2.502316  1.541344  0.668007
C    -1.623014  2.790961  0.837293
C    -2.111786  3.892557  1.803896
N    -1.585682  3.761275  3.149360
C    -2.321445  3.421891  4.252423
N    -1.506102  3.141849  5.360534
N    -3.620839  3.397148  4.205345
H    -3.398199  1.809700  0.085095
H    -1.966392  0.802435  0.056975
H    -1.509632  3.234784  -0.163368
H    -0.605672  2.499891  1.141193
H    -3.205566  3.907892  1.894232
H    -1.812930  4.874354  1.404986
H    -0.580913  3.781745  3.270576
H    -2.034355  2.855809  6.178597
H    -0.759385  2.468815  5.153776
H    -4.002687  3.099747  5.105660
N    -4.967129  -0.608861  2.121232
C    -5.769855  -1.805349  1.954969
H    -5.319370  0.143242  2.701512
H    -5.235070  -2.466587  1.265024
H    -6.754249  -1.563640  1.532053
H    -5.911470  -2.329692  2.910858
