35
Energy: -21190.3876012 eV PBE+vdW (tier 2 basis)
C    0.151846  0.493909  -0.135890
C    0.076914  0.063858  1.318670
O    0.868117  -0.733640  1.807900
H    -0.009924  -0.386839  -0.770366
H    1.164022  0.862342  -0.340847
H    -0.573131  1.270357  -0.410343
N    -0.936342  0.648841  2.048188
C    -1.278224  0.192836  3.402069
C    -2.644236  0.750701  3.818279
O    -3.478935  0.056901  4.402804
H    -1.676769  1.092433  1.515054
H    -1.375617  -0.901439  3.407983
C    -0.188246  0.595956  4.426985
C    -0.479873  0.254533  5.896037
C    -0.483515  -1.231982  6.266258
N    -1.626455  -1.931859  5.714725
C    -1.827144  -3.281729  5.930726
N    -3.069835  -3.723001  5.465780
N    -1.032055  -4.124346  6.501186
H    -0.022682  1.681883  4.337895
H    0.742069  0.108021  4.107533
H    -1.428181  0.712378  6.223515
H    0.302721  0.733822  6.502158
H    -0.458206  -1.315807  7.370362
H    0.442509  -1.702035  5.892882
H    -2.456109  -1.370418  5.521316
H    -3.109112  -4.736770  5.432680
H    -3.392512  -3.285056  4.607705
H    -0.212032  -3.657634  6.893818
N    -2.853751  2.067296  3.527332
C    -4.050685  2.780091  3.939466
H    -2.071003  2.602209  3.165935
H    -4.421715  3.411336  3.122514
H    -3.863449  3.409894  4.821472
H    -4.810891  2.036722  4.199153
