35
Energy: -21190.5375274 eV PBE+vdW (tier 2 basis)
C    -1.837912  0.824454  0.737254
C    -1.549416  0.218006  2.095914
O    -2.034562  0.662829  3.138251
H    -2.819687  0.463626  0.396602
H    -1.090388  0.561267  -0.021505
H    -1.894604  1.913230  0.837859
N    -0.742348  -0.883502  2.079607
C    -0.482433  -1.699699  3.246152
C    0.572464  -2.736633  2.825528
O    0.789610  -2.995420  1.641185
H    -0.375360  -1.263751  1.209085
H    -0.071729  -1.062724  4.047254
C    -1.767717  -2.374514  3.799162
C    -2.536387  -3.184413  2.754347
C    -4.016697  -3.379430  3.124600
N    -4.875282  -3.726487  2.002596
C    -5.185287  -2.775950  1.031695
N    -5.787258  -3.347215  -0.095896
N    -4.982389  -1.503793  1.061240
H    -2.399938  -1.555592  4.170570
H    -1.504226  -2.992616  4.671458
H    -2.060016  -4.160964  2.576651
H    -2.501292  -2.648057  1.795517
H    -4.410243  -2.453421  3.571488
H    -4.134841  -4.158315  3.891771
H    -4.737640  -4.661421  1.629418
H    -6.493139  -4.048744  0.112712
H    -6.145465  -2.622960  -0.712105
H    -4.441820  -1.215815  1.879823
N    1.209421  -3.354375  3.856811
C    2.192126  -4.404477  3.664637
H    0.995089  -3.052871  4.799955
H    3.170499  -4.111550  4.069724
H    2.290256  -4.571319  2.587119
H    1.873612  -5.340385  4.144518
