35
Energy: -21190.1893445 eV PBE+vdW (tier 2 basis)
C    0.090416  -0.202143  -0.448412
C    0.296804  0.497133  0.881270
O    1.393772  1.007609  1.154233
H    1.068364  -0.278816  -0.931287
H    -0.575247  0.370104  -1.109801
H    -0.350391  -1.197671  -0.318651
N    -0.709353  0.519587  1.812196
C    -2.154349  0.621818  1.613527
C    -2.689975  -0.389280  0.575439
O    -2.596864  -1.597013  0.773386
H    -0.402207  0.950332  2.707118
H    -2.603409  0.249984  2.547694
C    -2.608590  2.102836  1.461602
C    -1.784450  2.982358  0.491882
C    -0.893202  4.042008  1.180759
N    0.019298  3.519220  2.195785
C    -0.353143  3.374877  3.519056
N    -0.998312  4.486082  4.064788
N    -0.120385  2.254200  4.128253
H    -2.568306  2.547617  2.464858
H    -3.676981  2.116408  1.196969
H    -2.453303  3.529179  -0.192020
H    -1.148131  2.358171  -0.151509
H    -1.535500  4.795659  1.654505
H    -0.303835  4.562467  0.411237
H    0.618277  2.740868  1.889492
H    -0.631084  5.389439  3.779397
H    -1.173924  4.425745  5.061108
H    -0.264583  2.323785  5.138377
N    -3.294527  0.135364  -0.530816
C    -3.826054  -0.697649  -1.591651
H    -3.293410  1.139289  -0.655886
H    -4.842940  -0.384185  -1.861884
H    -3.849689  -1.728228  -1.222339
H    -3.191577  -0.662469  -2.490223
