35
Energy: -21190.2680242 eV PBE+vdW (tier 2 basis)
C    -0.704644  -1.426816  0.975009
C    0.270151  -1.079307  2.078960
O    1.342598  -1.661492  2.237377
H    -0.905647  -0.567542  0.319829
H    -1.663340  -1.750432  1.406448
H    -0.272523  -2.237959  0.383452
N    -0.099332  -0.067641  2.933415
C    -1.281487  0.770401  2.858517
C    -1.227725  1.956959  1.869501
O    -2.252022  2.267355  1.260530
H    0.575644  0.099992  3.674038
H    -2.102994  0.160505  2.461108
C    -1.688903  1.256329  4.263359
C    -2.245369  0.120889  5.131960
C    -3.683342  -0.264740  4.743415
N    -4.108819  -1.568163  5.230920
C    -3.692611  -2.712965  4.572617
N    -4.024630  -3.880345  5.275505
N    -3.049145  -2.639222  3.456081
H    -2.437987  2.054322  4.148807
H    -0.817488  1.721422  4.752864
H    -2.217421  0.416436  6.191998
H    -1.603585  -0.765984  5.027906
H    -3.786166  -0.295287  3.651743
H    -4.393913  0.487821  5.115713
H    -4.175985  -1.663533  6.239302
H    -3.881123  -4.732432  4.744328
H    -4.938419  -3.865196  5.721788
H    -2.913640  -3.567857  3.050173
N    -0.067661  2.655800  1.686629
C    1.224291  2.539633  2.347573
H    -0.176990  3.399762  1.004630
H    1.786914  1.652769  2.025987
H    1.125444  2.518108  3.441628
H    1.812377  3.429566  2.096446
