35
Energy: -21190.4980514 eV PBE+vdW (tier 2 basis)
C    -2.108229  1.145864  0.967329
C    -1.308921  0.416213  2.028294
O    -0.117813  0.130123  1.850631
H    -3.145477  1.356401  1.254421
H    -2.108339  0.539766  0.052566
H    -1.601848  2.089888  0.731731
N    -1.985537  0.108389  3.169260
C    -1.490019  -0.669112  4.317081
C    -0.453117  0.062206  5.209405
O    -0.627606  0.107122  6.427530
H    -2.941314  0.434443  3.235300
H    -2.357342  -0.780773  4.979922
C    -0.990149  -2.076800  3.938636
C    -2.055683  -2.944054  3.268026
C    -1.535188  -4.341549  2.939036
N    -2.569258  -5.142174  2.305207
C    -2.349631  -6.483369  2.003095
N    -3.404011  -7.036932  1.266892
N    -1.335004  -7.213760  2.310708
H    -0.656044  -2.550597  4.874346
H    -0.108440  -1.993143  3.288978
H    -2.394553  -2.457161  2.338319
H    -2.939888  -3.034325  3.919372
H    -1.231041  -4.848397  3.868219
H    -0.629355  -4.259710  2.306764
H    -3.119767  -4.649790  1.606679
H    -3.280063  -8.040512  1.166780
H    -4.329782  -6.800520  1.614564
H    -0.578771  -6.658857  2.717379
N    0.621227  0.572333  4.559496
C    1.695686  1.256388  5.251106
H    0.658661  0.444181  3.542570
H    1.827540  2.275778  4.862291
H    2.646088  0.714589  5.141212
H    1.438595  1.307953  6.314336
