35
Energy: -21190.4735893 eV PBE+vdW (tier 2 basis)
C    -2.854225  0.333370  -0.312719
C    -2.138812  -0.173446  0.921008
O    -1.388770  -1.156292  0.884622
H    -3.438864  -0.486575  -0.747035
H    -2.102459  0.628759  -1.055608
H    -3.516360  1.186350  -0.120488
N    -2.362880  0.523045  2.070696
C    -1.705151  0.203123  3.338283
C    -2.471507  -0.923519  4.086802
O    -3.131486  -0.709740  5.102267
H    -3.058190  1.260967  2.071190
H    -0.712355  -0.189550  3.067710
C    -1.554626  1.449919  4.205334
C    -0.619904  2.504944  3.611709
C    -0.472540  3.732612  4.523595
N    0.413770  4.775453  4.025559
C    1.776313  4.588457  3.816753
N    2.430601  3.847680  4.798426
N    2.329719  5.180448  2.812637
H    -1.185791  1.124312  5.188899
H    -2.552585  1.873892  4.405126
H    -0.980820  2.838895  2.626188
H    0.374342  2.064543  3.432715
H    -0.144550  3.418459  5.528736
H    -1.456058  4.198248  4.685235
H    0.037130  5.330530  3.261716
H    1.872879  3.269516  5.416284
H    3.296790  3.412957  4.507585
H    3.348904  5.094761  2.843002
N    -2.324428  -2.139260  3.497541
C    -3.021045  -3.322269  3.962605
H    -1.827728  -2.157842  2.603047
H    -3.459206  -3.096924  4.940593
H    -2.325125  -4.165497  4.064200
H    -3.827987  -3.614326  3.273788
