35
Energy: -21190.5908471 eV PBE+vdW (tier 2 basis)
C    0.114158  0.491991  -0.090186
C    -0.295295  0.883507  1.317667
O    -0.183682  2.036320  1.737308
H    1.176012  0.731835  -0.226388
H    -0.452106  1.101208  -0.805655
H    -0.047109  -0.568977  -0.316153
N    -0.810132  -0.125911  2.078271
C    -1.124453  0.044859  3.480752
C    -1.062302  -1.364580  4.110678
O    -0.908480  -2.371338  3.411732
H    -0.745404  -1.102449  1.789884
H    -0.328837  0.655843  3.941629
C    -2.449185  0.817196  3.705277
C    -3.683907  0.275337  2.976433
C    -4.313374  -1.000088  3.547220
N    -4.770211  -0.807259  4.924904
C    -4.489620  -1.665861  5.973225
N    -4.352485  -2.997398  5.595964
N    -4.339023  -1.348855  7.219925
H    -2.260046  1.842660  3.360954
H    -2.639697  0.890179  4.788369
H    -3.429886  0.090365  1.922179
H    -4.450676  1.067488  2.960523
H    -3.594311  -1.829824  3.532690
H    -5.155019  -1.293475  2.896155
H    -4.901974  0.155912  5.211750
H    -4.315730  -3.610075  6.403934
H    -4.984563  -3.325077  4.872738
H    -4.331228  -0.332361  7.342732
N    -1.165080  -1.403157  5.458771
C    -1.095724  -2.632310  6.230434
H    -1.313926  -0.535767  5.959974
H    -1.402628  -3.463120  5.588343
H    -1.779598  -2.558043  7.083416
H    -0.073477  -2.821776  6.590552
