35
Energy: -21190.190617 eV PBE+vdW (tier 2 basis)
C    0.315947  -0.756787  0.987319
C    0.841548  0.341827  1.888193
O    2.007819  0.386153  2.273152
H    0.078023  -0.368007  -0.013084
H    -0.604542  -1.208833  1.380711
H    1.091192  -1.521528  0.896224
N    -0.053456  1.314318  2.273839
C    -1.414230  1.517513  1.800362
C    -1.549363  1.849670  0.295095
O    -2.441333  1.310975  -0.361288
H    0.360966  2.028369  2.866828
H    -1.978558  0.577784  1.897288
C    -2.101864  2.584622  2.670164
C    -3.594227  2.766113  2.382562
C    -4.195523  3.966291  3.115258
N    -3.649963  5.213816  2.601869
C    -3.852651  6.419833  3.270871
N    -3.382936  7.512798  2.534542
N    -4.397784  6.615671  4.420299
H    -1.590657  3.552338  2.547080
H    -1.964962  2.290063  3.722989
H    -4.144762  1.861011  2.678374
H    -3.767449  2.873345  1.300122
H    -3.951670  3.907844  4.187473
H    -5.297890  3.934130  3.034781
H    -3.689221  5.300431  1.589018
H    -3.428241  8.364399  3.086801
H    -2.469497  7.378944  2.109212
H    -4.832415  5.765492  4.784973
N    -0.700925  2.750046  -0.285805
C    0.412060  3.509001  0.269593
H    -0.884791  2.855346  -1.278888
H    0.132421  4.024508  1.197251
H    0.689062  4.280202  -0.457855
H    1.296292  2.887219  0.466011
