35
Energy: -21190.364889 eV PBE+vdW (tier 2 basis)
C    -1.027078  0.182713  -0.381978
C    -0.828123  -0.245545  1.057504
O    0.007273  -1.091004  1.381058
H    -0.129935  0.725259  -0.710615
H    -1.902400  0.825935  -0.534382
H    -1.117414  -0.710485  -1.010398
N    -1.602823  0.410552  1.975536
C    -1.538894  0.124213  3.404071
C    -2.818613  -0.644484  3.787328
O    -3.907251  -0.067492  3.815411
H    -2.358612  1.006177  1.654543
H    -0.644333  -0.497197  3.531743
C    -1.415341  1.394037  4.260643
C    -0.043180  2.079027  4.230733
C    0.373296  2.657703  2.877516
N    1.579746  3.454344  3.012570
C    2.208471  3.979990  1.888579
N    3.271239  4.826807  2.222080
N    1.917642  3.779343  0.649306
H    -1.637339  1.112734  5.300925
H    -2.212311  2.097054  3.973391
H    0.735873  1.381006  4.574913
H    -0.068552  2.898672  4.968902
H    -0.464360  3.244981  2.449901
H    0.589336  1.846321  2.170240
H    1.608409  4.061627  3.827348
H    3.790080  5.093989  1.390350
H    3.880392  4.470039  2.953745
H    1.041654  3.261223  0.550985
N    -2.698140  -1.972980  4.057642
C    -1.501782  -2.806532  4.024314
H    -3.580579  -2.413259  4.301437
H    -0.865839  -2.554986  3.166481
H    -1.812991  -3.851464  3.915442
H    -0.909977  -2.723577  4.949147
