35
Energy: -21190.1225504 eV PBE+vdW (tier 2 basis)
C    -0.181302  1.786886  1.345976
C    -0.692011  0.372881  1.555780
O    -0.199269  -0.575611  0.942354
H    -0.099447  1.974612  0.269632
H    0.830322  1.856548  1.768499
H    -0.807062  2.563746  1.802374
N    -1.678189  0.252376  2.489998
C    -2.400316  -0.954104  2.922763
C    -1.612262  -2.133402  3.561541
O    -2.243205  -3.186679  3.702749
H    -1.989240  1.118341  2.911766
H    -3.036304  -0.592944  3.746520
C    -3.393562  -1.482377  1.855975
C    -2.886225  -2.094970  0.535572
C    -2.225200  -3.481729  0.585193
N    -0.833041  -3.455240  1.010917
C    -0.207931  -4.465928  1.684730
N    -0.730249  -5.744141  1.483075
N    0.845356  -4.214762  2.414320
H    -4.036864  -0.627494  1.594880
H    -4.030662  -2.215521  2.367589
H    -2.227379  -1.397188  0.002996
H    -3.778023  -2.209062  -0.100401
H    -2.307915  -3.923958  -0.424880
H    -2.807008  -4.114130  1.276777
H    -0.384675  -2.539406  1.066517
H    -0.611453  -6.362664  2.277107
H    -1.666038  -5.797284  1.094904
H    1.278691  -5.090174  2.718166
N    -0.316905  -2.045853  3.955073
C    0.590345  -0.918715  4.066984
H    0.147255  -2.965533  3.875581
H    1.354925  -1.179414  4.809783
H    0.072485  -0.025909  4.431571
H    1.104797  -0.687459  3.122404
