35
Energy: -21190.1551387 eV PBE+vdW (tier 2 basis)
C    0.279960  -0.516729  0.884896
C    -0.294376  0.602610  1.728534
O    0.070724  1.771072  1.623190
H    1.117348  -0.113682  0.310033
H    -0.472417  -0.916043  0.189973
H    0.626723  -1.358516  1.499570
N    -1.262757  0.259185  2.645810
C    -1.932520  -1.021722  2.802404
C    -2.786694  -1.480136  1.595198
O    -2.749125  -2.664547  1.257177
H    -1.617458  1.054799  3.169711
H    -1.177474  -1.818783  2.871560
C    -2.716811  -1.021133  4.131347
C    -3.504573  -2.309348  4.420882
C    -4.957238  -2.247363  3.943280
N    -5.596403  -3.543509  4.074955
C    -6.971262  -3.678375  3.892191
N    -7.374319  -5.016112  3.896471
N    -7.849165  -2.749678  3.726798
H    -3.398456  -0.154037  4.157932
H    -1.976783  -0.848404  4.925732
H    -3.501709  -2.509544  5.501083
H    -2.998248  -3.161591  3.941932
H    -5.005836  -1.872550  2.903879
H    -5.509368  -1.528658  4.569168
H    -5.056406  -4.311917  3.683914
H    -8.387313  -5.090163  3.897762
H    -6.942362  -5.590024  4.615381
H    -7.410100  -1.835685  3.597910
N    -3.562126  -0.581670  0.920808
C    -3.843462  0.820771  1.198215
H    -4.055551  -1.011173  0.144105
H    -4.722631  1.110186  0.612244
H    -3.011539  1.482502  0.921656
H    -4.091723  0.986355  2.254627
