35
Energy: -21190.1810382 eV PBE+vdW (tier 2 basis)
C    0.013713  0.463699  0.109776
C    -0.005561  0.045057  1.569158
O    0.985184  -0.408358  2.133495
H    0.887144  1.102437  -0.064339
H    -0.891354  0.993899  -0.212988
H    0.135274  -0.435025  -0.509072
N    -1.211062  0.216209  2.206228
C    -1.464122  -0.296185  3.552932
C    -2.775272  -1.105458  3.599788
O    -2.751852  -2.305650  3.858515
H    -1.997708  0.519371  1.645563
H    -0.677266  -1.038352  3.738304
C    -1.403165  0.784119  4.648955
C    -0.006058  1.357050  4.889777
C    -0.009685  2.586257  5.811623
N    -0.680061  3.753883  5.257262
C    -2.023068  4.045848  5.438772
N    -2.450188  5.098749  4.615664
N    -2.882201  3.483973  6.220135
H    -1.786061  0.337875  5.581544
H    -2.086189  1.603497  4.395478
H    0.455310  1.637107  3.930124
H    0.653256  0.588155  5.321107
H    1.027666  2.870331  6.043123
H    -0.481145  2.352219  6.777593
H    -0.288932  4.097426  4.385565
H    -3.380071  5.402077  4.892139
H    -1.803452  5.882219  4.565099
H    -2.492802  2.662882  6.687242
N    -3.967995  -0.478604  3.324324
C    -4.307026  0.938777  3.257957
H    -4.748715  -1.121210  3.427499
H    -5.270001  1.037413  2.743532
H    -3.572826  1.511626  2.679305
H    -4.390540  1.410895  4.249142
