35
Energy: -21189.8941879 eV PBE+vdW (tier 2 basis)
C    0.036761  0.633118  -0.193686
C    -0.242466  -0.479233  0.797334
O    0.464972  -1.486819  0.817721
H    0.920335  0.336997  -0.765060
H    0.234678  1.588982  0.305550
H    -0.798558  0.784945  -0.888532
N    -1.277870  -0.383402  1.703768
C    -2.397827  0.523376  1.985867
C    -3.766329  -0.187460  1.819610
O    -4.582002  -0.135809  2.742618
H    -1.285984  -1.217611  2.287801
H    -2.376449  0.702883  3.071673
C    -2.356494  1.917584  1.334980
C    -3.528339  2.816165  1.774356
C    -4.715443  2.762960  0.809449
N    -5.879732  3.416704  1.385233
C    -6.896314  3.863881  0.556111
N    -8.019418  4.289050  1.282570
N    -6.767122  3.836323  -0.726639
H    -2.343633  1.853529  0.238681
H    -1.406991  2.384153  1.629654
H    -3.184496  3.857133  1.848228
H    -3.856964  2.525071  2.784100
H    -4.947821  1.720757  0.528960
H    -4.483467  3.287263  -0.126223
H    -6.203918  3.002088  2.255096
H    -8.702763  4.788987  0.724354
H    -7.807678  4.779033  2.148280
H    -7.551850  4.305948  -1.184788
N    -4.050456  -0.869831  0.672747
C    -3.304006  -0.963771  -0.572734
H    -4.971822  -1.295323  0.699698
H    -3.961441  -1.406244  -1.328401
H    -2.411351  -1.596302  -0.480154
H    -3.003735  0.024734  -0.944245
