35
Energy: -21190.1135716 eV PBE+vdW (tier 2 basis)
C    0.033130  -0.938430  -0.385798
C    -0.084123  -0.423407  1.037173
O    0.826123  -0.531324  1.853162
H    0.938797  -0.518100  -0.838891
H    -0.829461  -0.696578  -1.019251
H    0.157977  -2.028351  -0.354537
N    -1.278104  0.184656  1.344676
C    -1.608680  0.560298  2.723801
C    -3.133328  0.581069  2.914393
O    -3.654530  -0.110163  3.785200
H    -2.044733  0.066950  0.692245
H    -1.270045  -0.252169  3.382367
C    -0.863766  1.840559  3.173138
C    -1.118239  2.252784  4.630228
C    -2.363006  3.119275  4.827441
N    -2.492044  3.528990  6.213047
C    -3.583767  4.277430  6.635884
N    -3.465750  4.683312  7.969548
N    -4.623787  4.618106  5.954742
H    -1.089122  2.677586  2.496500
H    0.201670  1.613535  3.041926
H    -0.241865  2.819811  4.983335
H    -1.189989  1.361179  5.271720
H    -3.269132  2.556411  4.561164
H    -2.307063  3.992848  4.145709
H    -1.619070  3.758388  6.680192
H    -4.328013  5.115381  8.289139
H    -3.146418  3.955621  8.603789
H    -4.517119  4.377211  4.966837
N    -3.909213  1.344082  2.071985
C    -3.532873  2.470045  1.227123
H    -4.893101  1.279201  2.322783
H    -2.540315  2.318480  0.792014
H    -3.524357  3.423158  1.779406
H    -4.251448  2.555267  0.402666
