35
Energy: -21190.2171164 eV PBE+vdW (tier 2 basis)
C    0.517596  1.670740  1.715823
C    0.004047  0.257413  1.932833
O    0.740382  -0.721179  1.882820
H    1.467249  1.787280  2.249289
H    -0.179795  2.454290  2.037698
H    0.723977  1.805928  0.645442
N    -1.344007  0.168041  2.204972
C    -2.124552  -1.073514  2.261156
C    -1.514685  -2.163573  3.181698
O    -1.693780  -3.355015  2.949276
H    -1.876367  1.028948  2.155630
H    -3.058064  -0.790600  2.775946
C    -2.539687  -1.637230  0.892286
C    -1.412567  -2.020169  -0.068314
C    -1.961267  -2.717789  -1.309958
N    -0.879336  -3.013050  -2.245594
C    -1.099536  -3.568520  -3.496826
N    -2.149795  -4.491087  -3.538490
N    -0.365228  -3.187665  -4.487926
H    -3.201870  -0.898322  0.412081
H    -3.154014  -2.524692  1.103045
H    -0.690981  -2.677215  0.433507
H    -0.857415  -1.120675  -0.379107
H    -2.748206  -2.096625  -1.781535
H    -2.446752  -3.655381  -0.997105
H    -0.174979  -2.282829  -2.318085
H    -2.285146  -5.045061  -2.697178
H    -2.162167  -5.058309  -4.378528
H    -0.533804  -3.760180  -5.319263
N    -0.912426  -1.697655  4.310543
C    -0.213432  -2.588502  5.218064
H    -0.667594  -0.714525  4.325138
H    -0.251856  -2.187481  6.238040
H    0.838358  -2.727751  4.923756
H    -0.709775  -3.563921  5.193899
