35
Energy: -21190.4687728 eV PBE+vdW (tier 2 basis)
C    -0.108621  0.275913  0.189726
C    -0.293987  0.166709  1.688017
O    0.121867  1.038913  2.461739
H    0.958847  0.400496  -0.028802
H    -0.621870  1.180420  -0.160524
H    -0.492565  -0.587402  -0.367198
N    -0.944289  -0.944268  2.129233
C    -1.312248  -1.170247  3.527224
C    -0.137835  -1.754734  4.368958
O    -0.211687  -2.842512  4.941060
H    -1.207519  -1.653381  1.455484
H    -1.519985  -0.172072  3.945008
C    -2.584627  -2.017815  3.627722
C    -2.552586  -3.386990  2.940122
C    -3.874489  -4.152183  3.084221
N    -5.001137  -3.507390  2.410151
C    -6.185016  -3.107739  3.019508
N    -6.070759  -2.811574  4.377517
N    -7.338876  -2.995409  2.451184
H    -3.418471  -1.424155  3.221367
H    -2.775423  -2.173104  4.700370
H    -1.742385  -3.991382  3.369900
H    -2.342988  -3.285951  1.860260
H    -4.131763  -4.266591  4.145547
H    -3.746563  -5.171652  2.686280
H    -5.128374  -3.760895  1.437364
H    -6.935375  -2.406759  4.723702
H    -5.251584  -2.276448  4.649807
H    -7.328714  -3.384262  1.504112
N    0.935436  -0.926718  4.422860
C    2.153118  -1.265205  5.131682
H    0.865328  -0.041386  3.910981
H    2.380957  -0.515024  5.901714
H    3.008715  -1.331303  4.444153
H    2.007765  -2.237566  5.613951
