35
Energy: -21190.5736279 eV PBE+vdW (tier 2 basis)
C    -0.713101  -1.493850  0.484997
C    -0.928599  -0.603829  1.688415
O    -0.185408  0.370276  1.904931
H    -0.680335  -0.871389  -0.417007
H    -1.477134  -2.270589  0.362827
H    0.269289  -1.975538  0.587690
N    -1.945432  -0.948369  2.514207
C    -2.303210  -0.332859  3.805838
C    -2.961289  1.067767  3.695963
O    -4.034616  1.278960  4.260678
H    -2.527052  -1.722506  2.218710
H    -3.115661  -0.959861  4.194037
C    -1.170699  -0.326676  4.852287
C    -0.603931  -1.713392  5.199990
C    0.665811  -2.105692  4.434156
N    1.777055  -1.213155  4.753908
C    2.851443  -1.000539  3.890748
N    2.497373  -0.837674  2.552328
N    4.040176  -0.982316  4.395622
H    -1.610312  0.132215  5.749037
H    -0.351524  0.333699  4.538397
H    -1.365752  -2.493918  5.039787
H    -0.374907  -1.745015  6.276588
H    0.499871  -2.069411  3.352872
H    0.918687  -3.156737  4.670410
H    2.146277  -1.337795  5.694404
H    3.271337  -0.542000  1.968181
H    1.644761  -0.301265  2.368986
H    4.729346  -0.664479  3.708463
N    -2.257254  1.993399  2.999230
C    -2.713666  3.359683  2.838473
H    -1.363662  1.697585  2.595987
H    -3.707991  3.442034  3.289822
H    -2.776275  3.629596  1.775138
H    -2.037118  4.066595  3.340263
