35
Energy: -21190.6369884 eV PBE+vdW (tier 2 basis)
C    -0.035387  -1.236677  0.322773
C    -0.124900  -1.174885  1.833987
O    0.373873  -2.022416  2.578617
H    0.348596  -2.218167  0.032017
H    0.641944  -0.451685  -0.045119
H    -1.013004  -1.065085  -0.146811
N    -0.789760  -0.083818  2.322689
C    -0.917504  0.129547  3.748736
C    -2.151269  0.986201  4.021537
O    -2.493797  1.903019  3.260116
H    -1.193395  0.594171  1.675931
H    -1.034555  -0.868691  4.195038
C    0.342936  0.739840  4.435347
C    0.657149  2.237758  4.280685
C    1.099325  2.729057  2.896898
N    -0.025083  2.898782  1.988484
C    0.045744  2.498016  0.670646
N    -1.220865  2.226291  0.123654
N    1.086722  2.284508  -0.061520
H    1.193628  0.137101  4.085949
H    0.252846  0.530207  5.513068
H    1.480286  2.457825  4.977384
H    -0.189333  2.852927  4.629235
H    1.812364  2.005593  2.465414
H    1.643521  3.681316  3.013700
H    -0.940894  2.756251  2.423925
H    -1.181113  2.194195  -0.890842
H    -1.976991  2.813530  0.465848
H    1.950537  2.449525  0.458774
N    -2.838088  0.747124  5.168187
C    -2.627378  -0.314941  6.141686
H    -3.610804  1.388667  5.318126
H    -3.447389  -0.282298  6.866335
H    -1.684436  -0.193325  6.693398
H    -2.633808  -1.306534  5.670162
