35
Energy: -21190.4555852 eV PBE+vdW (tier 2 basis)
C    0.654229  0.031967  -0.256972
C    0.210049  -0.635957  1.028418
O    0.728699  -1.682708  1.433586
H    0.530887  -0.679387  -1.082953
H    1.723783  0.264943  -0.183436
H    0.101349  0.950430  -0.487787
N    -0.789606  -0.011695  1.705258
C    -1.330577  -0.551048  2.937202
C    -2.782067  -0.064071  3.019687
O    -3.072887  1.064296  2.607911
H    -1.233524  0.837148  1.363374
H    -1.275703  -1.643943  2.859922
C    -0.531757  -0.093955  4.197718
C    -0.330610  -1.209405  5.228849
C    0.761851  -2.228204  4.816732
N    0.476359  -3.601930  5.211533
C    -0.425386  -4.358196  4.465579
N    -1.049091  -5.365458  5.215669
N    -0.748301  -4.217221  3.226725
H    -1.035232  0.771793  4.650811
H    0.447133  0.268939  3.851910
H    -1.276028  -1.748254  5.383770
H    -0.075062  -0.766955  6.203295
H    1.728697  -1.940911  5.252997
H    0.908861  -2.209286  3.728117
H    0.376480  -3.726656  6.215679
H    -1.468574  -6.057444  4.600678
H    -0.459900  -5.801395  5.920102
H    -0.237500  -3.457447  2.767324
N    -3.717456  -0.872378  3.584136
C    -3.635203  -2.264053  4.005991
H    -4.626663  -0.421177  3.642510
H    -4.535249  -2.795344  3.671123
H    -3.568016  -2.357761  5.100177
H    -2.771460  -2.773252  3.563806
