35
Energy: -21190.4609073 eV PBE+vdW (tier 2 basis)
C    0.091391  -0.902992  1.744439
C    0.364874  0.514948  2.216071
O    1.408322  0.816451  2.790396
H    -0.577217  -1.415034  2.451005
H    1.042565  -1.441388  1.720459
H    -0.377900  -0.943813  0.752043
N    -0.607244  1.453007  1.984447
C    -1.907382  1.294732  1.370746
C    -2.405569  2.708676  1.015528
O    -1.969396  3.717341  1.580728
H    -0.396129  2.403567  2.290243
H    -1.805662  0.742256  0.421074
C    -2.961749  0.529771  2.236786
C    -2.871241  0.683931  3.757990
C    -3.031133  2.107693  4.343563
N    -3.987304  2.986286  3.697771
C    -5.346723  2.779909  3.664900
N    -6.019663  3.738674  2.882343
N    -6.034769  1.838546  4.218886
H    -2.867953  -0.541077  2.007331
H    -3.968669  0.819921  1.900746
H    -1.907865  0.295357  4.120662
H    -3.638822  0.019246  4.180861
H    -2.068178  2.629836  4.294215
H    -3.279354  2.016584  5.413494
H    -3.592652  3.636385  3.025053
H    -7.022914  3.642089  3.018913
H    -5.718332  4.694793  3.059430
H    -5.431440  1.149806  4.672378
N    -3.370006  2.751599  0.065727
C    -4.092924  3.968822  -0.268266
H    -3.716294  1.873726  -0.303501
H    -4.354774  3.961895  -1.332493
H    -3.439720  4.823421  -0.064699
H    -5.006897  4.065315  0.337091
