35
Energy: -21190.3754657 eV PBE+vdW (tier 2 basis)
C    0.016490  -0.855518  0.574292
C    -0.483463  -1.584968  1.806083
O    0.115984  -2.566775  2.261427
H    0.027801  0.235142  0.702086
H    -0.602005  -1.095418  -0.301908
H    1.034477  -1.200422  0.374853
N    -1.623273  -1.139017  2.403668
C    -2.528293  -0.094525  1.974823
C    -2.848633  0.774552  3.207194
O    -2.965152  0.260718  4.317999
H    -1.866011  -1.596551  3.281008
H    -2.026903  0.498446  1.200741
C    -3.874568  -0.615842  1.411807
C    -3.842422  -1.374336  0.070751
C    -3.738144  -2.912833  0.140220
N    -2.414475  -3.456688  0.339225
C    -1.520249  -3.684817  -0.694513
N    -0.341393  -4.280406  -0.261647
N    -1.684816  -3.411990  -1.949413
H    -4.531842  0.261084  1.300062
H    -4.346453  -1.236257  2.190653
H    -3.042718  -0.985993  -0.577991
H    -4.783716  -1.150200  -0.454650
H    -4.166646  -3.330899  -0.787133
H    -4.376408  -3.280978  0.956590
H    -2.212064  -3.910669  1.220710
H    0.348509  -4.312527  -1.004841
H    0.031206  -3.930144  0.623407
H    -2.634400  -3.088000  -2.144923
N    -3.045902  2.108140  3.002520
C    -2.890815  2.854424  1.763822
H    -3.287575  2.618720  3.846104
H    -3.141046  3.902036  1.959725
H    -3.566665  2.495468  0.974204
H    -1.858429  2.824335  1.384914
