35
Energy: -21190.2592598 eV PBE+vdW (tier 2 basis)
C    -0.250764  0.371993  0.271110
C    -0.291206  -0.108192  1.710839
O    0.730359  -0.316521  2.359273
H    0.798216  0.434801  -0.028940
H    -0.708176  1.365641  0.160884
H    -0.777854  -0.313937  -0.405852
N    -1.528632  -0.287935  2.283798
C    -2.841992  -0.197422  1.652071
C    -3.843827  0.454893  2.635931
O    -4.862086  -0.123693  3.026743
H    -1.480520  -0.680423  3.220792
H    -2.745952  0.500363  0.805816
C    -3.361688  -1.535332  1.108732
C    -3.348514  -2.705202  2.113166
C    -4.548413  -3.636081  1.941379
N    -5.772278  -2.927683  2.285096
C    -6.960142  -3.230419  1.663889
N    -7.964518  -2.277812  1.913705
N    -7.066325  -4.273630  0.907932
H    -2.757348  -1.799982  0.229017
H    -4.384895  -1.369573  0.741959
H    -3.356312  -2.327183  3.147855
H    -2.422985  -3.286866  2.007477
H    -4.426659  -4.525892  2.580313
H    -4.627504  -4.006276  0.906522
H    -5.643813  -1.965026  2.598154
H    -7.880690  -1.790572  2.802747
H    -8.903178  -2.635563  1.773683
H    -8.018845  -4.368512  0.548456
N    -3.560707  1.717311  3.061731
C    -2.464806  2.592975  2.676472
H    -4.244875  2.075090  3.721042
H    -2.723592  3.616268  2.968841
H    -2.315156  2.590669  1.588605
H    -1.516909  2.317265  3.158133
