35
Energy: -21190.1108688 eV PBE+vdW (tier 2 basis)
C    0.569399  0.203341  -0.108607
C    0.414196  0.063903  1.395689
O    1.313110  -0.355165  2.117516
H    -0.352021  0.496282  -0.627565
H    0.924659  -0.750480  -0.516492
H    1.343619  0.953864  -0.313005
N    -0.806138  0.431531  1.899051
C    -1.100502  0.433455  3.325962
C    -0.894617  -0.913631  4.053965
O    -0.418565  -0.899627  5.186477
H    -1.514415  0.778831  1.263076
H    -0.376720  1.085222  3.837874
C    -2.515481  1.013087  3.527548
C    -2.993523  1.134860  4.983343
C    -3.713470  -0.110461  5.503859
N    -4.211079  0.113666  6.847882
C    -4.832631  -0.907718  7.556966
N    -5.359923  -0.461272  8.774980
N    -4.969421  -2.142670  7.216833
H    -3.244349  0.416520  2.952381
H    -2.507938  2.014065  3.068956
H    -3.688571  1.987984  5.043227
H    -2.147078  1.367137  5.645430
H    -3.019738  -0.961259  5.537291
H    -4.530444  -0.377517  4.802036
H    -4.603053  1.035880  7.017950
H    -5.693234  -1.247450  9.325906
H    -4.731224  0.134186  9.308236
H    -4.660494  -2.301965  6.255295
N    -1.325238  -2.083302  3.490936
C    -1.877967  -2.357929  2.176018
H    -1.086233  -2.884333  4.067877
H    -2.361460  -3.341402  2.208078
H    -1.111544  -2.376194  1.386094
H    -2.646843  -1.627162  1.900301
