35
Energy: -21190.1802921 eV PBE+vdW (tier 2 basis)
C    0.067110  0.557958  -0.180140
C    0.385277  0.420504  1.292526
O    1.557399  0.502731  1.689880
H    0.914024  0.145760  -0.738278
H    -0.001315  1.625953  -0.435651
H    -0.850854  0.042179  -0.474759
N    -0.615420  0.229877  2.204828
C    -2.067063  0.275143  2.119767
C    -2.668776  -0.987525  1.459649
O    -2.116278  -1.600166  0.551634
H    -0.270789  0.172011  3.169561
H    -2.382166  0.268268  3.173802
C    -2.662065  1.551448  1.466970
C    -2.807722  2.794391  2.360036
C    -1.538529  3.441362  2.947348
N    -1.089576  2.841218  4.201195
C    0.075899  2.112720  4.363131
N    1.216344  2.617813  3.764575
N    0.021947  1.024294  5.073849
H    -3.665237  1.304322  1.086130
H    -2.073204  1.800782  0.574844
H    -3.500999  2.574411  3.190690
H    -3.316120  3.562879  1.756616
H    -1.743044  4.512745  3.107220
H    -0.718244  3.381796  2.217700
H    -1.826157  2.463828  4.790727
H    1.755564  1.914162  3.252838
H    1.110308  3.482124  3.243993
H    0.968075  0.693143  5.281876
N    -3.895302  -1.375944  1.930228
C    -4.655250  -0.830812  3.043805
H    -4.263666  -2.193314  1.454478
H    -5.558706  -1.436138  3.172037
H    -4.976153  0.206731  2.866654
H    -4.094021  -0.868071  3.989167
