35
Energy: -21190.283358 eV PBE+vdW (tier 2 basis)
C    -0.129570  0.258390  0.284400
C    -0.208214  0.889707  1.655721
O    0.451959  1.895395  1.942741
H    -1.117603  0.097019  -0.164814
H    0.358356  -0.724788  0.339564
H    0.464446  0.915516  -0.355732
N    -1.002463  0.305805  2.613657
C    -2.168586  -0.565913  2.429922
C    -1.857856  -1.847591  1.626228
O    -2.474445  -2.139183  0.603748
H    -1.030597  0.874426  3.466829
H    -2.416212  -0.907560  3.450339
C    -3.413574  0.157362  1.887740
C    -3.820585  1.369740  2.744132
C    -3.166480  2.703104  2.321478
N    -3.157896  3.730592  3.359219
C    -2.396514  3.616276  4.520870
N    -1.211428  2.886184  4.377280
N    -2.683153  4.108564  5.678394
H    -4.228487  -0.577605  1.852402
H    -3.246263  0.453602  0.841300
H    -3.572761  1.180085  3.800978
H    -4.913421  1.490394  2.712189
H    -3.694956  3.119120  1.451668
H    -2.135529  2.545386  1.985712
H    -4.058149  4.165508  3.533537
H    -0.634765  3.010548  5.205275
H    -0.673365  3.026499  3.518330
H    -3.623890  4.512459  5.689551
N    -0.881088  -2.664478  2.121987
C    -0.071251  -2.507958  3.319677
H    -0.722374  -3.483560  1.543504
H    0.328911  -3.489414  3.598099
H    -0.672431  -2.145022  4.163085
H    0.767157  -1.811969  3.174672
