35
Energy: -21190.1509303 eV PBE+vdW (tier 2 basis)
C    -0.231658  1.515079  0.313433
C    -0.073102  0.911419  1.694684
O    0.950983  1.043153  2.362758
H    0.713606  1.989883  0.039535
H    -1.032082  2.268771  0.296541
H    -0.487527  0.754589  -0.437268
N    -1.142116  0.203841  2.189639
C    -2.455958  0.038232  1.592704
C    -3.393157  1.272596  1.568205
O    -4.283917  1.300935  0.719145
H    -0.980446  -0.164632  3.122376
H    -2.329123  -0.182101  0.523195
C    -3.196217  -1.169737  2.197038
C    -3.596425  -1.036520  3.668675
C    -4.436716  -2.221689  4.171995
N    -5.696242  -2.378833  3.470688
C    -5.928302  -3.330967  2.485540
N    -7.245259  -3.280639  2.014838
N    -5.117331  -4.207663  2.003871
H    -2.563758  -2.059312  2.052436
H    -4.098900  -1.323795  1.592312
H    -4.180676  -0.113644  3.812269
H    -2.711008  -0.958409  4.322734
H    -4.648127  -2.087450  5.242536
H    -3.855144  -3.154614  4.094618
H    -6.524851  -2.039637  3.944078
H    -7.362556  -3.906810  1.223239
H    -7.583351  -2.343787  1.808587
H    -4.230618  -4.232818  2.511814
N    -3.244900  2.306989  2.450746
C    -2.368281  2.498590  3.600921
H    -3.931933  3.033965  2.274644
H    -2.747605  3.357834  4.165468
H    -1.328936  2.709393  3.317311
H    -2.376769  1.635155  4.277073
