35
Energy: -21190.0821488 eV PBE+vdW (tier 2 basis)
C    -0.641447  -1.418739  0.436543
C    -0.467505  -1.163285  1.921143
O    0.535242  -1.546622  2.519889
H    -0.688552  -2.504759  0.283491
H    0.247147  -1.045398  -0.085542
H    -1.536305  -0.957859  0.000326
N    -1.524314  -0.533791  2.523431
C    -1.604674  -0.082532  3.907598
C    -0.822986  1.246368  4.089449
O    -0.036467  1.662096  3.247337
H    -2.222268  -0.151482  1.898045
H    -2.670128  0.154783  4.055507
C    -1.241869  -1.181954  4.943922
C    0.195524  -1.177986  5.486949
C    0.665598  -2.581112  5.896698
N    0.641001  -3.511411  4.766519
C    -0.213818  -4.592334  4.695860
N    -0.410567  -5.248921  5.922376
N    -0.772088  -4.898783  3.569060
H    -1.450844  -2.141384  4.452412
H    -1.949728  -1.117895  5.782690
H    0.286254  -0.512131  6.359740
H    0.878485  -0.793485  4.718897
H    0.023143  -2.983889  6.693127
H    1.685344  -2.506973  6.309916
H    0.738612  -3.056485  3.854969
H    -0.906218  -6.129019  5.832725
H    0.422340  -5.337662  6.499307
H    -1.240132  -5.807456  3.627563
N    -1.075851  1.960880  5.231904
C    -1.972260  1.658308  6.332685
H    -0.498055  2.792284  5.306848
H    -1.536736  0.957434  7.062453
H    -2.919284  1.236745  5.971877
H    -2.211563  2.590456  6.857243
