35
Energy: -21190.448148 eV PBE+vdW (tier 2 basis)
C    -1.923802  2.458890  -0.876803
C    -1.459672  1.486934  0.190067
O    -0.326262  1.003038  0.205741
H    -1.988625  1.927974  -1.835719
H    -1.169180  3.246207  -0.988147
H    -2.896878  2.912561  -0.651902
N    -2.400810  1.177672  1.129993
C    -2.110601  0.281879  2.225428
C    -3.382550  -0.489728  2.582244
O    -4.509733  -0.014575  2.415393
H    -3.314469  1.626735  1.104662
H    -1.345798  -0.413263  1.851318
C    -1.488313  1.003382  3.470970
C    -2.042453  2.401787  3.762049
C    -3.452926  2.470967  4.384625
N    -4.125899  3.741783  4.129714
C    -4.630935  3.994408  2.851260
N    -4.700296  5.359858  2.553528
N    -5.002696  3.139453  1.962476
H    -0.412460  1.094851  3.268698
H    -1.587646  0.352428  4.354264
H    -2.054147  2.970257  2.820906
H    -1.333623  2.925983  4.421605
H    -3.402769  2.324381  5.473172
H    -4.096737  1.671649  4.000200
H    -3.634182  4.540033  4.524799
H    -5.302543  5.523698  1.751812
H    -4.940704  5.960936  3.336803
H    -4.913206  2.170998  2.285062
N    -3.215827  -1.724445  3.133604
C    -1.980481  -2.478486  3.290009
H    -4.090724  -2.181451  3.370394
H    -2.229406  -3.460813  3.704418
H    -1.280003  -1.991387  3.982619
H    -1.469143  -2.637067  2.329872
