35
Energy: -21190.2322155 eV PBE+vdW (tier 2 basis)
C    -2.236632  -0.860607  -0.993544
C    -1.823492  -0.821692  0.464548
O    -0.638269  -0.816601  0.787670
H    -2.067726  -1.880291  -1.366992
H    -1.570872  -0.192459  -1.549661
H    -3.275909  -0.589032  -1.195779
N    -2.795110  -0.883887  1.450776
C    -4.232619  -0.589470  1.406623
C    -5.015936  -1.458328  0.390168
O    -6.008459  -1.034831  -0.193234
H    -2.365679  -0.826069  2.371472
H    -4.610553  -0.949949  2.378748
C    -4.602336  0.905220  1.347044
C    -4.028886  1.732404  0.198058
C    -4.404455  3.214641  0.338941
N    -3.799682  4.087758  -0.656366
C    -4.338153  4.177382  -1.929651
N    -3.524613  4.933029  -2.792342
N    -5.444870  3.587273  -2.223068
H    -4.284962  1.351853  2.304328
H    -5.700497  0.955849  1.321437
H    -4.407407  1.370755  -0.767204
H    -2.929690  1.653100  0.183628
H    -4.107861  3.585888  1.332799
H    -5.491828  3.331463  0.247239
H    -2.787220  4.155032  -0.622689
H    -3.971426  5.155259  -3.675602
H    -3.109829  5.759036  -2.367058
H    -5.768794  3.846628  -3.157409
N    -4.561441  -2.739018  0.285252
C    -5.159062  -3.710144  -0.608467
H    -3.694455  -2.962998  0.761420
H    -5.371115  -4.649085  -0.080075
H    -4.505876  -3.926607  -1.467347
H    -6.098189  -3.286888  -0.980358
