35
Energy: -21190.5531475 eV PBE+vdW (tier 2 basis)
C    0.721971  -1.078231  0.629844
C    0.210280  -0.058304  1.624621
O    0.974771  0.582601  2.355640
H    1.410784  -0.577243  -0.061791
H    -0.070639  -1.567460  0.050764
H    1.297535  -1.841419  1.168014
N    -1.140961  0.115226  1.660992
C    -1.797229  1.085716  2.538537
C    -2.020301  0.479726  3.952165
O    -3.131755  0.147293  4.359121
H    -1.731477  -0.504436  1.117231
H    -1.088543  1.922611  2.639645
C    -3.105173  1.577210  1.925329
C    -2.908595  2.391293  0.645080
C    -4.234469  2.836108  0.031958
N    -4.011376  3.594432  -1.187049
C    -5.079018  3.997208  -1.984708
N    -4.671164  4.839249  -3.025381
N    -6.324270  3.693203  -1.862237
H    -3.625553  2.177070  2.684942
H    -3.765493  0.713786  1.742719
H    -2.348910  1.810901  -0.104461
H    -2.292419  3.278643  0.871035
H    -4.817331  3.411952  0.777609
H    -4.835582  1.948895  -0.222381
H    -3.258928  4.275900  -1.132737
H    -5.440745  5.016782  -3.664530
H    -3.831955  4.535092  -3.511974
H    -6.508899  3.198047  -0.987108
N    -0.866397  0.363505  4.661218
C    -0.811990  -0.263506  5.967090
H    0.000673  0.586943  4.166914
H    -0.257705  0.366424  6.675277
H    -0.328552  -1.251032  5.922599
H    -1.838640  -0.391374  6.325985
