35
Energy: -21190.0802074 eV PBE+vdW (tier 2 basis)
C    1.623235  -0.822272  0.437714
C    1.134699  -0.343037  1.793367
O    1.905278  0.014828  2.678583
H    2.127951  -1.788294  0.570559
H    2.369173  -0.113174  0.061038
H    0.827760  -0.941544  -0.308442
N    -0.227880  -0.332408  1.949081
C    -0.929975  -0.034091  3.198621
C    -0.268544  1.085723  4.046659
O    -0.037680  0.920469  5.240454
H    -0.790011  -0.688037  1.184897
H    -1.908117  0.379017  2.895759
C    -1.210518  -1.286996  4.046363
C    0.018803  -2.119737  4.413632
C    -0.333427  -3.260632  5.365285
N    0.849455  -4.051996  5.665233
C    0.855098  -5.281117  6.303644
N    -0.409100  -5.842244  6.499820
N    1.897552  -5.962181  6.648258
H    -1.930156  -1.913626  3.493374
H    -1.716566  -0.949889  4.962401
H    0.768206  -1.466033  4.880827
H    0.477765  -2.547633  3.509780
H    -1.081631  -3.920940  4.899519
H    -0.793931  -2.833887  6.279682
H    1.718666  -3.535930  5.736822
H    -0.332381  -6.686329  7.059576
H    -1.129509  -5.212744  6.841024
H    2.758465  -5.507423  6.332159
N    -0.098077  2.310321  3.461902
C    -0.258011  2.704514  2.075574
H    0.378609  2.960448  4.079187
H    -0.378784  3.793612  2.034661
H    -1.160316  2.258477  1.640076
H    0.604924  2.426946  1.449681
