35
Energy: -21190.1884851 eV PBE+vdW (tier 2 basis)
C    0.414220  0.882498  0.189326
C    0.299630  0.595444  1.674319
O    1.243652  0.790962  2.442174
H    1.123464  0.166762  -0.246646
H    0.834076  1.885897  0.053665
H    -0.537770  0.812776  -0.351551
N    -0.917447  0.128897  2.087836
C    -1.145917  -0.414254  3.434708
C    -2.500975  -1.127540  3.513313
O    -2.593360  -2.232738  4.038286
H    -1.561624  -0.165870  1.362164
H    -0.409589  -1.213900  3.601965
C    -1.029007  0.657486  4.559243
C    -0.467872  0.107339  5.881108
C    1.070729  0.081652  5.963549
N    1.756098  -0.748487  4.974356
C    1.561346  -2.117671  4.909621
N    1.486396  -2.749770  6.154828
N    1.425344  -2.681729  3.753504
H    -2.015757  1.104784  4.745892
H    -0.385048  1.467890  4.192675
H    -0.865813  -0.900973  6.073626
H    -0.825809  0.740174  6.708613
H    1.364307  -0.226176  6.978093
H    1.459887  1.101752  5.829872
H    1.752833  -0.337292  4.036094
H    1.503562  -3.761895  6.107228
H    2.104443  -2.381215  6.872278
H    1.411631  -3.701882  3.836517
N    -3.613694  -0.521765  2.963584
C    -3.860248  0.892442  2.709394
H    -4.440677  -1.095446  3.113237
H    -4.296854  1.400306  3.584675
H    -4.555481  0.998061  1.866114
H    -2.930585  1.404941  2.446683
