35
Energy: -21190.3429146 eV PBE+vdW (tier 2 basis)
C    0.098217  0.305612  1.487282
C    -0.861237  -0.867720  1.557672
O    -0.518658  -1.941012  2.048304
H    1.101828  -0.095458  1.311043
H    0.112138  0.809719  2.463295
H    -0.142462  1.045008  0.716224
N    -2.130428  -0.724515  1.032738
C    -2.851020  0.461605  0.556035
C    -2.393669  0.957521  -0.831742
O    -2.817939  2.019804  -1.300215
H    -2.693336  -1.557839  1.182472
H    -3.862224  0.080541  0.329259
C    -2.960030  1.552356  1.655221
C    -3.805147  2.814057  1.405928
C    -5.309472  2.613223  1.191714
N    -5.612677  1.893456  -0.049811
C    -6.256771  0.675358  -0.063214
N    -7.330636  0.586163  0.826935
N    -5.811658  -0.276245  -0.824909
H    -1.948163  1.890682  1.916921
H    -3.344751  1.032646  2.547382
H    -3.391691  3.376774  0.559600
H    -3.690657  3.456927  2.293580
H    -5.792479  3.604929  1.185128
H    -5.743314  2.051512  2.032097
H    -4.866526  1.942843  -0.747413
H    -7.884711  -0.257316  0.734878
H    -7.897509  1.424350  0.919687
H    -6.471011  -1.058163  -0.866592
N    -1.578260  0.119586  -1.517640
C    -1.184638  0.357560  -2.891624
H    -1.349010  -0.762210  -1.071875
H    -1.639213  -0.379420  -3.568906
H    -0.092451  0.313805  -2.999050
H    -1.535449  1.356378  -3.171491
