35
Energy: -21189.9983589 eV PBE+vdW (tier 2 basis)
C    1.027702  0.564848  0.761378
C    0.416002  0.498094  2.149340
O    1.043582  0.874203  3.138014
H    2.088148  0.300628  0.828323
H    0.961875  1.603764  0.409583
H    0.535263  -0.084450  0.026327
N    -0.854320  -0.025212  2.179526
C    -1.788236  0.023214  3.305635
C    -2.330444  1.470469  3.448160
O    -1.654255  2.446366  3.148732
H    -1.274869  -0.180207  1.271400
H    -2.634411  -0.610384  3.000627
C    -1.142001  -0.642068  4.553842
C    -1.789352  -0.487763  5.941375
C    -1.188463  0.632622  6.802948
N    -1.530893  1.973024  6.351841
C    -0.612882  3.002436  6.172949
N    0.606555  2.604199  5.635797
N    -0.971053  4.192531  6.533860
H    -0.107809  -0.285877  4.611943
H    -1.077519  -1.709933  4.300097
H    -1.635712  -1.431282  6.488142
H    -2.880249  -0.358190  5.885911
H    -0.093768  0.543461  6.804402
H    -1.517708  0.492102  7.847960
H    -2.385232  2.356780  6.743871
H    1.225134  3.384989  5.446447
H    0.568326  1.967437  4.834376
H    -0.301506  4.889997  6.198216
N    -3.626410  1.608350  3.874314
C    -4.679821  0.609627  3.937709
H    -3.905377  2.583935  3.924749
H    -5.532664  1.037545  4.476694
H    -4.367489  -0.284324  4.490507
H    -5.033088  0.296566  2.940638
