35
Energy: -21189.9676406 eV PBE+vdW (tier 2 basis)
C    1.087363  -0.728276  1.200181
C    0.405579  0.454927  1.855637
O    0.993955  1.523871  1.993634
H    1.772248  -1.174863  1.932429
H    1.679050  -0.347530  0.361108
H    0.415408  -1.515549  0.845112
N    -0.891878  0.334406  2.302701
C    -1.804911  -0.799759  2.379885
C    -1.081658  -2.091366  2.851165
O    -0.253474  -2.053317  3.754041
H    -1.197199  1.187114  2.761946
H    -2.441384  -0.583483  3.255177
C    -2.790695  -0.904600  1.191141
C    -2.235938  -1.155299  -0.224429
C    -1.838320  0.107945  -0.994932
N    -3.004512  0.945769  -1.243887
C    -2.824910  2.276023  -1.605053
N    -4.041602  2.890935  -1.948127
N    -1.649885  2.797163  -1.629731
H    -3.359749  0.037246  1.163748
H    -3.538595  -1.673185  1.447362
H    -3.002778  -1.690975  -0.809902
H    -1.367236  -1.829124  -0.204505
H    -1.335351  -0.176545  -1.936194
H    -1.122412  0.722208  -0.438587
H    -3.761497  0.487897  -1.745050
H    -3.966817  3.894770  -2.074312
H    -4.824868  2.645701  -1.347055
H    -1.690181  3.806791  -1.787874
N    -1.477443  -3.253298  2.253308
C    -0.948812  -4.546606  2.643633
H    -2.152937  -3.210175  1.501965
H    -0.235277  -4.377846  3.456839
H    -0.427872  -5.031757  1.806295
H    -1.747216  -5.212672  2.999448
