35
Energy: -21190.7365978 eV PBE+vdW (tier 2 basis)
C    -0.881102  0.065133  -0.425659
C    -0.507400  0.460894  0.986809
O    0.400763  1.278676  1.207775
H    0.006054  -0.346740  -0.922676
H    -1.176585  0.965489  -0.978640
H    -1.693174  -0.669720  -0.474150
N    -1.218049  -0.129294  1.976039
C    -0.974280  0.134366  3.385579
C    -1.457675  -1.112189  4.138064
O    -2.496547  -1.678050  3.781386
H    -1.974139  -0.781023  1.778462
H    0.103103  0.282663  3.506471
C    -1.741498  1.398908  3.876251
C    -1.088542  2.164908  5.036324
C    0.014860  3.146642  4.598457
N    1.086518  2.562554  3.810083
C    2.124587  1.893997  4.411129
N    2.830680  1.067523  3.520540
N    2.348340  1.998612  5.682341
H    -2.764129  1.091069  4.137604
H    -1.838716  2.071274  3.009914
H    -0.686136  1.473631  5.789901
H    -1.863321  2.751554  5.553540
H    0.468356  3.607775  5.484425
H    -0.435719  3.948667  3.993616
H    0.846033  2.259962  2.862225
H    3.804865  0.929300  3.766126
H    2.702843  1.273508  2.531938
H    3.174234  1.458682  5.950222
N    -0.734811  -1.544192  5.202676
C    0.581507  -1.109552  5.660229
H    -1.161067  -2.337826  5.671913
H    1.020415  -1.920551  6.251966
H    0.544753  -0.207143  6.284430
H    1.252841  -0.909272  4.816716
