35
Energy: -21190.5771251 eV PBE+vdW (tier 2 basis)
C    0.840546  0.695453  0.458355
C    -0.167164  0.882028  1.577252
O    -1.061124  1.730875  1.522650
H    0.301772  0.462891  -0.468729
H    1.572831  -0.096766  0.655420
H    1.369419  1.643502  0.299693
N    -0.029252  0.039565  2.637952
C    -0.848658  0.165756  3.821481
C    -0.113151  -0.611244  4.938410
O    0.926276  -1.231847  4.694467
H    0.779700  -0.570919  2.756420
H    -0.898140  1.233832  4.096292
C    -2.302562  -0.342207  3.610451
C    -3.345577  0.549966  4.292230
C    -4.672585  -0.151720  4.613498
N    -4.572796  -1.359924  5.436062
C    -3.980320  -1.452838  6.683486
N    -3.814843  -0.233048  7.354625
N    -3.553351  -2.523978  7.262915
H    -2.374089  -1.376671  3.978695
H    -2.496038  -0.369186  2.531099
H    -3.553050  1.418311  3.648826
H    -2.943238  0.969618  5.226028
H    -5.170624  -0.461584  3.684269
H    -5.361219  0.566613  5.089000
H    -4.575484  -2.235921  4.929278
H    -3.626811  -0.402778  8.339139
H    -4.559451  0.446070  7.220993
H    -3.617714  -3.339679  6.648804
N    -0.693945  -0.578789  6.161118
C    -0.208650  -1.358450  7.288133
H    -1.580328  -0.097102  6.284498
H    -1.035235  -1.945412  7.710567
H    0.217005  -0.709065  8.066987
H    0.576851  -2.029353  6.926636
