35
Energy: -21190.4681694 eV PBE+vdW (tier 2 basis)
C    -2.080810  -0.624378  0.023714
C    -1.683287  0.070800  1.311987
O    -0.556560  0.535109  1.486450
H    -1.864260  0.041819  -0.820049
H    -3.136938  -0.917614  -0.010685
H    -1.456765  -1.518830  -0.098811
N    -2.670547  0.157342  2.255006
C    -2.419136  0.631721  3.601811
C    -3.121199  -0.339758  4.564356
O    -4.137682  -0.948168  4.228577
H    -3.533786  -0.371665  2.149173
H    -1.327269  0.613810  3.747788
C    -2.943842  2.067140  3.834040
C    -2.242951  3.120045  2.977669
C    -2.838713  4.525744  3.143020
N    -4.229425  4.641632  2.713554
C    -4.649423  5.125486  1.483399
N    -3.664226  5.126582  0.495757
N    -5.823803  5.578346  1.194994
H    -2.823418  2.317585  4.901448
H    -4.025076  2.074010  3.625783
H    -2.294542  2.820556  1.919955
H    -1.170448  3.157214  3.224238
H    -2.231606  5.252027  2.583636
H    -2.788529  4.823998  4.201824
H    -4.930445  4.702670  3.439611
H    -4.066907  5.368647  -0.404485
H    -3.072805  4.301877  0.450712
H    -6.408248  5.663816  2.031093
N    -2.559915  -0.431874  5.800099
C    -3.120960  -1.241304  6.866313
H    -1.693270  0.065472  5.967023
H    -4.038151  -1.700495  6.483616
H    -3.366042  -0.627147  7.743787
H    -2.425508  -2.035841  7.169905
