35
Energy: -21190.1039012 eV PBE+vdW (tier 2 basis)
C    0.438660  0.452776  0.587347
C    0.128648  0.410567  2.069556
O    0.948193  0.722654  2.930518
H    1.507107  0.649028  0.468879
H    -0.128754  1.251063  0.087893
H    0.177880  -0.487700  0.083429
N    -1.134694  -0.000576  2.431021
C    -2.273729  -0.256375  1.563078
C    -2.795315  0.966090  0.770261
O    -3.144006  0.817677  -0.402036
H    -1.285624  0.005336  3.436132
H    -1.978021  -0.960987  0.771458
C    -3.411151  -0.902621  2.376899
C    -4.546880  -1.460632  1.517471
C    -5.764508  -1.858313  2.360728
N    -6.850932  -2.445691  1.581682
C    -7.975216  -1.739555  1.180609
N    -7.735435  -0.386931  0.910764
N    -9.107806  -2.354888  1.127694
H    -3.814806  -0.164988  3.091266
H    -2.969028  -1.711207  2.981101
H    -4.197112  -2.335051  0.948748
H    -4.839594  -0.714748  0.764032
H    -6.132130  -0.978141  2.913790
H    -5.458699  -2.598906  3.114946
H    -7.107443  -3.397566  1.819429
H    -6.865679  -0.180022  0.425995
H    -8.526435  0.087495  0.489832
H    -9.826693  -1.778843  0.682801
N    -2.887760  2.186550  1.377011
C    -2.582125  2.604779  2.739159
H    -3.232627  2.898368  0.740359
H    -3.021640  3.596681  2.892116
H    -1.502804  2.672405  2.931831
H    -3.030645  1.934929  3.483919
