35
Energy: -21189.9008659 eV PBE+vdW (tier 2 basis)
C    -0.263196  -0.510513  0.248354
C    -0.219926  -0.077423  1.693195
O    0.769471  0.470222  2.189053
H    0.430437  -1.358103  0.114317
H    0.095301  0.317326  -0.373925
H    -1.262828  -0.812220  -0.088306
N    -1.324781  -0.379023  2.444412
C    -1.507881  0.092485  3.821421
C    -1.253211  1.630476  3.866216
O    -2.019084  2.327849  3.201564
H    -2.156776  -0.663908  1.943417
H    -2.597039  0.085620  3.969007
C    -0.937285  -0.851773  4.909828
C    0.406993  -1.546281  4.641700
C    0.285829  -2.805091  3.758561
N    1.343816  -2.832659  2.751624
C    1.350319  -3.737818  1.703469
N    0.980564  -5.036455  2.041699
N    1.758376  -3.342946  0.540974
H    -1.695934  -1.630775  5.089865
H    -0.892783  -0.282418  5.849102
H    0.867291  -1.816733  5.601739
H    1.095085  -0.844558  4.158418
H    -0.712078  -2.825335  3.283200
H    0.356653  -3.700360  4.398407
H    1.627789  -1.911633  2.422976
H    0.646549  -5.610211  1.278288
H    0.485021  -5.182438  2.913216
H    1.854206  -4.128396  -0.107863
N    -0.340936  2.216128  4.701730
C    0.940918  1.714723  5.185298
H    -0.397170  3.225873  4.596942
H    1.518381  1.252472  4.374785
H    1.504984  2.569104  5.574355
H    0.824892  0.998701  6.008782
