35
Energy: -21190.5255277 eV PBE+vdW (tier 2 basis)
C    0.310231  -0.666786  0.023880
C    0.077335  -0.215955  1.452419
O    0.982453  0.254644  2.144697
H    0.638777  0.196729  -0.568268
H    -0.575925  -1.106439  -0.449360
H    1.126900  -1.398761  0.014923
N    -1.204607  -0.346988  1.904283
C    -1.583951  -0.078412  3.276989
C    -2.543315  -1.198487  3.709102
O    -3.255069  -1.780594  2.889835
H    -1.891973  -0.875221  1.370964
H    -0.660709  -0.106250  3.875500
C    -2.283532  1.295261  3.446558
C    -1.446419  2.496843  2.999351
C    -0.225454  2.775324  3.888319
N    0.635192  3.852364  3.406144
C    0.204753  5.163798  3.269656
N    -0.669927  5.586349  4.281050
N    0.610159  5.859548  2.261670
H    -2.572857  1.410299  4.504643
H    -3.221811  1.265552  2.872079
H    -2.089138  3.389273  2.985509
H    -1.105176  2.345450  1.964513
H    0.410686  1.882597  3.940873
H    -0.555326  2.995439  4.916668
H    1.212078  3.591995  2.609943
H    -0.808597  6.590590  4.299978
H    -0.474602  5.212116  5.206020
H    0.342727  6.843187  2.354847
N    -2.567906  -1.452940  5.045055
C    -3.465355  -2.419633  5.650698
H    -1.914877  -0.953375  5.636838
H    -2.905562  -3.223945  6.147380
H    -4.072387  -2.852816  4.849181
H    -4.128817  -1.940753  6.384059
