35
Energy: -21190.5005721 eV PBE+vdW (tier 2 basis)
C    0.041871  -2.107268  -0.622950
C    0.072483  -0.674665  -0.134483
O    0.827802  0.151404  -0.658485
H    0.875579  -2.652398  -0.158234
H    0.211340  -2.100192  -1.704200
H    -0.879916  -2.651265  -0.394829
N    -0.698634  -0.327684  0.948406
C    -1.892311  -1.016984  1.456439
C    -1.561646  -2.399631  2.083493
O    -2.379989  -3.314819  2.107860
H    -0.671477  0.672670  1.133468
H    -2.210129  -0.409792  2.320716
C    -3.093568  -1.078495  0.497252
C    -3.878210  0.239737  0.349915
C    -3.593224  1.075869  -0.905879
N    -2.213609  1.511282  -1.060707
C    -1.694771  2.561237  -0.332139
N    -0.395193  2.894178  -0.733831
N    -2.406406  3.118967  0.595981
H    -3.749603  -1.860400  0.900537
H    -2.764835  -1.442582  -0.488326
H    -3.725070  0.880973  1.229902
H    -4.954512  0.011107  0.327389
H    -4.261003  1.952453  -0.892391
H    -3.837664  0.484689  -1.800397
H    -1.767595  1.340254  -1.951991
H    0.041651  3.585306  -0.133018
H    0.213040  2.079511  -0.875981
H    -1.863262  3.833772  1.085794
N    -0.330407  -2.471570  2.659591
C    0.152678  -3.657605  3.336896
H    0.282150  -1.671994  2.541008
H    0.477235  -3.421918  4.359480
H    0.993606  -4.116503  2.796304
H    -0.672956  -4.375842  3.379859
