35
Energy: -21190.6362585 eV PBE+vdW (tier 2 basis)
C    -0.297952  0.940655  0.349603
C    0.320574  0.218787  1.537874
O    1.532911  0.264354  1.754175
H    0.511475  1.426489  -0.201348
H    -1.020568  1.705290  0.668409
H    -0.822003  0.247555  -0.323687
N    -0.515800  -0.477303  2.369966
C    -1.955432  -0.627602  2.262432
C    -2.737360  0.036372  3.427168
O    -3.952998  -0.124029  3.539067
H    -0.038550  -0.976595  3.148844
H    -2.294164  -0.068746  1.379490
C    -2.405299  -2.096337  2.057607
C    -1.658560  -3.129574  2.908131
C    -1.813472  -2.959038  4.431295
N    -0.737847  -3.568717  5.203142
C    0.499729  -2.968959  5.252803
N    1.454601  -3.667887  5.987252
N    0.685844  -1.804977  4.712096
H    -2.253338  -2.353030  0.999223
H    -3.487788  -2.129955  2.245719
H    -0.587227  -3.083736  2.665544
H    -1.996370  -4.136611  2.618335
H    -2.765347  -3.381772  4.779540
H    -1.822832  -1.898927  4.708652
H    -0.765298  -4.575261  5.313098
H    2.416034  -3.497037  5.718283
H    1.266152  -4.640284  6.205813
H    1.620572  -1.440955  4.903744
N    -1.992377  0.813430  4.254752
C    -2.548966  1.492361  5.405645
H    -0.988425  0.810683  4.104023
H    -3.634716  1.347920  5.385506
H    -2.328471  2.568193  5.374175
H    -2.150906  1.077803  6.343386
