35
Energy: -21190.3573548 eV PBE+vdW (tier 2 basis)
C    -0.541899  0.156477  -0.590919
C    -0.109617  0.843950  0.683729
O    0.964202  1.461884  0.751724
H    0.118915  0.484283  -1.397445
H    -1.586498  0.355208  -0.858902
H    -0.449281  -0.933027  -0.474872
N    -0.900340  0.738776  1.796967
C    -2.349619  0.531657  1.858694
C    -2.768154  -0.848086  1.291852
O    -3.579288  -0.962622  0.375327
H    -0.481349  1.198781  2.612139
H    -2.578452  0.498801  2.937360
C    -3.192674  1.664588  1.246761
C    -3.213510  2.996653  2.020938
C    -2.142345  4.052739  1.676054
N    -0.778776  3.770735  2.096227
C    -0.454877  3.603449  3.432673
N    0.623182  2.730752  3.629493
N    -1.051867  4.090028  4.467771
H    -4.217854  1.277432  1.178410
H    -2.883955  1.833195  0.203664
H    -3.191978  2.804181  3.105750
H    -4.184698  3.477586  1.826582
H    -2.454735  5.016778  2.108971
H    -2.112747  4.211744  0.588443
H    -0.215439  3.228392  1.444856
H    1.057612  2.855498  4.538314
H    1.281215  2.637001  2.857550
H    -1.845311  4.675622  4.199779
N    -2.196559  -1.945683  1.870387
C    -1.265169  -2.019765  2.984826
H    -2.499184  -2.816386  1.445140
H    -1.311436  -3.029415  3.408383
H    -1.537522  -1.316070  3.782060
H    -0.229308  -1.810033  2.682904
