35
Energy: -21190.4514616 eV PBE+vdW (tier 2 basis)
C    0.124113  -0.936674  0.479739
C    0.046447  -0.408338  1.895197
O    1.086596  -0.146603  2.525598
H    0.616896  -1.918576  0.513358
H    0.759772  -0.269607  -0.114317
H    -0.849202  -1.044763  -0.013086
N    -1.202208  -0.269011  2.404178
C    -1.668596  0.071988  3.767175
C    -1.202734  1.410290  4.399835
O    -1.994494  1.991440  5.144602
H    -1.951583  -0.495299  1.761241
H    -2.741601  0.258423  3.631356
C    -1.570394  -1.084191  4.791091
C    -0.173752  -1.613536  5.161439
C    0.248288  -2.850037  4.353651
N    1.577554  -3.323504  4.704822
C    2.601400  -3.569879  3.803939
N    2.571858  -2.784095  2.649946
N    3.457897  -4.494083  4.093407
H    -2.194336  -1.915372  4.422083
H    -2.077760  -0.703771  5.688456
H    -0.170511  -1.887540  6.226991
H    0.591303  -0.834523  5.048482
H    0.233587  -2.639654  3.278300
H    -0.493074  -3.654031  4.514068
H    1.637455  -3.969445  5.485477
H    3.421481  -2.853348  2.101811
H    2.250010  -1.818613  2.749296
H    4.239017  -4.494975  3.432959
N    0.043849  1.849270  4.125952
C    0.564383  3.065171  4.722651
H    0.659624  1.227747  3.588010
H    1.378671  3.451365  4.099433
H    0.947056  2.892437  5.740457
H    -0.233867  3.813257  4.787384
