35
Energy: -21190.239585 eV PBE+vdW (tier 2 basis)
C    -2.175662  2.631786  2.283781
C    -2.113762  1.361815  3.093107
O    -1.895528  1.389646  4.311934
H    -1.362049  3.276818  2.635169
H    -3.118475  3.148565  2.517458
H    -2.071472  2.473229  1.208053
N    -2.310981  0.137178  2.493585
C    -2.986741  -0.232305  1.251609
C    -2.077570  -0.081789  0.006362
O    -1.228358  0.793918  -0.109264
H    -2.191683  -0.613198  3.167723
H    -3.186490  -1.311005  1.360820
C    -4.352886  0.468086  1.038945
C    -5.537777  -0.140638  1.801976
C    -5.450944  -0.201861  3.344820
N    -5.053812  1.014534  4.018921
C    -5.799008  2.176738  4.025610
N    -5.069154  3.288838  4.450452
N    -7.026908  2.339171  3.657275
H    -4.594180  0.436694  -0.034004
H    -4.256244  1.531910  1.286355
H    -5.719625  -1.170009  1.448384
H    -6.429679  0.436864  1.518356
H    -4.734802  -0.975077  3.654613
H    -6.430269  -0.539911  3.725352
H    -4.084139  1.080756  4.313096
H    -5.674909  4.055117  4.724879
H    -4.316014  3.111958  5.108885
H    -7.436320  1.465655  3.321302
N    -2.335154  -1.006766  -0.967044
C    -1.672447  -0.993262  -2.258162
H    -3.042584  -1.710523  -0.793088
H    -2.385025  -0.803515  -3.073327
H    -1.157861  -1.944817  -2.448132
H    -0.932258  -0.186619  -2.237768
