35
Energy: -21190.1517109 eV PBE+vdW (tier 2 basis)
C    0.155417  1.309802  1.206281
C    0.004121  0.450927  2.443629
O    0.820769  0.447397  3.361329
H    -0.678619  2.017182  1.096458
H    0.185145  0.695026  0.295286
H    1.091672  1.866467  1.292612
N    -1.097276  -0.379596  2.498962
C    -2.299006  -0.306576  1.680266
C    -3.213867  0.919548  1.930415
O    -3.743709  1.468979  0.965246
H    -1.150240  -0.890911  3.375798
H    -1.996952  -0.166975  0.633031
C    -3.118339  -1.610352  1.748261
C    -2.513156  -2.781257  0.958651
C    -1.346522  -3.519754  1.643104
N    -0.626801  -4.424893  0.764100
C    0.285233  -3.925583  -0.165364
N    0.679562  -4.894660  -1.094145
N    0.765605  -2.733556  -0.251605
H    -4.110980  -1.384394  1.335069
H    -3.285587  -1.894198  2.802162
H    -2.172550  -2.409793  -0.019882
H    -3.308326  -3.512956  0.746434
H    -1.718874  -4.099415  2.501462
H    -0.616002  -2.807840  2.048133
H    -1.164665  -5.218121  0.425859
H    1.452971  -4.553288  -1.658000
H    0.877473  -5.808112  -0.693746
H    0.323499  -2.095156  0.413162
N    -3.429920  1.371191  3.201374
C    -2.985561  0.846527  4.485093
H    -4.033319  2.187626  3.216438
H    -3.583137  1.323515  5.269797
H    -1.925906  1.056655  4.687493
H    -3.157843  -0.235356  4.566754
