35
Energy: -21190.3161452 eV PBE+vdW (tier 2 basis)
C    1.087779  0.460086  0.794631
C    0.365007  0.166732  2.096559
O    0.934404  0.203034  3.184273
H    1.804376  -0.349668  0.604146
H    1.664162  1.384984  0.910956
H    0.424081  0.553676  -0.073821
N    -0.967372  -0.125771  1.971909
C    -1.826113  -0.595173  3.058952
C    -1.557231  0.101356  4.416634
O    -1.429307  -0.540836  5.458851
H    -1.345020  -0.197285  1.034287
H    -2.843736  -0.258849  2.791252
C    -1.894412  -2.137207  3.153559
C    -0.587701  -2.938874  3.076922
C    0.341301  -2.878571  4.306080
N    -0.288110  -3.224831  5.564407
C    -0.634552  -4.516652  5.903237
N    -1.454798  -4.575813  7.039094
N    -0.309612  -5.623177  5.317622
H    -2.535219  -2.470572  2.322353
H    -2.437148  -2.391239  4.074793
H    -0.006895  -2.635885  2.190555
H    -0.875374  -3.986569  2.902336
H    0.753579  -1.868427  4.414171
H    1.197702  -3.549574  4.136298
H    -0.864451  -2.473230  5.938734
H    -1.512669  -5.529280  7.384860
H    -1.206983  -3.917382  7.772822
H    0.201887  -5.447093  4.450311
N    -1.637273  1.462980  4.459830
C    -1.757518  2.425193  3.381094
H    -1.425485  1.824622  5.384619
H    -2.140258  3.364826  3.796507
H    -2.474045  2.084093  2.624432
H    -0.796163  2.630280  2.884994
