35
Energy: -21190.4863337 eV PBE+vdW (tier 2 basis)
C    -0.486788  -0.785955  -0.492511
C    -0.145817  -0.005394  0.763435
O    0.989916  0.409370  0.982875
H    -0.545653  -1.860258  -0.266802
H    0.316591  -0.630030  -1.217323
H    -1.445926  -0.487736  -0.936444
N    -1.163901  0.232797  1.658224
C    -2.473125  -0.411711  1.702504
C    -3.427117  0.465576  2.555351
O    -4.193413  -0.010131  3.396638
H    -0.858297  0.708270  2.515949
H    -2.902715  -0.366112  0.687435
C    -2.497273  -1.911114  2.113868
C    -1.375046  -2.440394  3.020120
C    -1.533179  -2.203712  4.534542
N    -1.672519  -0.817906  4.965566
C    -0.699885  0.148637  4.776372
N    0.609154  -0.296352  4.717723
N    -0.920018  1.428495  4.694675
H    -2.470004  -2.495525  1.184147
H    -3.479428  -2.101008  2.571053
H    -0.407125  -2.047041  2.671312
H    -1.314587  -3.530794  2.877696
H    -0.689733  -2.668795  5.069314
H    -2.433451  -2.725882  4.887689
H    -2.615086  -0.455449  4.837450
H    1.244627  0.424413  4.391066
H    0.786501  -1.206223  4.310258
H    -1.908130  1.630270  4.870100
N    -3.369866  1.786656  2.254087
C    -4.117157  2.796192  2.979602
H    -2.612134  2.083366  1.646986
H    -4.631101  3.470968  2.282952
H    -3.456521  3.391399  3.627111
H    -4.861004  2.286036  3.599778
