35
Energy: -21190.3078651 eV PBE+vdW (tier 2 basis)
C    0.624937  0.931430  0.721964
C    0.081216  -0.221610  1.544386
O    0.780384  -1.199801  1.836366
H    1.615861  0.653420  0.354104
H    0.711812  1.847803  1.322678
H    -0.029624  1.170430  -0.127861
N    -1.214618  -0.143585  1.968394
C    -2.189001  0.899817  1.713882
C    -1.887875  2.321205  2.246217
O    -2.394784  3.275888  1.655838
H    -1.576170  -1.031330  2.349220
H    -2.276062  1.078931  0.629027
C    -3.602936  0.467316  2.175249
C    -3.943865  0.438478  3.683142
C    -3.779381  -0.887224  4.450688
N    -2.423627  -1.211601  4.891167
C    -1.671471  -2.180608  4.257023
N    -0.469889  -2.483212  4.892480
N    -2.096028  -2.693877  3.146716
H    -3.812118  -0.517013  1.729252
H    -4.284622  1.180611  1.694441
H    -5.012925  0.688800  3.762900
H    -3.421224  1.246742  4.217616
H    -4.135427  -1.724530  3.834203
H    -4.413362  -0.843115  5.348059
H    -2.229200  -1.076085  5.875611
H    0.237322  -2.813101  4.240148
H    -0.092849  -1.737989  5.473014
H    -1.400688  -3.327273  2.746953
N    -1.106978  2.535035  3.349436
C    -0.401974  1.623445  4.239769
H    -0.997816  3.529408  3.527507
H    0.584374  1.326917  3.850969
H    -0.986455  0.717397  4.423961
H    -0.251677  2.136355  5.198135
