35
Energy: -21190.0945868 eV PBE+vdW (tier 2 basis)
C    -1.621612  1.354310  0.752045
C    -1.511969  1.415069  2.260118
O    -1.366360  2.490798  2.855119
H    -1.325641  2.329042  0.355195
H    -2.660300  1.159733  0.449123
H    -0.979441  0.577634  0.320112
N    -1.562361  0.246661  2.964457
C    -2.020539  -1.080451  2.544347
C    -1.012034  -1.699273  1.530408
O    0.153069  -1.828362  1.899530
H    -1.421711  0.389530  3.959009
H    -1.828377  -1.717147  3.421510
C    -3.537831  -1.133816  2.286071
C    -4.377994  -0.753573  3.526870
C    -5.308758  0.442929  3.288390
N    -4.592117  1.662406  2.974747
C    -4.776942  2.368653  1.806452
N    -4.092315  3.587221  1.806082
N    -5.533214  1.894926  0.866501
H    -3.797645  -2.153185  1.969836
H    -3.816317  -0.469585  1.458700
H    -3.721498  -0.530297  4.383512
H    -4.994479  -1.608434  3.842005
H    -5.948736  0.595576  4.173453
H    -5.972279  0.251533  2.434890
H    -4.110763  2.144108  3.723760
H    -4.054431  4.025518  0.892491
H    -3.169750  3.561431  2.249025
H    -5.534926  2.517426  0.056279
N    -1.381493  -2.145553  0.289044
C    -2.604952  -2.031208  -0.494235
H    -0.587215  -2.574436  -0.177323
H    -2.357359  -2.280040  -1.531918
H    -3.011772  -1.014067  -0.488150
H    -3.389603  -2.724528  -0.160988
