35
Energy: -21190.3022023 eV PBE+vdW (tier 2 basis)
C    0.681279  -1.306283  0.672155
C    -0.071228  -2.531002  0.191513
O    0.482960  -3.603339  -0.040253
H    1.749188  -1.537617  0.662125
H    0.383559  -1.030875  1.694044
H    0.490079  -0.432302  0.034236
N    -1.429832  -2.398444  0.020720
C    -2.265583  -1.265443  0.377471
C    -2.405019  -0.940606  1.878897
O    -2.500615  0.246575  2.217729
H    -1.884130  -3.249698  -0.297631
H    -1.794905  -0.353198  -0.014736
C    -3.678279  -1.394808  -0.254140
C    -3.906804  -0.502218  -1.477836
C    -3.730299  1.007455  -1.194903
N    -4.288809  1.482087  0.059691
C    -5.652352  1.542780  0.244478
N    -6.007212  1.789124  1.579788
N    -6.464948  1.343535  -0.741367
H    -4.437750  -1.151293  0.501879
H    -3.854031  -2.447718  -0.523565
H    -4.930432  -0.671416  -1.836716
H    -3.222214  -0.785055  -2.293477
H    -4.193688  1.571298  -2.014874
H    -2.663738  1.275269  -1.181815
H    -3.724007  1.291125  0.889345
H    -6.954624  2.131621  1.695136
H    -5.337177  2.338303  2.112301
H    -7.433796  1.503770  -0.456608
N    -2.446662  -1.934191  2.805093
C    -2.531399  -3.378881  2.622329
H    -2.567384  -1.576178  3.747718
H    -2.860240  -3.817889  3.570512
H    -1.566744  -3.827214  2.351298
H    -3.276065  -3.648918  1.862583
