35
Energy: -21190.4438438 eV PBE+vdW (tier 2 basis)
C    -0.000045  -0.265601  0.237512
C    -0.027906  -0.110752  1.745528
O    0.991762  -0.101549  2.429786
H    1.044202  -0.256405  -0.084499
H    -0.548364  0.539364  -0.270682
H    -0.456502  -1.218453  -0.066799
N    -1.266354  0.037675  2.333021
C    -2.580417  -0.026492  1.705655
C    -3.113080  1.331279  1.186673
O    -4.157642  1.380097  0.539949
H    -1.228008  0.053316  3.349585
H    -2.518335  -0.665355  0.811939
C    -3.610156  -0.654530  2.654834
C    -3.355361  -2.131570  2.953692
C    -4.482736  -2.783473  3.763145
N    -5.768710  -2.751753  3.073337
C    -6.087384  -3.726501  2.144288
N    -7.409909  -3.609094  1.685534
N    -5.224201  -4.625676  1.816518
H    -4.594312  -0.538523  2.182703
H    -3.639394  -0.066891  3.590540
H    -2.413749  -2.268399  3.507983
H    -3.244653  -2.689095  2.011661
H    -4.614811  -2.254741  4.718540
H    -4.209189  -3.825823  3.985306
H    -6.554100  -2.390321  3.599921
H    -7.612803  -4.196258  0.883541
H    -7.720445  -2.652461  1.532003
H    -5.575067  -5.219533  1.062075
N    -2.355477  2.415201  1.500225
C    -2.701223  3.761284  1.090712
H    -1.502177  2.244546  2.021955
H    -3.639448  3.705348  0.527982
H    -1.922795  4.193809  0.446718
H    -2.844335  4.417136  1.960731
