35
Energy: -21190.3141636 eV PBE+vdW (tier 2 basis)
C    -0.504854  0.002604  -0.471541
C    -0.666420  -0.703554  0.860494
O    -0.188846  -1.817395  1.079034
H    -0.877110  -0.655306  -1.266175
H    0.564466  0.165782  -0.655952
H    -1.026673  0.965768  -0.524652
N    -1.364013  -0.012826  1.810272
C    -1.672140  -0.596497  3.098194
C    -2.983606  0.043200  3.574852
O    -3.382608  1.106279  3.092238
H    -1.868503  0.844369  1.594262
H    -1.794887  -1.680153  2.945899
C    -0.525913  -0.399213  4.123950
C    -0.243028  1.065127  4.468389
C    0.880105  1.258042  5.488643
N    2.171965  0.875790  4.944040
C    3.365829  0.943953  5.643509
N    3.416134  1.928478  6.634130
N    4.338219  0.179413  5.274774
H    0.354133  -0.888604  3.681837
H    -0.758595  -0.959041  5.042965
H    -1.151144  1.530292  4.880571
H    0.006069  1.624227  3.554300
H    0.631285  0.693441  6.412473
H    0.907278  2.326128  5.757817
H    2.182077  0.081152  4.311982
H    4.166102  1.803019  7.303076
H    2.541949  2.197241  7.073032
H    5.193088  0.379661  5.798930
N    -3.674015  -0.581778  4.568903
C    -3.396812  -1.850364  5.220896
H    -4.496810  -0.065131  4.865171
H    -4.344855  -2.329184  5.493350
H    -2.793934  -1.731905  6.134342
H    -2.867158  -2.528770  4.543072
