35
Energy: -21190.5481543 eV PBE+vdW (tier 2 basis)
C    0.279541  -3.065903  -0.442917
C    0.010538  -2.142042  0.729126
O    0.526102  -1.033886  0.825911
H    -0.108516  -4.082814  -0.303966
H    1.360126  -3.111001  -0.619953
H    -0.180814  -2.633350  -1.341072
N    -0.846389  -2.643152  1.686959
C    -1.371019  -1.815235  2.766013
C    -0.958817  -2.313509  4.170405
O    -1.619292  -2.026460  5.173521
H    -1.315843  -3.520758  1.490862
H    -0.866616  -0.842810  2.635645
C    -2.885894  -1.607747  2.676636
C    -3.723178  -2.898351  2.816711
C    -4.981333  -2.703866  3.663649
N    -4.616758  -2.457473  5.043885
C    -5.552420  -2.066114  5.981625
N    -4.977214  -1.671626  7.192073
N    -6.837064  -2.016290  5.849649
H    -3.108357  -1.107557  1.724338
H    -3.157891  -0.899910  3.470567
H    -3.126796  -3.698571  3.287217
H    -4.021671  -3.272098  1.827142
H    -5.613350  -3.605408  3.597230
H    -5.577827  -1.866863  3.248083
H    -3.648326  -2.172301  5.206272
H    -4.145159  -2.184052  7.468579
H    -5.672406  -1.612723  7.929093
H    -7.122289  -2.229504  4.891741
N    0.185662  -3.037778  4.213681
C    0.789539  -3.493318  5.450585
H    0.663450  -3.195274  3.333302
H    0.988102  -4.572607  5.413960
H    0.086345  -3.283893  6.263177
H    1.731835  -2.964755  5.653269
