35
Energy: -21190.0459221 eV PBE+vdW (tier 2 basis)
C    0.261690  -0.409610  0.348550
C    -0.172725  0.510283  1.471165
O    0.558155  1.413546  1.869080
H    0.832483  0.186814  -0.370448
H    -0.550706  -0.928701  -0.169476
H    0.928171  -1.171029  0.774507
N    -1.398299  0.318646  2.072196
C    -2.456168  -0.657167  1.850310
C    -1.896022  -2.096792  1.688451
O    -0.974934  -2.495294  2.391531
H    -1.526590  0.954122  2.853662
H    -2.973747  -0.736254  2.821395
C    -3.531964  -0.162201  0.852963
C    -3.095501  0.148448  -0.580087
C    -4.226225  0.778828  -1.409152
N    -4.600541  2.105686  -0.946776
C    -3.927249  3.246022  -1.387795
N    -4.515727  4.418703  -0.904791
N    -2.898714  3.318776  -2.156344
H    -3.945756  0.764197  1.279896
H    -4.375678  -0.875944  0.852292
H    -2.747952  -0.755201  -1.105706
H    -2.244045  0.843174  -0.563471
H    -5.125210  0.147374  -1.354992
H    -3.932935  0.805690  -2.473631
H    -5.588118  2.252342  -0.771328
H    -3.943506  5.226868  -1.132707
H    -4.763712  4.393464  0.080752
H    -2.641715  2.409190  -2.545687
N    -2.538867  -2.890060  0.782282
C    -2.184788  -4.282231  0.578481
H    -3.283369  -2.490563  0.226615
H    -1.843316  -4.458640  -0.451132
H    -3.035671  -4.944695  0.789564
H    -1.368388  -4.517859  1.268973
