35
Energy: -21190.3171132 eV PBE+vdW (tier 2 basis)
C    -0.223472  -0.264761  -0.279637
C    -0.059730  -0.024082  1.204661
O    1.064745  0.039774  1.713708
H    0.561256  0.304368  -0.789211
H    -1.198704  0.022053  -0.688551
H    -0.050141  -1.328158  -0.495407
N    -1.167925  0.108363  1.994782
C    -2.584455  -0.085625  1.725565
C    -3.324747  1.195888  2.150563
O    -3.007738  1.796223  3.174023
H    -0.960605  0.415325  2.945078
H    -2.717510  -0.266514  0.650806
C    -3.160478  -1.279073  2.542740
C    -3.166092  -2.662932  1.865689
C    -1.905335  -3.122535  1.134438
N    -0.711973  -3.076126  1.959221
C    0.483116  -3.570027  1.458806
N    1.601663  -3.058841  2.127382
N    0.461144  -4.454770  0.516644
H    -4.197883  -1.044220  2.824416
H    -2.608541  -1.311895  3.494097
H    -3.982840  -2.691239  1.127025
H    -3.427898  -3.402899  2.637138
H    -1.773846  -2.534566  0.205290
H    -2.037658  -4.158965  0.799641
H    -0.618540  -2.273072  2.569606
H    2.478297  -3.358503  1.713816
H    1.591050  -2.044804  2.262140
H    1.411067  -4.718150  0.245629
N    -4.360058  1.561187  1.343302
C    -5.224924  2.690954  1.634532
H    -4.534051  1.015738  0.507841
H    -5.184864  3.437762  0.830150
H    -4.865667  3.148302  2.562192
H    -6.266457  2.369730  1.773156
