35
Energy: -21190.2693693 eV PBE+vdW (tier 2 basis)
C    -0.767715  -1.409996  0.060370
C    -0.104170  -0.573849  1.143909
O    1.092400  -0.673582  1.400465
H    -0.009566  -2.080115  -0.352663
H    -1.163126  -0.781692  -0.750743
H    -1.599939  -2.009828  0.454454
N    -0.898969  0.315141  1.823761
C    -2.339201  0.501244  1.710175
C    -2.606890  2.015824  1.791366
O    -2.452063  2.618666  2.851594
H    -0.427631  0.830501  2.564702
H    -2.639114  0.116887  0.730027
C    -3.117074  -0.233979  2.819869
C    -4.637004  -0.041128  2.763769
C    -5.296000  -0.649940  1.514786
N    -6.716348  -0.391466  1.372798
C    -7.199701  0.813809  0.876665
N    -8.596001  0.858105  0.870041
N    -6.529224  1.828650  0.447226
H    -2.741679  0.131036  3.785748
H    -2.858353  -1.303265  2.757720
H    -4.879258  1.030482  2.824704
H    -5.086622  -0.500653  3.657269
H    -5.148867  -1.741213  1.513070
H    -4.813477  -0.280122  0.597526
H    -7.327010  -0.858858  2.035432
H    -8.929730  1.700409  0.410957
H    -9.051541  0.019229  0.521009
H    -5.537002  1.755674  0.680506
N    -3.031229  2.645295  0.656732
C    -3.029737  2.134731  -0.708042
H    -3.161194  3.645424  0.781764
H    -2.021065  1.857592  -1.048736
H    -3.409304  2.922905  -1.365654
H    -3.700603  1.272967  -0.828735
