35
Energy: -21190.2065791 eV PBE+vdW (tier 2 basis)
C    0.103705  2.024985  1.146554
C    -0.175936  1.614853  2.580426
O    0.578397  1.896603  3.506570
H    0.945557  1.427672  0.771656
H    0.415082  3.075482  1.133516
H    -0.749916  1.890369  0.470497
N    -1.339235  0.913347  2.774779
C    -1.681883  0.267450  4.044280
C    -1.469676  1.223470  5.242013
O    -0.784606  0.918424  6.218233
H    -1.872189  0.640327  1.957445
H    -2.769470  0.079504  4.000849
C    -0.964667  -1.086451  4.183953
C    -1.441415  -2.008305  5.325438
C    -0.477115  -2.152488  6.523006
N    0.858853  -2.600777  6.189743
C    1.927859  -1.814013  5.786876
N    1.880269  -0.478948  6.168762
N    2.901970  -2.408122  5.170100
H    0.115489  -0.906984  4.251356
H    -1.117778  -1.598206  3.222766
H    -1.615710  -3.012925  4.910693
H    -2.418277  -1.673289  5.713885
H    -0.911412  -2.880437  7.226114
H    -0.414631  -1.205231  7.068350
H    0.962340  -3.548114  5.841166
H    2.527173  0.107482  5.654271
H    0.965037  -0.032300  6.258373
H    3.668814  -1.755447  4.992134
N    -2.166226  2.396493  5.237239
C    -3.011315  2.971599  4.207649
H    -1.933952  2.982088  6.033670
H    -3.676678  3.707212  4.674771
H    -3.644188  2.206369  3.741808
H    -2.435227  3.474207  3.415807
