35
Energy: -21190.4060797 eV PBE+vdW (tier 2 basis)
C    -0.640228  -2.771889  2.004881
C    -0.961605  -1.854850  3.167932
O    -1.131192  -2.283415  4.311368
H    0.290666  -3.308732  2.226146
H    -0.531622  -2.247562  1.047958
H    -1.436389  -3.521427  1.918088
N    -1.028506  -0.524787  2.863203
C    -1.454995  0.470554  3.825852
C    -2.411625  1.426725  3.101777
O    -2.309750  1.623123  1.889358
H    -1.041293  -0.212309  1.894622
H    -1.967822  -0.070252  4.633520
C    -0.267105  1.282248  4.404424
C    0.760639  0.443373  5.168834
C    0.226700  -0.155463  6.480681
N    1.187019  -0.959453  7.220375
C    2.365597  -0.471718  7.762437
N    2.281407  0.813552  8.305463
N    3.394037  -1.250130  7.817632
H    0.222357  1.796597  3.563812
H    -0.664370  2.075343  5.059719
H    1.637584  1.073726  5.383217
H    1.124947  -0.374941  4.530480
H    -0.621113  -0.817236  6.261002
H    -0.170786  0.644124  7.131362
H    1.326953  -1.899384  6.860762
H    3.164271  1.305475  8.364180
H    1.516920  1.404578  7.998122
H    4.149305  -0.829965  8.365408
N    -3.336304  2.076839  3.861346
C    -3.645793  1.859857  5.266756
H    -3.916619  2.721413  3.334090
H    -4.497143  2.494570  5.532689
H    -2.808273  2.132065  5.925171
H    -3.926732  0.817056  5.471537
