35
Energy: -21190.572998 eV PBE+vdW (tier 2 basis)
C    0.073683  0.006465  -0.198993
C    -0.074999  0.523893  1.219540
O    0.354282  1.623960  1.567848
H    -0.361397  -0.988477  -0.353447
H    1.140777  -0.025101  -0.451707
H    -0.403567  0.716802  -0.885399
N    -0.723031  -0.311895  2.082778
C    -0.886551  -0.002013  3.488206
C    -1.056302  -1.341108  4.216976
O    -1.531801  -2.330561  3.641251
H    -1.004431  -1.251340  1.812115
H    0.038167  0.487929  3.833367
C    -2.045461  0.999938  3.758331
C    -3.403731  0.683371  3.102566
C    -4.491993  0.163644  4.045712
N    -4.207617  -1.171000  4.540288
C    -4.496445  -1.670879  5.789608
N    -5.205959  -0.805426  6.630824
N    -4.131679  -2.823201  6.253505
H    -1.681467  1.966758  3.388068
H    -2.165965  1.106184  4.847777
H    -3.267587  -0.026510  2.271284
H    -3.794146  1.598248  2.634914
H    -5.460967  0.193661  3.511452
H    -4.577011  0.846609  4.904648
H    -3.628875  -1.771110  3.959509
H    -5.969709  -0.297260  6.194106
H    -5.511069  -1.309445  7.458722
H    -3.551090  -3.317921  5.570749
N    -0.657926  -1.345396  5.507188
C    -0.770223  -2.498902  6.388075
H    -0.294828  -0.480684  5.890534
H    -1.704957  -2.479081  6.965996
H    0.090476  -2.521851  7.066601
H    -0.765600  -3.404304  5.772004
