35
Energy: -21190.368022 eV PBE+vdW (tier 2 basis)
C    -0.664865  0.007184  -0.491764
C    -0.288528  0.280446  0.959244
O    0.831500  0.703850  1.254599
H    0.215697  0.211764  -1.106294
H    -1.486739  0.653827  -0.832189
H    -0.977238  -1.034696  -0.648810
N    -1.235284  0.059519  1.918873
C    -2.549457  -0.532461  1.731226
C    -3.622320  0.211198  2.568460
O    -4.414157  -0.388878  3.296558
H    -0.887070  0.130789  2.900270
H    -2.847714  -0.367470  0.683678
C    -2.581835  -2.062855  1.982979
C    -1.645576  -2.559876  3.091882
C    -2.005565  -2.109140  4.522238
N    -0.865568  -2.075085  5.428897
C    0.020974  -1.024799  5.390963
N    1.097357  -1.141550  6.271296
N    -0.210674  0.008889  4.643551
H    -2.285409  -2.559240  1.046978
H    -3.621550  -2.351684  2.188712
H    -0.624984  -2.215650  2.870734
H    -1.612862  -3.659837  3.054077
H    -2.769288  -2.767721  4.956941
H    -2.436988  -1.104235  4.522771
H    -0.509152  -2.964585  5.756816
H    1.933350  -0.645947  5.984435
H    1.296581  -2.063869  6.644628
H    0.489899  0.738356  4.784210
N    -3.688732  1.569346  2.445910
C    -2.937821  2.471640  1.586835
H    -4.408690  1.972911  3.036239
H    -1.921401  2.660003  1.956937
H    -3.479001  3.423693  1.538783
H    -2.865191  2.085355  0.561537
