35
Energy: -21190.486676 eV PBE+vdW (tier 2 basis)
C    -0.287389  0.873634  0.219791
C    0.046113  0.258921  1.563954
O    1.162832  0.322123  2.066851
H    0.595351  1.409081  -0.138045
H    -1.136198  1.567894  0.284524
H    -0.555662  0.098438  -0.512271
N    -0.982242  -0.385683  2.226124
C    -2.329179  -0.653804  1.736887
C    -3.266709  0.569411  1.804074
O    -4.284923  0.622561  1.100187
H    -0.677154  -0.868160  3.068077
H    -2.297523  -0.944582  0.675841
C    -2.920438  -1.829274  2.549744
C    -4.232577  -2.439785  2.007450
C    -5.430223  -2.296534  2.950555
N    -5.834831  -0.915532  3.088055
C    -6.439614  -0.391309  4.206635
N    -6.704198  0.984720  4.085228
N    -6.736666  -0.979016  5.317462
H    -3.068901  -1.489187  3.587475
H    -2.142377  -2.605890  2.580496
H    -4.083800  -3.512000  1.820398
H    -4.487765  -1.992920  1.035783
H    -5.155862  -2.694336  3.942338
H    -6.261246  -2.924992  2.581477
H    -5.570306  -0.280804  2.335567
H    -7.324626  1.283402  4.832855
H    -7.054231  1.264406  3.171856
H    -6.431785  -1.954310  5.323605
N    -2.925672  1.520192  2.696541
C    -3.754075  2.684586  2.964825
H    -2.064636  1.381344  3.214860
H    -4.168703  3.059132  2.021270
H    -3.137072  3.464537  3.423051
H    -4.589446  2.430628  3.633785
