35
Energy: -21190.4006732 eV PBE+vdW (tier 2 basis)
C    -2.002550  1.945221  2.707330
C    -1.209485  1.403341  1.535399
O    -0.149346  1.900421  1.160400
H    -1.572914  2.909652  2.989857
H    -1.936521  1.263094  3.567804
H    -3.070256  2.061250  2.475401
N    -1.723836  0.299907  0.894762
C    -2.902593  -0.467899  1.260199
C    -2.772452  -1.289250  2.562651
O    -3.730549  -1.343168  3.347326
H    -1.157684  -0.018847  0.113206
H    -3.710892  0.236209  1.484967
C    -3.331875  -1.345290  0.062412
C    -4.479122  -2.337484  0.308197
C    -5.885693  -1.733382  0.436698
N    -6.039143  -0.802921  1.547387
C    -6.167866  0.549087  1.301425
N    -5.920683  1.330391  2.443123
N    -6.428302  1.002363  0.119920
H    -2.450612  -1.914750  -0.277842
H    -3.601934  -0.659743  -0.754800
H    -4.256765  -2.958615  1.191069
H    -4.506104  -3.035164  -0.543049
H    -6.609325  -2.556951  0.545918
H    -6.152573  -1.178101  -0.472205
H    -5.489661  -1.034297  2.379020
H    -6.362692  2.242984  2.420495
H    -6.064423  0.859834  3.333326
H    -6.522089  2.019959  0.127740
N    -1.622999  -1.957618  2.847629
C    -0.388190  -2.090661  2.085016
H    -1.671515  -2.437630  3.741406
H    -0.583082  -2.362637  1.040308
H    0.193807  -2.905727  2.529135
H    0.221118  -1.177307  2.105535
