35
Energy: -21190.5018735 eV PBE+vdW (tier 2 basis)
C    -0.412826  2.310635  2.131596
C    -0.918956  1.390739  3.224886
O    -1.455987  1.829122  4.241800
H    0.241697  3.066558  2.581574
H    -1.269168  2.840681  1.695248
H    0.130668  1.793524  1.331184
N    -0.718855  0.051713  3.005451
C    -1.254785  -0.999029  3.865390
C    -0.184478  -2.021122  4.304521
O    -0.497763  -3.144963  4.689544
H    -0.403143  -0.222950  2.080153
H    -1.574484  -0.494869  4.790544
C    -2.477473  -1.686702  3.238083
C    -3.756102  -0.840237  3.310561
C    -4.553362  -1.017092  4.612825
N    -3.781046  -0.881772  5.856158
C    -3.876387  0.238743  6.687608
N    -3.942437  1.441231  5.993445
N    -3.901401  0.228624  7.979187
H    -2.613453  -2.648672  3.751307
H    -2.239143  -1.932942  2.190445
H    -4.428910  -1.117735  2.484407
H    -3.521734  0.224111  3.157405
H    -4.992979  -2.026161  4.615367
H    -5.386897  -0.300260  4.626747
H    -3.688020  -1.742008  6.383211
H    -3.953509  2.219444  6.646738
H    -3.217803  1.559617  5.281590
H    -4.012747  -0.724712  8.337276
N    1.099829  -1.565794  4.274917
C    2.213820  -2.339375  4.787638
H    1.243409  -0.598366  4.008763
H    2.581635  -1.935309  5.742233
H    3.041634  -2.356762  4.066512
H    1.859158  -3.361912  4.954685
