35
Energy: -21190.1061066 eV PBE+vdW (tier 2 basis)
C    -0.086582  -0.237031  0.760886
C    -0.298523  -0.306709  2.258712
O    0.648400  -0.413364  3.035943
H    -0.059068  -1.260594  0.360164
H    -0.852676  0.315722  0.210091
H    0.893374  0.216655  0.586088
N    -1.583318  -0.316265  2.762493
C    -2.887730  -0.063792  2.147984
C    -3.085499  -0.744974  0.774044
O    -3.448135  -0.112728  -0.215564
H    -1.574091  -0.371139  3.777863
H    -3.610936  -0.573984  2.809051
C    -3.299213  1.421259  2.130200
C    -2.341588  2.391777  1.439936
C    -2.861082  3.836332  1.510976
N    -2.006925  4.828804  0.885115
C    -1.970419  5.009585  -0.494295
N    -0.972578  5.916254  -0.875789
N    -2.708966  4.467487  -1.398750
H    -3.434208  1.731180  3.180070
H    -4.289333  1.479902  1.654103
H    -2.211930  2.107186  0.387737
H    -1.349663  2.352698  1.916936
H    -3.000521  4.132030  2.562687
H    -3.854812  3.903721  1.041911
H    -1.120834  4.998946  1.351280
H    -1.047722  6.126892  -1.867051
H    -0.931939  6.760782  -0.310696
H    -3.293719  3.717160  -1.024246
N    -2.894679  -2.096684  0.716216
C    -2.536252  -3.028497  1.772979
H    -3.040881  -2.470486  -0.216334
H    -1.455882  -3.046220  1.977699
H    -2.850270  -4.033554  1.468987
H    -3.056878  -2.789479  2.708964
