35
Energy: -21190.5853319 eV PBE+vdW (tier 2 basis)
C    -1.524609  -2.417618  3.610073
C    -0.604184  -1.519381  2.811520
O    -0.409014  -1.693716  1.602525
H    -1.164122  -3.450965  3.535170
H    -2.523636  -2.386584  3.157712
H    -1.603592  -2.140658  4.668289
N    -0.011736  -0.504817  3.501863
C    0.875607  0.471829  2.867936
C    2.316271  -0.107057  2.774540
O    3.214508  0.235828  3.542426
H    -0.134043  -0.452184  4.506940
H    0.492536  0.606048  1.844470
C    0.837156  1.795763  3.624069
C    1.538347  2.934691  2.878605
C    1.449574  4.276550  3.604930
N    0.075818  4.750831  3.678998
C    -0.272105  5.834579  4.480021
N    -1.602587  6.225851  4.286361
N    0.461562  6.475128  5.322337
H    1.322172  1.661208  4.603905
H    -0.214278  2.062894  3.805324
H    1.113950  3.038827  1.864466
H    2.600586  2.687191  2.747331
H    2.110828  5.010176  3.106769
H    1.823043  4.157069  4.633594
H    -0.429285  4.718119  2.796905
H    -2.268445  5.458370  4.251277
H    -1.869470  6.932054  4.966404
H    1.441667  6.190876  5.263266
N    2.455431  -1.019627  1.777794
C    3.675777  -1.778083  1.582457
H    1.593493  -1.319818  1.315700
H    4.485272  -1.267776  2.114691
H    3.922481  -1.835294  0.514627
H    3.588027  -2.801307  1.978705
