35
Energy: -21190.3004415 eV PBE+vdW (tier 2 basis)
C    -1.524660  -0.784031  -0.081829
C    -1.057647  -0.294190  1.274635
O    -0.212118  0.589702  1.398760
H    -0.655225  -1.141832  -0.647132
H    -1.946146  0.064306  -0.635068
H    -2.273408  -1.584234  -0.030954
N    -1.629520  -0.919359  2.352272
C    -1.350799  -0.524558  3.726413
C    -0.952987  -1.749806  4.579152
O    -1.591983  -2.092514  5.573826
H    -2.336142  -1.625789  2.183043
H    -0.466048  0.126395  3.644107
C    -2.480214  0.313476  4.368053
C    -3.921683  -0.050088  3.990152
C    -4.410942  -1.423826  4.448751
N    -5.769406  -1.654015  3.982491
C    -6.362391  -2.906408  4.108825
N    -7.710080  -2.894002  3.728620
N    -5.826106  -4.004504  4.515420
H    -2.313866  1.357386  4.067400
H    -2.351173  0.263879  5.457686
H    -4.053654  0.029481  2.899290
H    -4.578735  0.721009  4.425192
H    -4.315670  -1.513150  5.545244
H    -3.778465  -2.222183  4.033137
H    -6.410010  -0.876892  4.121344
H    -8.084378  -3.838332  3.708797
H    -7.902993  -2.387023  2.868764
H    -4.895919  -3.847223  4.910209
N    0.161401  -2.436725  4.190087
C    1.078443  -2.170801  3.093670
H    0.346351  -3.244645  4.776929
H    2.078277  -2.521610  3.375848
H    1.147497  -1.097784  2.881878
H    0.779539  -2.681824  2.165275
