35
Energy: -21190.1740164 eV PBE+vdW (tier 2 basis)
C    0.448966  0.855518  1.857318
C    0.030279  -0.108630  2.948341
O    0.634106  -0.211592  4.013576
H    -0.297423  1.650811  1.720368
H    0.561810  0.352975  0.886957
H    1.400905  1.305980  2.148796
N    -1.076317  -0.889463  2.700014
C    -2.003520  -0.797712  1.583577
C    -2.815920  0.516127  1.492420
O    -2.966005  1.049444  0.390854
H    -1.315068  -1.504772  3.473203
H    -1.430828  -0.793044  0.645343
C    -2.923843  -2.036654  1.589351
C    -4.018447  -2.057117  0.518060
C    -3.491280  -2.077441  -0.924814
N    -4.542280  -2.156170  -1.938620
C    -5.405691  -3.243984  -2.056529
N    -4.818485  -4.474001  -1.751838
N    -6.644071  -3.214051  -2.414494
H    -3.398822  -2.122038  2.580032
H    -2.277070  -2.922438  1.482544
H    -4.684641  -1.189028  0.639375
H    -4.636533  -2.952672  0.675445
H    -2.793150  -2.918738  -1.053555
H    -2.922797  -1.162582  -1.136455
H    -5.013177  -1.272105  -2.103611
H    -5.437563  -5.234902  -2.015861
H    -3.874701  -4.602399  -2.106030
H    -6.991503  -2.252668  -2.471284
N    -3.369678  1.060655  2.613824
C    -3.351350  0.609112  3.999090
H    -3.860047  1.927023  2.413553
H    -3.630913  -0.448284  4.087998
H    -4.100339  1.187441  4.551083
H    -2.375732  0.758798  4.481384
