35
Energy: -21190.2747066 eV PBE+vdW (tier 2 basis)
C    -0.175220  1.245059  0.872669
C    -0.361350  -0.030746  1.673462
O    0.570897  -0.778236  1.956042
H    0.434764  1.023601  -0.010633
H    -1.116273  1.712137  0.556010
H    0.384342  1.963938  1.485490
N    -1.646341  -0.305784  2.058185
C    -1.971759  -1.411463  2.950944
C    -1.489446  -2.795825  2.478706
O    -1.008758  -3.570938  3.313270
H    -2.379068  0.360601  1.842965
H    -1.423158  -1.268920  3.891560
C    -3.483550  -1.364309  3.252200
C    -4.105836  -2.546198  4.009623
C    -3.436237  -2.946870  5.341904
N    -2.922633  -1.818717  6.099176
C    -1.686284  -1.797539  6.741059
N    -0.721436  -2.640016  6.214430
N    -1.564413  -1.009265  7.760893
H    -4.033036  -1.250677  2.302752
H    -3.651610  -0.442916  3.830176
H    -4.131603  -3.439027  3.365629
H    -5.157993  -2.277577  4.191923
H    -2.606357  -3.627113  5.134466
H    -4.163217  -3.527095  5.937415
H    -3.594237  -1.285951  6.643750
H    0.217634  -2.467089  6.548973
H    -0.766187  -2.926747  5.231889
H    -0.599113  -0.989710  8.097944
N    -1.665039  -3.200639  1.191899
C    -2.152737  -2.470347  0.034382
H    -1.254036  -4.114183  1.023392
H    -3.038683  -1.875752  0.280535
H    -2.447556  -3.198712  -0.730130
H    -1.390452  -1.803780  -0.396467
