35
Energy: -21190.3440119 eV PBE+vdW (tier 2 basis)
C    -0.919186  -0.427772  0.844402
C    -2.073601  -1.063930  1.582856
O    -1.920781  -1.571002  2.705218
H    -1.162821  0.557861  0.429866
H    -0.622918  -1.061432  -0.003817
H    -0.077057  -0.343497  1.535944
N    -3.300248  -1.118498  0.976257
C    -3.844932  -0.223171  -0.050482
C    -3.041888  -0.299763  -1.372909
O    -2.530741  0.690721  -1.890264
H    -3.992064  -1.599457  1.554819
H    -4.841322  -0.638318  -0.277922
C    -4.052138  1.233172  0.400870
C    -5.198198  1.478284  1.402013
C    -4.865542  1.449897  2.906049
N    -4.514127  0.154911  3.466718
C    -5.441139  -0.860417  3.541437
N    -4.857104  -2.138389  3.569153
N    -6.707012  -0.603774  3.502387
H    -4.246110  1.807572  -0.514573
H    -3.105110  1.636404  0.791941
H    -6.030846  0.780865  1.220444
H    -5.606447  2.481127  1.202933
H    -5.740430  1.823844  3.454509
H    -4.029096  2.131467  3.120145
H    -3.541795  -0.130866  3.415380
H    -5.409082  -2.846153  4.040721
H    -3.860647  -2.184218  3.787237
H    -7.255210  -1.465186  3.552648
N    -2.936396  -1.532557  -1.954002
C    -3.508491  -2.801094  -1.532634
H    -2.390005  -1.518092  -2.809391
H    -2.931171  -3.277579  -0.727708
H    -3.530920  -3.475146  -2.396396
H    -4.542642  -2.678334  -1.184930
