35
Energy: -21190.3559357 eV PBE+vdW (tier 2 basis)
C    0.078191  0.237127  -0.062367
C    0.105409  0.024243  1.437940
O    1.145143  0.083323  2.091285
H    0.440969  1.249624  -0.279356
H    -0.915370  0.111478  -0.510295
H    0.775988  -0.466463  -0.532538
N    -1.107096  -0.257560  2.013248
C    -1.276438  -0.389484  3.454380
C    -1.986330  -1.715259  3.802098
O    -3.055233  -1.759301  4.419336
H    -1.934131  -0.255254  1.427596
H    -0.245731  -0.466377  3.836316
C    -1.915863  0.852314  4.117442
C    -3.000374  1.602765  3.330313
C    -4.301951  0.845518  3.041417
N    -4.982750  0.399299  4.249010
C    -6.341375  0.549697  4.476779
N    -6.905542  1.700846  3.910737
N    -7.101235  -0.246419  5.151978
H    -1.099265  1.561792  4.312100
H    -2.309078  0.547101  5.096650
H    -2.582519  1.959724  2.374255
H    -3.252275  2.507073  3.905357
H    -4.104129  -0.027390  2.388498
H    -4.983076  1.493870  2.476837
H    -4.580541  -0.457562  4.627510
H    -7.862579  1.808142  4.235253
H    -6.362014  2.549599  4.047737
H    -6.606622  -1.113627  5.380064
N    -1.367891  -2.867153  3.420525
C    -0.089120  -3.057826  2.754795
H    -1.902651  -3.695903  3.663335
H    0.346223  -4.005717  3.092420
H    0.614873  -2.256068  3.004077
H    -0.192327  -3.091410  1.659447
