35
Energy: -21190.3576168 eV PBE+vdW (tier 2 basis)
C    0.030100  -0.390595  0.708744
C    -0.441097  -0.508914  2.149131
O    0.248507  -1.074822  3.000420
H    -0.538478  -1.058242  0.045929
H    1.081311  -0.688732  0.676665
H    -0.069521  0.631413  0.318322
N    -1.638971  0.063624  2.471178
C    -2.691876  0.435398  1.546836
C    -3.647575  1.395606  2.278403
O    -3.788509  1.363309  3.497993
H    -1.922717  -0.029283  3.445875
H    -2.234412  0.977802  0.704783
C    -3.465014  -0.776055  0.943017
C    -4.564326  -1.453619  1.779688
C    -4.216345  -1.949009  3.190295
N    -2.969019  -2.679876  3.250133
C    -2.376748  -2.991945  4.471706
N    -1.115217  -3.569064  4.305281
N    -2.862662  -2.792359  5.649803
H    -2.708166  -1.518495  0.652545
H    -3.930007  -0.442491  0.001532
H    -4.937841  -2.299902  1.180281
H    -5.420604  -0.769955  1.886582
H    -5.076149  -2.546245  3.554298
H    -4.127856  -1.088284  3.868918
H    -2.755471  -3.324655  2.496390
H    -0.705618  -3.754997  5.217585
H    -0.493500  -2.977010  3.748085
H    -3.843141  -2.502637  5.606992
N    -4.349434  2.228673  1.460298
C    -5.355590  3.152525  1.952817
H    -4.141232  2.217740  0.469071
H    -6.332263  2.957984  1.489083
H    -5.068496  4.194816  1.757486
H    -5.436431  3.005186  3.034628
