35
Energy: -21190.3321576 eV PBE+vdW (tier 2 basis)
C    -0.018516  1.148728  0.290320
C    0.161755  0.119819  1.389115
O    1.255343  -0.136644  1.884433
H    -0.771206  1.904604  0.552978
H    -0.342576  0.673044  -0.646527
H    0.944962  1.636218  0.122345
N    -0.974120  -0.524647  1.833810
C    -2.334472  -0.407651  1.328029
C    -3.177750  0.722570  1.970310
O    -4.299097  0.973493  1.532984
H    -0.781842  -1.239375  2.531077
H    -2.294259  -0.152965  0.259477
C    -3.093109  -1.741589  1.453322
C    -3.287277  -2.235138  2.889074
C    -4.124030  -3.522539  2.951190
N    -4.299779  -4.078277  4.286190
C    -3.234757  -4.529298  5.062176
N    -2.289141  -5.289913  4.381483
N    -3.254752  -4.293078  6.330197
H    -2.559843  -2.498801  0.857111
H    -4.074226  -1.589658  0.981970
H    -3.786145  -1.459468  3.490601
H    -2.320194  -2.432076  3.381346
H    -3.688915  -4.287406  2.286195
H    -5.127775  -3.332327  2.544620
H    -4.938500  -3.556064  4.880900
H    -1.369308  -5.333304  4.799718
H    -2.286302  -5.274891  3.368778
H    -2.511959  -4.800956  6.817758
N    -2.595881  1.370261  3.011739
C    -3.248617  2.443750  3.735028
H    -1.665422  1.068997  3.281480
H    -3.396462  2.177760  4.790810
H    -4.225577  2.611659  3.269110
H    -2.661431  3.370836  3.682483
