35
Energy: -21190.4319812 eV PBE+vdW (tier 2 basis)
C    0.163680  -0.869121  0.026310
C    0.187150  -0.334535  1.447491
O    1.227691  -0.229156  2.088947
H    1.023589  -0.465269  -0.518612
H    -0.758170  -0.636997  -0.521545
H    0.279923  -1.960979  0.063401
N    -1.041654  0.039147  1.944857
C    -1.338650  0.350227  3.348259
C    -0.418007  1.434737  3.960220
O    -0.202830  1.480262  5.172111
H    -1.844129  -0.159181  1.358107
H    -2.316602  0.860180  3.315155
C    -1.552601  -0.889297  4.242714
C    -0.471099  -1.975990  4.302722
C    0.836495  -1.604247  5.024367
N    0.665559  -1.075890  6.376085
C    0.080466  -1.796508  7.406672
N    0.317879  -3.175023  7.364053
N    -0.636188  -1.321818  8.371890
H    -2.484431  -1.362759  3.896363
H    -1.764730  -0.518879  5.255622
H    -0.219970  -2.328869  3.289836
H    -0.915805  -2.837883  4.822423
H    1.382315  -0.846373  4.450043
H    1.486539  -2.491454  5.044979
H    0.386732  -0.095182  6.363994
H    0.036798  -3.606170  8.239805
H    1.259605  -3.438689  7.087850
H    -0.837971  -0.329969  8.215980
N    -0.007924  2.401445  3.101133
C    0.904580  3.453249  3.509433
H    -0.108737  2.209051  2.111544
H    0.705160  4.363811  2.932081
H    1.955098  3.157643  3.365279
H    0.745202  3.656731  4.573002
