35
Energy: -21190.4789572 eV PBE+vdW (tier 2 basis)
C    -2.605543  1.144203  0.223402
C    -1.867235  0.927707  1.527844
O    -1.071302  -0.009856  1.671127
H    -3.343158  0.338502  0.103488
H    -1.895486  1.062934  -0.607053
H    -3.129689  2.105588  0.163286
N    -2.160693  1.811414  2.521903
C    -1.731634  1.748702  3.929296
C    -0.240134  2.104366  4.170053
O    0.053745  2.931869  5.033581
H    -2.776076  2.578246  2.281466
H    -2.267459  2.566484  4.428021
C    -2.087792  0.429518  4.647500
C    -3.578728  0.176316  4.908337
C    -4.421844  -0.130264  3.669224
N    -5.732025  -0.632276  4.052658
C    -6.682476  -0.923336  3.079522
N    -7.935756  -1.215966  3.627402
N    -6.525969  -0.938958  1.800312
H    -1.574077  0.468422  5.619102
H    -1.652278  -0.416174  4.097792
H    -4.011817  1.036111  5.448322
H    -3.656367  -0.686674  5.588163
H    -3.914509  -0.898778  3.064030
H    -4.515357  0.768321  3.033019
H    -6.118748  -0.217089  4.896291
H    -8.569245  -1.558949  2.910909
H    -7.909779  -1.828538  4.438344
H    -5.604759  -0.584654  1.533514
N    0.651929  1.417341  3.416474
C    2.083527  1.605833  3.540939
H    0.275114  0.732521  2.751572
H    2.261085  2.395910  4.278178
H    2.525848  1.903556  2.579942
H    2.576509  0.683985  3.881818
