35
Energy: -21190.4429586 eV PBE+vdW (tier 2 basis)
C    0.143207  -0.509501  0.121604
C    0.031796  -0.589100  1.632673
O    0.930397  -1.053454  2.332886
H    1.077749  0.002014  -0.138275
H    -0.697472  0.008931  -0.355266
H    0.207729  -1.529165  -0.279406
N    -1.131106  -0.091524  2.156919
C    -1.482377  -0.253463  3.554653
C    -2.943907  -0.727908  3.603060
O    -3.745405  -0.414077  2.722027
H    -1.921305  0.115138  1.548888
H    -0.803306  -1.015746  3.968610
C    -1.330979  1.057298  4.359822
C    0.109036  1.562537  4.438412
C    0.203283  2.921566  5.143814
N    1.568274  3.419809  5.284944
C    2.126752  4.390333  4.471112
N    1.627635  4.396075  3.162743
N    2.997700  5.199597  4.973736
H    -1.724650  0.893271  5.376530
H    -1.978911  1.818832  3.895902
H    0.523705  1.640937  3.421972
H    0.745162  0.832648  4.960787
H    -0.225952  2.835965  6.153709
H    -0.409487  3.662661  4.605593
H    1.924411  3.505289  6.230178
H    2.141965  5.004717  2.536135
H    1.456263  3.481599  2.752717
H    3.439235  5.770731  4.249005
N    -3.274130  -1.467763  4.695213
C    -4.621517  -1.942482  4.952569
H    -2.535030  -1.718113  5.341298
H    -5.001741  -1.557811  5.908917
H    -4.659033  -3.040361  4.969184
H    -5.259983  -1.578217  4.141285
