35
Energy: -21190.632859 eV PBE+vdW (tier 2 basis)
C    0.303421  -1.033178  0.300191
C    0.156292  -0.548651  1.732986
O    1.093788  -0.583665  2.532007
H    1.111913  -0.470081  -0.182466
H    -0.611261  -0.928370  -0.295968
H    0.604326  -2.088234  0.315530
N    -1.074774  -0.058870  2.054811
C    -1.446143  0.309021  3.409490
C    -2.990346  0.341760  3.430280
O    -3.650994  -0.117376  2.489652
H    -1.880284  -0.238933  1.454552
H    -1.122488  -0.492341  4.098378
C    -0.801586  1.616679  3.892534
C    -1.196311  2.863035  3.082017
C    -1.269262  4.149471  3.929338
N    -2.591927  4.496957  4.442635
C    -3.119053  4.083529  5.634886
N    -4.197017  4.844891  6.082391
N    -2.603656  3.085262  6.289500
H    0.286630  1.475129  3.866195
H    -1.063241  1.767368  4.949026
H    -2.172802  2.721039  2.592320
H    -0.475317  3.015028  2.266603
H    -0.940447  5.010593  3.330717
H    -0.590989  4.075737  4.790868
H    -3.175318  5.069823  3.847813
H    -4.909256  4.343947  6.599119
H    -4.561962  5.571986  5.477453
H    -2.996952  3.031508  7.231606
N    -3.555845  0.874291  4.536827
C    -4.996834  0.994632  4.645381
H    -2.999957  1.451854  5.183026
H    -5.250381  1.232412  5.684688
H    -5.478211  0.051236  4.362931
H    -5.399348  1.784126  3.989501
