35
Energy: -21190.3040395 eV PBE+vdW (tier 2 basis)
C    1.029983  -0.270230  0.790859
C    0.268664  -0.755976  2.008975
O    0.642971  -1.721724  2.668924
H    2.057231  -0.027738  1.089404
H    0.580668  0.605392  0.305342
H    1.086315  -1.089566  0.063520
N    -0.870048  -0.044931  2.308784
C    -1.652043  -0.339536  3.500020
C    -3.084340  -0.847979  3.244445
O    -3.489498  -1.849008  3.839712
H    -1.035332  0.812012  1.795580
H    -1.157415  -1.220249  3.922752
C    -1.623740  0.791280  4.547249
C    -0.237629  1.021158  5.168632
C    0.337272  -0.164614  5.969545
N    -0.473812  -0.604917  7.103670
C    -1.649335  -1.344370  6.934522
N    -1.536312  -2.488784  6.157222
N    -2.715866  -0.950473  7.549488
H    -2.348250  0.545022  5.337113
H    -1.973039  1.733204  4.093099
H    0.491832  1.289620  4.385821
H    -0.305455  1.897042  5.833381
H    1.326341  0.122707  6.355499
H    0.522379  -1.016032  5.300337
H    -0.659366  0.133353  7.780439
H    -2.312975  -2.646152  5.515499
H    -0.631390  -2.671448  5.735963
H    -3.447512  -1.663813  7.482087
N    -3.915235  -0.173392  2.396527
C    -3.676066  1.026463  1.615796
H    -4.824837  -0.616739  2.310070
H    -4.642301  1.477392  1.363291
H    -3.141924  0.822237  0.674082
H    -3.118646  1.776626  2.191362
