35
Energy: -21190.8986361 eV PBE+vdW (tier 2 basis)
C    -3.848378  0.104700  0.396025
C    -2.718653  0.726677  1.193018
O    -1.832252  1.394055  0.646938
H    -3.418281  -0.561373  -0.362268
H    -4.386803  0.899287  -0.135408
H    -4.559150  -0.460303  1.010570
N    -2.764624  0.513502  2.537235
C    -1.679945  0.881368  3.425368
C    -1.434497  -0.300655  4.382668
O    -2.316514  -1.142798  4.591194
H    -3.380101  -0.202899  2.922956
H    -0.791410  1.032533  2.799564
C    -1.969694  2.157741  4.246487
C    -1.982217  3.472152  3.458040
C    -0.712499  3.749131  2.628668
N    0.530998  3.416877  3.327092
C    1.322842  2.331358  3.022154
N    1.558599  2.112240  1.677195
N    1.836708  1.630806  3.996466
H    -1.215759  2.215590  5.044896
H    -2.937586  2.027051  4.753256
H    -2.144577  4.292897  4.174854
H    -2.837217  3.498162  2.765612
H    -0.702077  4.807253  2.325252
H    -0.771211  3.146834  1.713236
H    0.544341  3.596858  4.326852
H    1.720149  1.147713  1.413972
H    0.979685  2.612500  1.011160
H    2.566506  1.006300  3.641865
N    -0.225054  -0.298310  4.979290
C    0.135777  -1.294565  5.970850
H    0.476057  0.418170  4.716490
H    0.197361  -2.300702  5.530899
H    -0.606112  -1.330227  6.780116
H    1.111585  -1.027926  6.390438
