35
Energy: -21190.4270654 eV PBE+vdW (tier 2 basis)
C    -2.157723  0.470640  0.398141
C    -1.703438  0.272089  1.830812
O    -1.705128  1.185459  2.651064
H    -1.939679  -0.381357  -0.257843
H    -1.678328  1.370104  -0.004661
H    -3.241279  0.648890  0.395575
N    -1.279035  -1.002374  2.141408
C    -1.015714  -1.417884  3.514132
C    0.355780  -2.104433  3.690934
O    0.594542  -2.799553  4.674822
H    -1.470743  -1.732872  1.462355
H    -0.947559  -0.474399  4.079125
C    -2.145475  -2.286394  4.093964
C    -3.510457  -1.592625  4.134418
C    -3.583200  -0.406308  5.108712
N    -4.837568  0.335320  5.025033
C    -5.904707  0.209095  5.899568
N    -5.931899  -0.993524  6.609312
N    -6.830950  1.082287  6.118768
H    -1.830346  -2.599955  5.098629
H    -2.217906  -3.213195  3.501537
H    -4.272976  -2.339741  4.406158
H    -3.794383  -1.236087  3.131502
H    -2.775155  0.302174  4.883026
H    -3.432179  -0.754530  6.141486
H    -4.785943  1.234800  4.563798
H    -6.800537  -1.074129  7.129370
H    -5.721814  -1.829977  6.072542
H    -6.618985  1.972882  5.660475
N    1.262016  -1.847549  2.706641
C    2.633438  -2.313424  2.766491
H    0.976328  -1.212703  1.969584
H    3.334423  -1.483009  2.935138
H    2.912877  -2.830957  1.839057
H    2.709702  -3.012762  3.605930
