35
Energy: -21190.1545632 eV PBE+vdW (tier 2 basis)
C    -0.123923  0.728734  0.231934
C    -0.318198  0.685904  1.733756
O    0.487295  1.174248  2.524013
H    0.857965  1.162753  0.027918
H    -0.897027  1.341089  -0.253497
H    -0.182186  -0.273194  -0.215189
N    -1.452895  0.060666  2.197028
C    -2.593676  -0.408693  1.424692
C    -3.436359  0.684116  0.723112
O    -3.839875  0.476997  -0.420908
H    -1.542062  0.097812  3.208985
H    -2.229386  -1.007682  0.576796
C    -3.489655  -1.309565  2.290187
C    -2.846810  -2.663627  2.608143
C    -3.643900  -3.513388  3.608666
N    -5.003261  -3.851419  3.186408
C    -6.111654  -3.029556  3.383394
N    -6.079290  -2.292091  4.570933
N    -7.127429  -2.902447  2.600046
H    -4.437896  -1.458198  1.756120
H    -3.751160  -0.787420  3.225390
H    -1.833787  -2.520162  3.017717
H    -2.716669  -3.229403  1.670236
H    -3.705664  -2.987128  4.569479
H    -3.101433  -4.451404  3.800110
H    -5.051198  -4.351450  2.303533
H    -6.977133  -1.838959  4.717660
H    -5.778635  -2.813801  5.390411
H    -6.970545  -3.367865  1.701574
N    -3.726307  1.849718  1.372376
C    -3.440750  2.270067  2.737333
H    -4.287263  2.473404  0.800532
H    -3.713864  1.498862  3.469942
H    -4.056045  3.150142  2.954229
H    -2.387104  2.544573  2.884238
