35
Energy: -21190.2355657 eV PBE+vdW (tier 2 basis)
C    -0.047523  0.888869  -0.396466
C    -0.058282  0.608367  1.095684
O    0.969692  0.394701  1.732277
H    0.335414  0.000582  -0.914851
H    0.648539  1.712031  -0.596552
H    -1.032398  1.142048  -0.808695
N    -1.296634  0.612929  1.683718
C    -1.488651  0.255722  3.091451
C    -2.865494  -0.429156  3.196386
O    -2.987484  -1.646954  3.137974
H    -2.116010  0.738983  1.101730
H    -0.752529  -0.524716  3.328310
C    -1.222062  1.461199  4.016587
C    -1.070309  1.133585  5.507273
C    -2.360992  0.749524  6.247186
N    -2.197736  0.621564  7.689247
C    -1.664295  -0.544045  8.222111
N    -1.431604  -0.429598  9.603223
N    -1.414207  -1.557456  7.469496
H    -1.983684  2.248408  3.864347
H    -0.278056  1.899769  3.665132
H    -0.637344  2.017527  6.003273
H    -0.342875  0.318098  5.631764
H    -2.737642  -0.218140  5.893635
H    -3.143241  1.505333  6.067194
H    -1.909135  1.467609  8.171697
H    -1.188619  -1.309049  10.046640
H    -2.161181  0.059455  10.116544
H    -1.146765  -2.377090  8.018674
N    -3.934015  0.426100  3.273400
C    -5.292027  -0.053878  3.449110
H    -3.741929  1.402814  3.462704
H    -5.594434  -0.045446  4.507961
H    -5.332028  -1.087327  3.089704
H    -5.993340  0.561771  2.872221
