35
Energy: -21190.4532805 eV PBE+vdW (tier 2 basis)
C    -0.295754  -0.685693  -0.122133
C    -0.172159  -0.397016  1.358434
O    0.928522  -0.244896  1.904021
H    0.160648  0.142376  -0.678925
H    -1.330179  -0.815130  -0.462712
H    0.276781  -1.591413  -0.356655
N    -1.341684  -0.314545  2.049984
C    -1.423157  0.045581  3.466145
C    -1.164947  -1.173417  4.403015
O    -2.012940  -1.593983  5.190955
H    -2.208404  -0.517353  1.566140
H    -0.595783  0.750898  3.642505
C    -2.746620  0.748990  3.780434
C    -4.016880  -0.014764  3.388601
C    -5.278739  0.684136  3.894163
N    -6.465534  -0.059621  3.504276
C    -7.763366  0.433058  3.508500
N    -7.868513  1.805808  3.738802
N    -8.834131  -0.238146  3.244168
H    -2.737275  1.734476  3.289027
H    -2.762242  0.929861  4.864446
H    -3.966380  -1.029272  3.810372
H    -4.110458  -0.109815  2.293657
H    -5.346077  1.690238  3.454198
H    -5.200080  0.807433  4.993171
H    -6.406123  -1.066080  3.609143
H    -8.845921  2.073695  3.808226
H    -7.308504  2.178193  4.499957
H    -8.612308  -1.195149  2.956250
N    0.084554  -1.684144  4.270487
C    0.543831  -2.838768  5.016153
H    0.694124  -1.243955  3.573874
H    1.450136  -2.599383  5.589272
H    0.765731  -3.683183  4.347578
H    -0.249719  -3.133987  5.710582
