35
Energy: -21190.6590316 eV PBE+vdW (tier 2 basis)
C    -3.006352  1.012525  1.442739
C    -1.555046  0.909026  1.863514
O    -0.667972  1.539039  1.269997
H    -3.104673  0.597233  0.431209
H    -3.285990  2.071278  1.390024
H    -3.701295  0.486432  2.108031
N    -1.302464  0.091461  2.920546
C    0.007038  -0.339196  3.433190
C    0.888258  0.735920  4.100575
O    1.558581  0.429398  5.101152
H    -2.101995  -0.353134  3.354430
H    -0.248936  -1.006255  4.261609
C    0.840628  -1.142265  2.385087
C    0.850818  -2.658468  2.622205
C    1.793304  -3.125790  3.747905
N    1.524683  -2.555867  5.060223
C    0.456158  -3.005906  5.805202
N    0.049756  -2.089405  6.787242
N    -0.112851  -4.138015  5.543960
H    1.874870  -0.764778  2.382137
H    0.440814  -0.911394  1.389760
H    1.170942  -3.160772  1.695837
H    -0.168012  -3.019657  2.831937
H    2.831503  -2.868733  3.487706
H    1.730942  -4.217036  3.840723
H    1.743855  -1.561838  5.170408
H    -0.384654  -2.510932  7.600477
H    0.723549  -1.367113  7.029832
H    -0.868556  -4.325998  6.206537
N    0.930191  1.948151  3.518765
C    1.797899  3.004104  4.006210
H    0.455306  2.038219  2.609727
H    1.420599  3.969762  3.652363
H    2.834386  2.877489  3.656978
H    1.809142  2.996522  5.101940
