35
Energy: -21190.3628388 eV PBE+vdW (tier 2 basis)
C    0.171188  1.641534  1.984300
C    -0.222650  0.666528  3.074455
O    0.614771  0.182880  3.849544
H    -0.410252  2.570982  2.051382
H    0.000829  1.209932  0.986658
H    1.235330  1.866614  2.089698
N    -1.536674  0.337403  3.175595
C    -2.578003  0.560580  2.192166
C    -3.164019  1.989011  2.295054
O    -3.212921  2.594560  3.358590
H    -1.769707  -0.321804  3.926291
H    -2.163268  0.406739  1.182006
C    -3.709348  -0.461454  2.421752
C    -3.375489  -1.926764  2.087710
C    -2.181049  -2.570395  2.805860
N    -2.250530  -2.363001  4.260855
C    -1.251495  -2.934674  5.084588
N    0.039293  -2.597552  4.725228
N    -1.647892  -3.699714  6.044416
H    -4.578948  -0.163662  1.818043
H    -4.029154  -0.364450  3.470303
H    -3.202003  -2.027496  1.004528
H    -4.279369  -2.521137  2.299607
H    -1.237545  -2.147955  2.439876
H    -2.159728  -3.646419  2.553640
H    -3.142499  -2.679456  4.643771
H    0.747950  -2.931235  5.368606
H    0.215602  -1.631683  4.411034
H    -0.871684  -3.947267  6.665513
N    -3.659118  2.526329  1.136276
C    -3.620108  1.969401  -0.206337
H    -4.064426  3.448290  1.261753
H    -4.122283  2.668106  -0.883716
H    -4.147510  1.006865  -0.277135
H    -2.591253  1.833265  -0.573208
