35
Energy: -21190.5394829 eV PBE+vdW (tier 2 basis)
C    1.255510  2.286271  1.865966
C    0.385555  1.623726  2.916200
O    0.112729  2.186777  3.985145
H    2.168393  2.657940  2.345574
H    0.716569  3.156313  1.466359
H    1.523922  1.623769  1.034574
N    -0.096739  0.402027  2.584765
C    -0.970616  -0.399334  3.422847
C    -1.076721  -1.756182  2.706688
O    -0.792104  -1.863320  1.509944
H    0.090336  -0.020401  1.675172
H    -0.482550  -0.533057  4.402469
C    -2.373029  0.211745  3.692248
C    -3.195888  0.666511  2.479899
C    -2.812302  2.037240  1.878571
N    -2.618564  3.105202  2.846856
C    -3.701822  3.709721  3.449200
N    -3.329773  4.545660  4.513013
N    -4.907173  3.464405  3.052247
H    -2.235481  1.052598  4.384894
H    -2.953515  -0.536042  4.250403
H    -4.244080  0.737651  2.801394
H    -3.161675  -0.085761  1.675777
H    -3.616557  2.352108  1.201748
H    -1.892531  1.960997  1.285243
H    -1.768452  3.044365  3.406330
H    -4.047979  5.207396  4.785494
H    -2.419367  4.988894  4.419397
H    -5.581622  4.056832  3.541650
N    -1.508278  -2.830185  3.422440
C    -1.852209  -2.922861  4.830728
H    -1.609513  -3.666255  2.854790
H    -1.278462  -2.199574  5.420545
H    -1.596885  -3.924783  5.196164
H    -2.923048  -2.747898  5.015738
