35
Energy: -21189.9115866 eV PBE+vdW (tier 2 basis)
C    -0.174120  0.142753  -0.292661
C    0.058152  0.060247  1.202701
O    1.201570  -0.045858  1.648763
H    0.808449  0.103700  -0.770228
H    -0.676873  1.073122  -0.581364
H    -0.780076  -0.692376  -0.664421
N    -0.992275  0.120198  2.095829
C    -2.459895  0.145260  2.053086
C    -3.133279  -1.141297  2.596744
O    -4.057521  -1.020448  3.401360
H    -0.621934  0.068539  3.042667
H    -2.759459  0.872091  2.822813
C    -3.127283  0.596266  0.743617
C    -2.964110  2.094187  0.442184
C    -3.958520  2.966008  1.225554
N    -3.811512  4.395826  1.001588
C    -4.279774  4.974616  -0.165287
N    -3.931176  6.331936  -0.257713
N    -4.929480  4.277630  -1.034164
H    -4.199167  0.370204  0.850780
H    -2.781858  -0.011022  -0.101560
H    -3.132019  2.276033  -0.627891
H    -1.937644  2.422539  0.670606
H    -3.870082  2.790256  2.307959
H    -4.981594  2.698148  0.931056
H    -2.975282  4.823988  1.385049
H    -4.389920  6.817732  -1.020880
H    -4.004565  6.850583  0.614306
H    -5.315081  4.871780  -1.771406
N    -2.717719  -2.378012  2.194711
C    -1.753958  -2.767024  1.177677
H    -3.258109  -3.117217  2.633100
H    -1.970757  -2.301573  0.206596
H    -1.826343  -3.851185  1.041134
H    -0.721482  -2.528645  1.463990
