35
Energy: -21190.1454897 eV PBE+vdW (tier 2 basis)
C    0.699517  -0.164353  0.946886
C    -0.051627  0.867171  1.763391
O    0.262155  2.056010  1.786691
H    1.035587  -1.007008  1.566731
H    1.566211  0.324570  0.495329
H    0.066994  -0.584475  0.152104
N    -1.120548  0.417408  2.503160
C    -1.744253  -0.897143  2.464406
C    -2.465384  -1.259210  1.143141
O    -2.337943  -2.394062  0.686554
H    -1.596883  1.162383  3.004457
H    -0.961349  -1.666804  2.530045
C    -2.683543  -1.085988  3.667348
C    -1.940718  -1.126615  5.006567
C    -2.870434  -1.159054  6.229419
N    -3.818841  -2.272843  6.280621
C    -3.403722  -3.602431  6.252037
N    -2.269731  -3.861535  7.026405
N    -4.060981  -4.439412  5.525608
H    -3.233436  -2.025446  3.514927
H    -3.436644  -0.277705  3.674455
H    -1.281320  -0.249819  5.106062
H    -1.285513  -2.010827  5.028453
H    -3.471686  -0.238609  6.271673
H    -2.258709  -1.156055  7.143544
H    -4.620694  -2.171689  5.663795
H    -2.075663  -4.847651  7.158182
H    -2.196386  -3.332905  7.891315
H    -3.759853  -5.403642  5.690110
N    -3.235741  -0.327684  0.504630
C    -3.572095  1.041075  0.869516
H    -3.641346  -0.694319  -0.350782
H    -2.736721  1.739129  0.719535
H    -3.913013  1.116308  1.910746
H    -4.405649  1.363950  0.235910
