35
Energy: -21190.2477821 eV PBE+vdW (tier 2 basis)
C    0.212071  -0.192822  0.595080
C    -0.420360  -1.330964  1.377891
O    0.030880  -2.471595  1.354059
H    1.068772  -0.598837  0.051444
H    0.561041  0.613722  1.255459
H    -0.492585  0.247710  -0.123948
N    -1.526966  -1.030769  2.139681
C    -2.275045  0.225516  2.178303
C    -2.732028  0.395208  3.643273
O    -3.845052  0.021099  4.023297
H    -1.959812  -1.843444  2.573658
H    -1.571361  1.032125  1.930606
C    -3.442204  0.258857  1.178232
C    -3.968039  1.659721  0.834218
C    -4.633833  2.435053  1.978978
N    -5.770396  1.730167  2.559412
C    -6.984613  2.333010  2.858307
N    -7.358353  3.357117  1.979313
N    -7.772615  2.031576  3.834660
H    -4.256129  -0.373620  1.561035
H    -3.084069  -0.217816  0.254469
H    -4.698322  1.554888  0.017431
H    -3.141296  2.273849  0.436625
H    -4.982614  3.406076  1.607779
H    -3.890126  2.664830  2.765673
H    -5.496971  1.006264  3.222875
H    -8.308907  3.654081  2.181568
H    -7.230871  3.137984  0.994317
H    -7.319488  1.379848  4.481703
N    -1.832105  0.930763  4.512278
C    -0.448264  1.296653  4.253236
H    -2.158399  0.944953  5.473787
H    0.157295  0.431496  3.947012
H    -0.022107  1.703503  5.175770
H    -0.370530  2.077212  3.483156
