35
Energy: -21190.5992403 eV PBE+vdW (tier 2 basis)
C    1.563966  1.001450  0.269158
C    0.955466  0.594091  1.593117
O    1.628486  0.059074  2.483840
H    2.055283  0.128202  -0.176586
H    2.342835  1.751836  0.458783
H    0.837160  1.412570  -0.441164
N    -0.360048  0.890894  1.757286
C    -1.134458  0.451042  2.904063
C    -2.499131  -0.000022  2.351654
O    -2.958993  0.488883  1.318672
H    -0.926858  1.201779  0.969451
H    -0.594303  -0.397038  3.353825
C    -1.344702  1.539243  3.984835
C    -0.099757  1.919446  4.801820
C    0.835489  2.949991  4.140589
N    1.951424  3.370119  4.965859
C    3.045839  2.575809  5.291749
N    3.410043  1.627192  4.346934
N    3.677862  2.857738  6.386311
H    -2.115358  1.165316  4.676275
H    -1.779551  2.428977  3.500846
H    0.473339  1.013622  5.051510
H    -0.433298  2.345213  5.761027
H    0.257232  3.852222  3.888011
H    1.223775  2.575787  3.185600
H    1.728626  3.980063  5.746707
H    4.078021  0.946032  4.685440
H    2.711395  1.208828  3.731047
H    4.517518  2.282046  6.484650
N    -3.147327  -0.929790  3.100919
C    -4.476297  -1.419482  2.781285
H    -2.671202  -1.304168  3.913142
H    -5.180660  -1.215191  3.599204
H    -4.462959  -2.499830  2.582756
H    -4.813198  -0.897295  1.880151
