35
Energy: -21190.3051017 eV PBE+vdW (tier 2 basis)
C    1.551528  0.751199  1.163781
C    0.994920  0.539225  2.558632
O    1.720635  0.454674  3.545512
H    2.323569  1.527547  1.203921
H    0.795582  1.027038  0.418156
H    2.038501  -0.179578  0.842945
N    -0.377250  0.464792  2.633224
C    -1.141783  0.056384  3.819193
C    -0.533969  0.631788  5.123345
O    -0.339319  -0.060953  6.120026
H    -0.883529  0.462925  1.754653
H    -2.119690  0.558413  3.722665
C    -1.422784  -1.456219  3.874104
C    -0.193412  -2.386789  3.884321
C    -0.010814  -3.141488  5.217017
N    1.301338  -3.746400  5.393897
C    2.466049  -2.980977  5.371739
N    2.381663  -1.744792  6.000700
N    3.526886  -3.505811  4.848110
H    -2.065124  -1.686372  3.010604
H    -2.044528  -1.635521  4.764798
H    0.720538  -1.809205  3.697095
H    -0.263200  -3.116519  3.064648
H    -0.756200  -3.945218  5.306047
H    -0.213575  -2.452050  6.047598
H    1.461963  -4.606641  4.876982
H    1.457362  -1.340923  6.142660
H    3.027510  -1.057420  5.630032
H    4.342775  -2.909463  5.010692
N    -0.369123  1.983223  5.118117
C    0.333704  2.655895  6.197033
H    -0.391449  2.442881  4.214410
H    0.066717  3.718619  6.200265
H    1.425505  2.554918  6.095659
H    0.033514  2.206174  7.148805
