35
Energy: -21190.5662037 eV PBE+vdW (tier 2 basis)
C    -0.096965  0.500778  0.111376
C    -0.198517  -0.079537  1.504922
O    0.763047  -0.089816  2.286223
H    0.865879  0.210840  -0.322961
H    -0.120524  1.598531  0.181829
H    -0.910307  0.180030  -0.551075
N    -1.424190  -0.550898  1.853044
C    -1.730450  -1.172241  3.126771
C    -2.785567  -2.253402  2.839904
O    -3.600409  -2.122397  1.925794
H    -2.180029  -0.589985  1.172956
H    -0.800806  -1.624697  3.506497
C    -2.280351  -0.180246  4.183010
C    -1.224121  0.785393  4.765031
C    -1.510051  2.274591  4.524432
N    -1.612576  2.662317  3.118833
C    -0.595192  3.250999  2.379690
N    0.689451  2.957458  2.828116
N    -0.753508  4.017511  1.347695
H    -2.736574  -0.767014  4.994141
H    -3.104455  0.375074  3.709833
H    -0.236029  0.537002  4.356593
H    -1.149186  0.638831  5.853332
H    -0.720203  2.872349  5.002072
H    -2.458791  2.549069  5.010793
H    -2.537753  2.904868  2.789637
H    0.882534  1.961192  2.952425
H    1.371521  3.387700  2.209637
H    -1.736368  4.280119  1.227072
N    -2.767587  -3.316649  3.687844
C    -3.736468  -4.395621  3.625481
H    -2.033993  -3.356696  4.385341
H    -4.313491  -4.466855  4.557944
H    -3.244083  -5.359097  3.435988
H    -4.419916  -4.177363  2.798551
