35
Energy: -21190.4659854 eV PBE+vdW (tier 2 basis)
C    3.354273  -1.524481  0.618652
C    2.823559  -0.529866  1.628890
O    3.574130  0.203920  2.281393
H    4.028537  -2.222851  1.129760
H    3.949091  -0.983050  -0.127344
H    2.569967  -2.093709  0.105166
N    1.466863  -0.485053  1.768130
C    0.809405  0.430256  2.699638
C    0.778417  -0.200060  4.119005
O    -0.214289  -0.776790  4.561057
H    0.896346  -1.176292  1.293938
H    1.451593  1.322081  2.731407
C    -0.589976  0.786643  2.199400
C    -1.295030  1.877595  3.013706
C    -0.582140  3.231185  2.996439
N    -1.380717  4.231152  3.682081
C    -0.940121  5.476173  4.100446
N    0.427742  5.695748  3.931934
N    -1.651568  6.386265  4.678108
H    -1.211830  -0.120612  2.227302
H    -0.504485  1.100352  1.146871
H    -1.424404  1.544368  4.052759
H    -2.307990  2.005461  2.598034
H    -0.367580  3.514550  1.944299
H    0.384785  3.157337  3.515752
H    -2.386265  4.138857  3.605837
H    0.661844  6.655112  4.169068
H    0.827749  5.402564  3.045757
H    -2.599468  6.051745  4.871448
N    1.953495  -0.055947  4.786199
C    2.194983  -0.668974  6.078249
H    2.742876  0.295080  4.241064
H    1.227367  -0.933054  6.517302
H    2.715083  0.033578  6.741483
H    2.799759  -1.584281  5.988768
