35
Energy: -21189.8672412 eV PBE+vdW (tier 2 basis)
C    -0.206027  -0.144261  -0.126642
C    0.097393  0.003880  1.352658
O    1.249647  0.014029  1.776426
H    -0.893786  0.627357  -0.496142
H    -0.655201  -1.126073  -0.330278
H    0.739188  -0.069805  -0.670348
N    -0.959798  0.121151  2.225197
C    -2.400091  0.067209  1.974814
C    -2.783094  -1.286440  1.304051
O    -2.444015  -2.316445  1.880723
H    -0.658914  0.081672  3.193384
H    -2.842686  -0.078401  2.972736
C    -2.968052  1.400731  1.457061
C    -2.748199  2.540240  2.454785
C    -3.241471  3.906097  1.945857
N    -4.646616  3.983464  1.580471
C    -5.665988  3.983397  2.524005
N    -6.932001  3.857109  1.934793
N    -5.573561  4.074460  3.805303
H    -4.047862  1.278034  1.288292
H    -2.517939  1.673101  0.490585
H    -1.675561  2.632872  2.681927
H    -3.252108  2.291850  3.402316
H    -2.661768  4.198481  1.057462
H    -3.041743  4.676890  2.705127
H    -4.896276  3.568281  0.689372
H    -7.657692  3.993375  2.633505
H    -7.079048  4.454080  1.124306
H    -4.603050  4.038549  4.123233
N    -3.519674  -1.370467  0.150956
C    -3.922834  -0.392435  -0.848352
H    -3.710293  -2.343682  -0.069885
H    -4.751909  0.244984  -0.510350
H    -4.266028  -0.942623  -1.731135
H    -3.089737  0.246828  -1.165355
