35
Energy: -21190.2726574 eV PBE+vdW (tier 2 basis)
C    -0.175608  -0.519696  0.603192
C    -0.090645  0.542789  1.681898
O    1.004751  0.926881  2.094820
H    -1.077996  -0.487579  -0.014607
H    -0.131051  -1.509437  1.079190
H    0.709893  -0.416424  -0.031442
N    -1.243976  1.043025  2.253019
C    -2.602448  1.116465  1.703088
C    -3.146727  -0.260335  1.248934
O    -3.794387  -0.405640  0.215344
H    -1.022631  1.806388  2.897941
H    -3.233952  1.366026  2.572690
C    -2.864684  2.236393  0.675970
C    -1.898206  2.427803  -0.503112
C    -0.614245  3.241445  -0.229629
N    -0.857393  4.532397  0.402315
C    -0.814456  4.702226  1.782838
N    -1.610711  5.767896  2.223642
N    -0.174614  4.008262  2.660101
H    -2.939626  3.182838  1.230986
H    -3.865691  2.034423  0.271833
H    -2.458371  2.955418  -1.292206
H    -1.620291  1.463700  -0.952809
H    -0.096683  3.410130  -1.186062
H    0.096414  2.693576  0.398609
H    -1.576972  5.083181  -0.058032
H    -1.350927  6.041256  3.167198
H    -1.650361  6.567673  1.597942
H    0.387175  3.258040  2.248873
N    -2.908046  -1.263506  2.139282
C    -3.301855  -2.636743  1.896965
H    -2.289388  -1.053230  2.915570
H    -3.771922  -3.067805  2.790193
H    -2.442801  -3.263434  1.611364
H    -4.023445  -2.638520  1.073428
