35
Energy: -21189.9092687 eV PBE+vdW (tier 2 basis)
C    1.698656  -1.228035  0.280055
C    1.123008  -0.636342  1.549278
O    1.831924  -0.193727  2.451211
H    0.979471  -1.830195  -0.288536
H    2.569019  -1.842720  0.534048
H    2.046986  -0.403657  -0.357246
N    -0.247477  -0.635227  1.634550
C    -0.937852  0.166090  2.655612
C    -0.353838  1.611733  2.618672
O    -0.430605  2.198542  1.538236
H    -0.746853  -0.769647  0.762615
H    -1.928782  0.361698  2.219651
C    -1.237544  -0.586647  3.971401
C    -0.188948  -1.467157  4.669282
C    0.177561  -2.795258  3.971975
N    -0.923381  -3.545307  3.369188
C    -2.010067  -4.041825  4.082677
N    -1.721281  -4.397323  5.399058
N    -3.215272  -4.194806  3.644671
H    -2.113553  -1.222350  3.768673
H    -1.608717  0.159847  4.689202
H    -0.600957  -1.708942  5.660099
H    0.749501  -0.924948  4.834885
H    0.697806  -3.433962  4.701118
H    0.904988  -2.619891  3.172514
H    -1.187771  -3.205631  2.450522
H    -2.489006  -4.922124  5.806742
H    -0.818838  -4.838556  5.548190
H    -3.327178  -3.780763  2.714899
N    0.083485  2.277085  3.729549
C    0.718134  1.762306  4.936842
H    0.354745  3.221205  3.466940
H    1.150106  2.614206  5.472805
H    1.522633  1.055183  4.695394
H    -0.000483  1.281102  5.611058
