35
Energy: -21190.4077668 eV PBE+vdW (tier 2 basis)
C    1.038510  0.441870  0.093661
C    0.660374  0.064733  1.513199
O    1.388006  -0.639747  2.215844
H    2.037017  0.895158  0.103881
H    0.333692  1.134534  -0.382196
H    1.100166  -0.473612  -0.508493
N    -0.528135  0.573053  1.956898
C    -1.083101  0.232155  3.260055
C    -2.111261  -0.903990  3.072175
O    -3.159199  -0.702350  2.456251
H    -1.149862  1.024589  1.294581
H    -0.230005  -0.101570  3.862100
C    -1.737003  1.450290  3.917507
C    -2.273848  1.152305  5.318458
C    -2.813502  2.397430  6.030753
N    -1.781297  3.388917  6.317953
C    -1.741546  4.601707  5.654508
N    -0.780561  5.470351  6.201451
N    -2.543766  4.852067  4.677710
H    -2.557690  1.813209  3.280969
H    -0.985799  2.251371  3.964893
H    -1.480431  0.697087  5.936045
H    -3.089373  0.414031  5.257475
H    -3.292226  2.104106  6.976731
H    -3.574222  2.889820  5.409669
H    -1.429262  3.409618  7.267204
H    -0.599685  6.284812  5.624396
H    0.086295  5.019198  6.484845
H    -2.333045  5.754263  4.246558
N    -1.807919  -2.122547  3.597781
C    -0.596619  -2.531373  4.299051
H    -2.530037  -2.819300  3.440719
H    -0.554620  -3.626201  4.301461
H    -0.587203  -2.190344  5.346079
H    0.300032  -2.158630  3.787263
