35
Energy: -21190.2885242 eV PBE+vdW (tier 2 basis)
C    -0.099806  -0.732365  0.302561
C    -0.280165  -0.575708  1.804069
O    0.668319  -0.644951  2.581233
H    0.970013  -0.831715  0.102317
H    -0.488826  0.135596  -0.248970
H    -0.614846  -1.624895  -0.078469
N    -1.550006  -0.340735  2.264878
C    -2.786658  -0.238621  1.519234
C    -3.757377  0.594080  2.381157
O    -3.632989  0.662237  3.602283
H    -1.637524  -0.158855  3.264843
H    -2.601304  0.302912  0.576842
C    -3.436124  -1.602579  1.149817
C    -4.065800  -2.415266  2.287963
C    -3.085958  -2.970167  3.324250
N    -3.764870  -3.927324  4.184709
C    -3.044875  -4.687306  5.105663
N    -3.887642  -5.434918  5.937898
N    -1.769699  -4.764277  5.256752
H    -2.670757  -2.209974  0.643753
H    -4.213298  -1.408277  0.393720
H    -4.594469  -3.268973  1.836607
H    -4.834364  -1.810215  2.797132
H    -2.628764  -2.152425  3.906271
H    -2.265976  -3.494808  2.809709
H    -4.663088  -3.609761  4.541051
H    -3.344508  -6.071126  6.514757
H    -4.644066  -5.910545  5.452758
H    -1.274440  -4.063132  4.701252
N    -4.770657  1.186662  1.693059
C    -5.824668  1.947887  2.340039
H    -4.774514  1.110782  0.682947
H    -6.811813  1.512260  2.133399
H    -5.819395  2.994671  2.007128
H    -5.638641  1.918461  3.418363
