35
Energy: -21190.1796834 eV PBE+vdW (tier 2 basis)
C    2.190468  -0.001013  2.430479
C    0.991914  0.785259  2.922335
O    1.103800  1.748323  3.682310
H    2.641249  -0.511295  3.293022
H    2.935896  0.700138  2.037513
H    1.951455  -0.746071  1.661434
N    -0.225976  0.344263  2.492309
C    -1.500970  0.920611  2.927602
C    -1.583514  2.454120  2.693335
O    -2.000952  3.208297  3.563169
H    -0.252115  -0.469784  1.891636
H    -2.256452  0.466899  2.262820
C    -1.880368  0.591651  4.379738
C    -1.813678  -0.900323  4.739030
C    -0.491371  -1.351960  5.375971
N    -0.259955  -0.710346  6.667893
C    1.003817  -0.357910  7.148991
N    1.880085  0.125017  6.182528
N    1.393222  -0.435465  8.378301
H    -2.895746  0.978045  4.531487
H    -1.246609  1.172810  5.061522
H    -2.007551  -1.532543  3.855447
H    -2.626669  -1.134383  5.444163
H    0.360158  -1.111893  4.732253
H    -0.497986  -2.453199  5.481059
H    -0.860999  -1.051869  7.411596
H    2.727992  0.466717  6.625178
H    1.498510  0.798455  5.514884
H    0.711180  -0.941495  8.950841
N    -1.244503  2.930807  1.454347
C    -0.832326  2.225258  0.256050
H    -1.303865  3.942820  1.406649
H    -1.050171  2.858599  -0.612273
H    -1.397534  1.293084  0.124546
H    0.242063  1.984895  0.245474
