35
Energy: -21190.3632407 eV PBE+vdW (tier 2 basis)
C    0.765318  -0.655880  0.434313
C    0.008309  -1.149482  1.653648
O    0.576085  -1.523666  2.674025
H    1.434568  0.156542  0.741776
H    0.119244  -0.298092  -0.376994
H    1.394070  -1.472509  0.057526
N    -1.363852  -1.134662  1.538537
C    -2.219346  -1.753461  2.556708
C    -3.617118  -2.030325  1.995137
O    -4.181768  -3.110756  2.170407
H    -1.749212  -1.033969  0.605872
H    -1.799105  -2.735337  2.813940
C    -2.304943  -0.887550  3.838292
C    -3.287259  -1.411225  4.892052
C    -2.925873  -2.796081  5.464873
N    -3.885524  -3.329197  6.410860
C    -5.144002  -3.810771  6.074134
N    -5.262449  -4.349887  4.798391
N    -6.053524  -3.804832  6.995536
H    -2.586117  0.136877  3.546377
H    -1.288790  -0.827369  4.251811
H    -4.308348  -1.451026  4.480282
H    -3.327804  -0.689575  5.722054
H    -1.950777  -2.739530  5.971564
H    -2.790084  -3.529307  4.657333
H    -3.910690  -2.897063  7.329165
H    -4.684619  -3.992707  4.038900
H    -6.219470  -4.505490  4.507506
H    -6.907363  -4.266191  6.672786
N    -4.195521  -0.996566  1.317658
C    -5.559425  -1.061329  0.819182
H    -3.739181  -0.091088  1.353161
H    -5.644648  -0.491108  -0.113168
H    -6.281173  -0.666220  1.549598
H    -5.804458  -2.110793  0.628054
