35
Energy: -21190.4116172 eV PBE+vdW (tier 2 basis)
C    0.410332  -0.058859  1.095166
C    -0.295709  -0.624835  2.311630
O    0.242856  -1.471450  3.023874
H    0.294354  1.025097  0.979749
H    0.012946  -0.530016  0.185639
H    1.471152  -0.309001  1.184500
N    -1.567880  -0.195890  2.610217
C    -2.473378  0.749915  1.943868
C    -2.857433  0.244305  0.526367
O    -3.623292  -0.716911  0.424176
H    -1.965926  -0.729555  3.376562
H    -3.420668  0.630974  2.488828
C    -2.040113  2.217834  2.132782
C    -3.138166  3.254603  1.810271
C    -2.998573  4.011522  0.481154
N    -1.789224  4.817363  0.367928
C    -0.644151  4.391337  -0.254706
N    0.378084  5.340972  -0.218468
N    -0.554090  3.204432  -0.772569
H    -1.128742  2.443920  1.564543
H    -1.757768  2.305703  3.190891
H    -3.174758  3.999560  2.620751
H    -4.128914  2.771178  1.813851
H    -3.862258  4.683246  0.361378
H    -3.008576  3.322658  -0.369988
H    -1.674813  5.570449  1.036749
H    1.196424  5.103494  -0.767072
H    0.091797  6.307424  -0.345332
H    0.312201  3.092293  -1.301170
N    -2.324430  0.881964  -0.540962
C    -2.617650  0.435619  -1.889582
H    -1.657828  1.665865  -0.452198
H    -3.699207  0.309819  -2.029818
H    -2.142879  -0.532335  -2.112625
H    -2.241575  1.189059  -2.590954
