35
Energy: -21190.471606 eV PBE+vdW (tier 2 basis)
C    0.591267  -0.098375  -0.601567
C    0.424077  -0.144120  0.906371
O    1.342010  -0.480819  1.654869
H    1.426850  0.569584  -0.844553
H    -0.305733  0.241115  -1.133600
H    0.861382  -1.101171  -0.955511
N    -0.806128  0.235685  1.365293
C    -1.193293  0.084978  2.755093
C    -2.608797  -0.510207  2.761928
O    -3.354064  -0.375583  1.787245
H    -1.593064  0.313621  0.723191
H    -0.463163  -0.600290  3.212350
C    -1.192401  1.422053  3.529381
C    0.185882  2.077586  3.613941
C    0.186106  3.358571  4.455136
N    -0.670690  4.411766  3.917176
C    -1.868988  4.744338  4.517413
N    -2.450875  5.887779  3.942254
N    -2.329280  4.061818  5.510630
H    -1.579715  1.258878  4.545711
H    -1.905729  2.103229  3.041408
H    0.556452  2.299656  2.601719
H    0.909523  1.373502  4.053928
H    1.211895  3.748710  4.526828
H    -0.162513  3.145604  5.475342
H    -0.206451  5.168803  3.431263
H    -3.413002  6.035890  4.227655
H    -2.353876  5.949073  2.931261
H    -3.256149  4.392663  5.785888
N    -3.022531  -1.160345  3.884462
C    -2.299421  -1.380608  5.125188
H    -3.996361  -1.446167  3.844409
H    -2.670819  -2.297980  5.596858
H    -2.418764  -0.548954  5.836739
H    -1.229798  -1.518549  4.931438
