35
Energy: -21190.2978 eV PBE+vdW (tier 2 basis)
C    -0.409551  -0.120117  -0.504530
C    -1.134562  -0.968333  0.524057
O    -1.787619  -1.961518  0.217599
H    0.166310  0.707820  -0.072511
H    -1.147966  0.286167  -1.207075
H    0.267735  -0.764544  -1.077874
N    -0.996609  -0.556806  1.827566
C    -1.773695  -1.180485  2.904699
C    -1.960336  -0.174021  4.049476
O    -3.098998  0.109357  4.439794
H    -0.602398  0.361341  1.995796
H    -2.789431  -1.356288  2.521929
C    -1.185574  -2.552033  3.318380
C    -2.125766  -3.476538  4.104110
C    -2.607616  -2.972614  5.472432
N    -1.495993  -2.462818  6.270404
C    -1.593895  -1.547090  7.315458
N    -2.739599  -0.768990  7.324662
N    -0.702405  -1.372610  8.239697
H    -0.249748  -2.410157  3.873202
H    -0.927203  -3.059269  2.379745
H    -1.600466  -4.436399  4.237894
H    -3.013514  -3.707163  3.495346
H    -3.142046  -3.789420  5.990432
H    -3.335359  -2.167626  5.333937
H    -0.739279  -3.124430  6.412759
H    -2.675277  -0.039438  8.026913
H    -3.101054  -0.443178  6.426240
H    0.023526  -2.093754  8.197260
N    -0.871853  0.446616  4.596434
C    0.523109  0.022096  4.612371
H    -1.146204  1.057260  5.363174
H    0.711849  -0.695949  5.424931
H    1.158963  0.902024  4.767268
H    0.805493  -0.436226  3.659949
