35
Energy: -21190.2459198 eV PBE+vdW (tier 2 basis)
C    -0.258546  -0.240112  0.036424
C    -0.141800  -0.032449  1.537267
O    0.943016  0.069346  2.099179
H    -1.271585  -0.093945  -0.358789
H    0.064840  -1.262818  -0.199512
H    0.430646  0.445289  -0.469349
N    -1.343270  0.051968  2.204492
C    -1.514014  0.061129  3.663657
C    -0.650856  1.127805  4.385637
O    -0.215536  0.930765  5.517849
H    -2.179796  -0.121484  1.659497
H    -2.550634  0.404558  3.817572
C    -1.399188  -1.311085  4.340837
C    -0.002002  -1.955593  4.361483
C    0.210766  -2.824138  5.601455
N    0.205027  -1.998845  6.805186
C    -0.254680  -2.431474  8.028930
N    -0.155699  -3.822150  8.212955
N    -0.754841  -1.583234  8.866202
H    -2.123751  -1.989133  3.863533
H    -1.747802  -1.168764  5.373773
H    0.774590  -1.181405  4.335154
H    0.154624  -2.571392  3.464816
H    1.171853  -3.359043  5.492760
H    -0.577166  -3.593994  5.670804
H    0.082104  -0.995536  6.663754
H    -0.309574  -4.108937  9.173332
H    0.675249  -4.256072  7.818281
H    -0.931361  -2.022757  9.773280
N    -0.528777  2.314007  3.732796
C    0.319794  3.377701  4.237314
H    -0.784234  2.325646  2.752214
H    -0.085817  4.351846  3.938905
H    1.352040  3.286400  3.865612
H    0.339556  3.313360  5.329931
