35
Energy: -21190.4737722 eV PBE+vdW (tier 2 basis)
C    -0.542617  0.989318  -0.569662
C    -0.153263  0.723799  0.875534
O    1.023718  0.742152  1.235745
H    0.359565  1.291613  -1.107678
H    -1.297982  1.782539  -0.657181
H    -0.951754  0.087442  -1.047240
N    -1.163714  0.478519  1.775437
C    -2.530124  0.101176  1.434260
C    -3.575428  0.668252  2.413905
O    -4.754904  0.323365  2.334409
H    -0.816437  0.232506  2.717777
H    -2.771081  0.609847  0.489905
C    -2.717379  -1.426570  1.158115
C    -3.270603  -2.352814  2.254263
C    -2.576726  -2.339775  3.621942
N    -1.143480  -2.569020  3.576264
C    -0.204136  -1.605269  3.866618
N    1.058615  -1.870913  3.356830
N    -0.391879  -0.508099  4.540358
H    -1.735360  -1.792870  0.823369
H    -3.389634  -1.531608  0.295701
H    -3.244372  -3.378801  1.850797
H    -4.329447  -2.116439  2.426325
H    -3.058838  -3.085566  4.273767
H    -2.738932  -1.369651  4.108701
H    -0.813476  -3.416773  3.129346
H    1.672190  -1.069093  3.480389
H    1.074723  -2.197962  2.394236
H    -1.298032  -0.514672  5.014777
N    -3.105782  1.564390  3.321699
C    -3.962565  2.224472  4.285836
H    -2.121488  1.807262  3.272965
H    -4.956123  1.768388  4.218156
H    -4.052586  3.299749  4.074416
H    -3.571845  2.097766  5.304523
