35
Energy: -21190.1956813 eV PBE+vdW (tier 2 basis)
C    0.353178  0.902517  0.337291
C    0.353212  0.222934  1.682593
O    1.367455  -0.299493  2.151579
H    0.764957  1.916422  0.470676
H    -0.629244  0.981344  -0.137488
H    1.040013  0.352099  -0.314409
N    -0.820730  0.166453  2.409840
C    -2.018075  1.011043  2.320779
C    -2.786278  0.858110  0.986245
O    -3.089767  1.831561  0.300618
H    -0.666753  -0.293728  3.302793
H    -2.695941  0.612718  3.096305
C    -1.736498  2.487978  2.641123
C    -1.163497  2.667137  4.049930
C    -0.385025  3.977770  4.271948
N    0.713993  4.237383  3.345498
C    1.685512  3.309003  2.992916
N    2.153503  2.488877  4.013799
N    2.125848  3.318910  1.777614
H    -2.663622  3.062314  2.513117
H    -1.036194  2.874927  1.888593
H    -0.486155  1.829763  4.274946
H    -1.969126  2.617853  4.800732
H    -0.014048  3.999125  5.311087
H    -1.062147  4.839006  4.187721
H    0.480621  4.803751  2.536325
H    2.409245  1.552128  3.715341
H    1.657536  2.507208  4.897397
H    2.933079  2.697308  1.680547
N    -3.144377  -0.407370  0.614646
C    -2.933156  -1.670048  1.303536
H    -3.632087  -0.429146  -0.275300
H    -3.634749  -2.406413  0.895225
H    -3.141469  -1.580330  2.378076
H    -1.909960  -2.051827  1.182526
