35
Energy: -21190.3278039 eV PBE+vdW (tier 2 basis)
C    -0.271500  0.579116  -0.197607
C    -0.388206  0.940255  1.273501
O    0.318047  1.801266  1.796704
H    -1.008676  -0.163326  -0.526488
H    0.737586  0.188763  -0.381816
H    -0.382681  1.490864  -0.797318
N    -1.353677  0.258551  1.957150
C    -1.496968  0.314961  3.408305
C    -1.428051  1.739574  4.017239
O    -0.744305  1.967884  5.011522
H    -1.803913  -0.551858  1.521918
H    -2.531614  -0.017531  3.602108
C    -0.519754  -0.634257  4.133008
C    -1.135774  -1.428330  5.289213
C    -2.202018  -2.464565  4.885808
N    -1.762457  -3.412961  3.865709
C    -1.934812  -3.188489  2.509686
N    -1.018126  -3.866829  1.710477
N    -2.807337  -2.426221  1.928065
H    0.313412  -0.032209  4.515043
H    -0.106872  -1.327283  3.387107
H    -1.579698  -0.741698  6.027282
H    -0.325970  -1.952303  5.822919
H    -3.112831  -1.973953  4.516120
H    -2.516923  -3.032426  5.773447
H    -0.893075  -3.884121  4.099918
H    -1.330714  -3.928224  0.746646
H    -0.678770  -4.753925  2.068212
H    -3.419690  -1.978961  2.612740
N    -2.266621  2.695420  3.513382
C    -3.098872  2.668027  2.324676
H    -2.113027  3.598248  3.951414
H    -3.864769  3.447368  2.420458
H    -3.614857  1.706288  2.224866
H    -2.528347  2.849805  1.400522
