35
Energy: -21190.7973051 eV PBE+vdW (tier 2 basis)
C    -2.038005  -2.817923  1.495127
C    -2.288146  -1.660111  2.438781
O    -2.993858  -1.782732  3.452985
H    -3.002791  -3.211404  1.151369
H    -1.540565  -3.623335  2.051298
H    -1.425376  -2.537525  0.630190
N    -1.679533  -0.493474  2.099436
C    -1.818670  0.705171  2.923513
C    -3.112836  1.469648  2.539523
O    -3.101057  2.511262  1.882413
H    -1.248759  -0.411918  1.158094
H    -1.936138  0.348227  3.958902
C    -0.594377  1.614656  2.823226
C    0.728221  0.950211  3.261599
C    1.827689  0.960294  2.189901
N    1.504329  0.155089  1.007382
C    0.709644  0.604486  -0.035069
N    1.075105  1.809815  -0.599943
N    -0.260288  -0.156821  -0.445325
H    -0.795519  2.502413  3.436543
H    -0.529436  1.996748  1.795050
H    0.547013  -0.096676  3.553454
H    1.124835  1.446827  4.159814
H    2.767428  0.574838  2.611911
H    2.035342  1.992314  1.872873
H    1.235976  -0.799022  1.239977
H    0.338219  2.367703  -1.011578
H    1.827661  2.337272  -0.175501
H    -0.661574  0.178740  -1.324069
N    -4.236093  0.853814  2.995390
C    -5.568190  1.305429  2.648435
H    -4.103917  -0.069450  3.418968
H    -6.211870  1.327948  3.537672
H    -6.035566  0.654107  1.893807
H    -5.488649  2.316554  2.235141
