35
Energy: -21190.5202304 eV PBE+vdW (tier 2 basis)
C    -1.572803  0.207299  -0.382088
C    -1.227443  0.917565  0.909041
O    -0.376964  1.808756  0.974992
H    -1.711947  -0.871140  -0.230303
H    -0.772473  0.379849  -1.106796
H    -2.518360  0.612162  -0.774313
N    -1.956676  0.517993  1.998292
C    -1.800225  1.136537  3.307217
C    -1.171395  0.098445  4.259527
O    -1.864335  -0.786939  4.767883
H    -2.622451  -0.244515  1.885824
H    -1.125440  1.984451  3.138162
C    -3.125630  1.640484  3.901238
C    -3.954675  2.524076  2.949661
C    -5.389331  2.005985  2.741970
N    -5.467708  0.635414  2.246226
C    -5.063945  0.304501  0.961080
N    -4.697079  -1.046815  0.840075
N    -4.956054  1.065075  -0.071975
H    -2.888104  2.183940  4.826970
H    -3.693063  0.755689  4.227394
H    -3.457753  2.587348  1.971128
H    -4.013102  3.553828  3.330276
H    -5.938489  2.661334  2.049961
H    -5.945203  2.032001  3.690224
H    -5.229341  -0.063381  2.944037
H    -4.637277  -1.311824  -0.139759
H    -5.274931  -1.697822  1.366581
H    -5.147281  2.043305  0.152720
N    0.169402  0.170998  4.479901
C    1.133980  1.134478  3.963798
H    0.508217  -0.550424  5.109915
H    2.118342  0.653741  3.919884
H    1.216572  2.024343  4.607629
H    0.871851  1.451842  2.947418
