35
Energy: -21189.8930169 eV PBE+vdW (tier 2 basis)
C    -1.318948  -0.874012  -0.161255
C    -0.764849  -0.903332  1.251079
O    0.206842  -1.594031  1.547671
H    -2.224651  -1.494237  -0.214468
H    -0.563569  -1.299929  -0.826976
H    -1.580245  0.133851  -0.507198
N    -1.393093  -0.144946  2.210444
C    -2.583673  0.697209  2.103074
C    -3.790112  -0.129197  1.563524
O    -4.040371  -1.195475  2.122586
H    -1.044207  -0.341616  3.142426
H    -2.903935  0.855614  3.145689
C    -2.273722  2.090771  1.537583
C    -1.368559  2.909280  2.462158
C    -1.001140  4.282428  1.874812
N    -2.128059  5.056364  1.334955
C    -3.270665  5.312787  2.087851
N    -3.009077  5.748498  3.384451
N    -4.427916  5.104429  1.552332
H    -3.214766  2.639317  1.410164
H    -1.807519  2.008531  0.543387
H    -0.436468  2.363320  2.674166
H    -1.879287  3.054687  3.427431
H    -0.294300  4.160207  1.041858
H    -0.471298  4.877631  2.632885
H    -2.419180  4.755230  0.408569
H    -3.815128  6.098580  3.888680
H    -2.183097  6.327931  3.501546
H    -5.185454  5.472088  2.134637
N    -4.604796  0.312023  0.555852
C    -4.526484  1.414322  -0.396270
H    -5.366983  -0.345013  0.416655
H    -5.275223  1.227805  -1.173922
H    -3.548496  1.463538  -0.891908
H    -4.747585  2.391288  0.056294
