35
Energy: -21190.4385432 eV PBE+vdW (tier 2 basis)
C    -1.292228  1.293908  0.194898
C    -0.860329  0.669643  1.508712
O    0.160391  1.023722  2.103119
H    -0.579533  1.002521  -0.588221
H    -1.243433  2.384810  0.290795
H    -2.302048  0.997617  -0.115748
N    -1.675271  -0.328200  1.959548
C    -1.476174  -0.995502  3.238295
C    -1.439719  -2.521132  3.020634
O    -2.349443  -3.266058  3.397520
H    -2.549918  -0.551179  1.477390
H    -0.483620  -0.660883  3.576844
C    -2.477497  -0.542579  4.319543
C    -3.977473  -0.872044  4.200135
C    -4.728904  -0.373289  2.962014
N    -4.426327  -1.183931  1.781401
C    -5.019902  -0.986330  0.537329
N    -5.370920  0.339225  0.266301
N    -5.080672  -1.981726  -0.278248
H    -2.351758  0.548888  4.401337
H    -2.130738  -0.961700  5.276218
H    -4.470156  -0.415678  5.072025
H    -4.124024  -1.955976  4.292301
H    -4.444255  0.674387  2.763519
H    -5.812609  -0.385661  3.184514
H    -4.296302  -2.177449  1.969553
H    -5.994368  0.447965  -0.525023
H    -5.639322  0.918891  1.055169
H    -5.455437  -1.701837  -1.187830
N    -0.345781  -3.026475  2.382087
C    0.762229  -2.320719  1.759700
H    -0.427752  -4.023640  2.203934
H    0.976753  -1.380466  2.278998
H    0.557740  -2.080427  0.704634
H    1.659930  -2.948892  1.809001
