35
Energy: -21190.1364795 eV PBE+vdW (tier 2 basis)
C    0.260969  1.153297  0.446171
C    -0.017743  1.129292  1.934659
O    0.653210  1.759694  2.748417
H    1.209049  1.672662  0.286413
H    -0.533779  1.685184  -0.095937
H    0.316390  0.142806  0.019365
N    -1.073756  0.354181  2.361187
C    -2.076119  -0.320143  1.549786
C    -2.959836  0.613472  0.688493
O    -3.184847  0.306002  -0.482414
H    -1.219308  0.397507  3.366349
H    -1.573084  -0.935160  0.789031
C    -2.882965  -1.275450  2.453074
C    -4.002274  -2.069006  1.761299
C    -5.346796  -1.339850  1.729109
N    -6.366623  -2.170141  1.118534
C    -7.643453  -1.670957  0.883147
N    -8.515154  -2.654253  0.403031
N    -8.072194  -0.469408  1.062639
H    -3.304938  -0.713380  3.303332
H    -2.151794  -1.973729  2.885671
H    -4.133883  -3.017436  2.306356
H    -3.708569  -2.333038  0.734901
H    -5.265949  -0.419289  1.135144
H    -5.621242  -1.039662  2.761532
H    -6.345470  -3.151113  1.383794
H    -9.400639  -2.241052  0.124453
H    -8.123119  -3.242911  -0.327460
H    -7.379860  0.107172  1.545843
N    -3.480321  1.755292  1.227626
C    -3.390351  2.290923  2.579155
H    -4.017196  2.287510  0.549511
H    -3.615480  1.528766  3.336118
H    -4.145934  3.077559  2.681181
H    -2.406056  2.727439  2.797926
