35
Energy: -21190.5080045 eV PBE+vdW (tier 2 basis)
C    -1.530871  0.540003  -0.479720
C    -0.846744  -0.163225  0.676368
O    0.257218  -0.687256  0.574511
H    -0.835656  0.561282  -1.322526
H    -1.827294  1.566388  -0.223531
H    -2.439648  0.001388  -0.785666
N    -1.521410  -0.181761  1.882288
C    -2.868052  0.292754  2.163766
C    -2.978851  1.789235  2.527149
O    -4.091497  2.323864  2.587680
H    -1.063444  -0.748458  2.592118
H    -3.466313  0.203086  1.245561
C    -3.528536  -0.561292  3.267253
C    -4.301285  -1.780811  2.758353
C    -5.463324  -1.424651  1.795125
N    -6.207885  -0.216742  2.113983
C    -6.834978  -0.044181  3.346212
N    -6.949817  1.294735  3.699167
N    -7.333156  -0.961851  4.106586
H    -4.213357  0.077388  3.837659
H    -2.750998  -0.878446  3.980346
H    -4.701108  -2.307149  3.635768
H    -3.631075  -2.489081  2.245778
H    -6.150260  -2.282641  1.732728
H    -5.082721  -1.288334  0.772851
H    -5.809893  0.641580  1.742702
H    -7.329856  1.414150  4.631659
H    -6.141380  1.880006  3.493649
H    -7.292471  -1.878760  3.655036
N    -1.812060  2.430073  2.760802
C    -1.729824  3.834945  3.111709
H    -0.963820  1.881936  2.654538
H    -1.273550  3.967872  4.101985
H    -2.748780  4.235267  3.131345
H    -1.139202  4.391381  2.371481
