35
Energy: -21190.465679 eV PBE+vdW (tier 2 basis)
C    -1.368606  1.974048  2.616313
C    -0.697201  0.739485  3.189707
O    0.433575  0.761419  3.660985
H    -2.323928  1.768957  2.116739
H    -0.685218  2.450182  1.903496
H    -1.540809  2.689701  3.430768
N    -1.445885  -0.417336  3.130292
C    -1.021202  -1.641236  3.806760
C    -0.174302  -2.602177  2.943233
O    0.325234  -3.600356  3.455680
H    -2.416765  -0.330739  2.854672
H    -0.339615  -1.323074  4.609438
C    -2.203896  -2.410895  4.434232
C    -3.039228  -3.289665  3.490391
C    -3.864521  -2.541047  2.430819
N    -4.619102  -3.392921  1.530541
C    -4.017806  -3.990019  0.424394
N    -4.891266  -4.850163  -0.246244
N    -2.815465  -3.834336  -0.011280
H    -2.842793  -1.685658  4.964190
H    -1.775341  -3.065717  5.203197
H    -3.732618  -3.884974  4.105292
H    -2.381472  -4.016432  2.991859
H    -3.215246  -1.923051  1.792353
H    -4.573187  -1.853798  2.922244
H    -5.360280  -3.941450  1.956483
H    -4.475309  -5.186161  -1.109857
H    -5.829921  -4.485730  -0.385164
H    -2.231437  -3.324286  0.655494
N    -0.080336  -2.290275  1.622338
C    0.733020  -3.056942  0.694890
H    -0.431292  -1.380357  1.343735
H    0.979164  -4.008253  1.177904
H    1.668525  -2.532097  0.452737
H    0.176529  -3.255648  -0.229635
