35
Energy: -21190.380094 eV PBE+vdW (tier 2 basis)
C    -0.968403  -1.408374  -0.683735
C    -0.341756  -0.932456  0.607731
O    0.832800  -1.143155  0.894709
H    -1.685158  -2.210957  -0.460569
H    -0.172040  -1.806925  -1.317625
H    -1.493119  -0.606288  -1.220658
N    -1.143377  -0.215411  1.476955
C    -2.591916  -0.044117  1.440176
C    -2.999222  1.397635  1.848172
O    -4.137934  1.658989  2.229105
H    -0.684008  -0.070037  2.373924
H    -2.896692  -0.123127  0.385705
C    -3.397760  -1.089162  2.232604
C    -2.921911  -1.304857  3.679552
C    -1.922755  -2.458187  3.870778
N    -2.500500  -3.781346  3.686813
C    -2.374208  -4.510010  2.524688
N    -2.993155  -5.766860  2.625151
N    -1.778937  -4.026878  1.484813
H    -3.358939  -2.041216  1.687727
H    -4.437381  -0.739059  2.227844
H    -3.795445  -1.495553  4.322540
H    -2.475587  -0.380513  4.085328
H    -1.502897  -2.407537  4.888028
H    -1.086772  -2.389843  3.164420
H    -3.283159  -4.030222  4.281096
H    -2.822640  -6.369776  1.827709
H    -2.838387  -6.251925  3.505586
H    -1.641025  -4.749742  0.775178
N    -2.016679  2.329328  1.705892
C    -2.232846  3.741045  1.948436
H    -1.121920  2.001719  1.356080
H    -2.171383  4.323631  1.017689
H    -1.495607  4.135468  2.660827
H    -3.237528  3.855617  2.369674
