35
Energy: -21189.7448897 eV PBE+vdW (tier 2 basis)
C    -0.354447  -0.134864  -0.443238
C    0.029617  -0.162226  1.022491
O    1.196453  -0.302342  1.378459
H    -0.905180  0.776379  -0.708883
H    -0.977769  -1.003165  -0.696588
H    0.566566  -0.178478  -1.029954
N    -0.960822  -0.024576  1.969731
C    -2.422466  0.044034  1.857721
C    -2.994991  -1.322293  1.370559
O    -2.880117  -2.278137  2.136267
H    -0.598739  -0.190488  2.903739
H    -2.750463  0.024053  2.906101
C    -2.942607  1.369186  1.272502
C    -4.420584  1.638052  1.597641
C    -4.647971  2.142057  3.032297
N    -6.050409  2.370968  3.377548
C    -6.835168  3.333026  2.737372
N    -6.142712  4.493897  2.391709
N    -8.089953  3.243489  2.458167
H    -2.777826  1.429833  0.191542
H    -2.321613  2.167938  1.707521
H    -5.024250  0.728091  1.446653
H    -4.818608  2.393861  0.905898
H    -4.078939  3.070558  3.184569
H    -4.256201  1.426489  3.769763
H    -6.571963  1.518797  3.558292
H    -6.789124  5.212585  2.079374
H    -5.490962  4.836640  3.091955
H    -8.445393  2.299097  2.631057
N    -3.598896  -1.507297  0.153354
C    -3.918612  -0.624261  -0.960581
H    -3.902506  -2.472750  0.061180
H    -4.678225  0.127065  -0.705322
H    -4.325858  -1.245793  -1.765151
H    -3.033762  -0.114751  -1.359354
