35
Energy: -21190.4708617 eV PBE+vdW (tier 2 basis)
C    0.233114  -0.093428  0.084895
C    -0.042159  -0.194087  1.573288
O    0.730793  -0.762097  2.345259
H    1.211397  0.380392  -0.061902
H    -0.526536  0.474192  -0.465964
H    0.295270  -1.107333  -0.330102
N    -1.197234  0.406059  1.992736
C    -1.696462  0.267237  3.346495
C    -3.204610  -0.015376  3.246580
O    -3.866774  0.380778  2.286671
H    -1.895079  0.711342  1.317231
H    -1.164525  -0.586250  3.796741
C    -1.453523  1.525667  4.210779
C    0.025930  1.876128  4.370279
C    0.236330  3.059995  5.309385
N    1.651967  3.380914  5.409054
C    2.062308  4.496519  6.112829
N    3.453842  4.667841  6.137327
N    1.191210  5.313763  6.601085
H    -1.905773  1.359094  5.202079
H    -1.997389  2.370383  3.758794
H    0.462143  2.108167  3.387873
H    0.569502  0.993114  4.745957
H    -0.196521  2.847220  6.304639
H    -0.281619  3.956251  4.940641
H    2.278467  2.583027  5.418979
H    3.803705  5.148988  6.957527
H    4.025089  3.869664  5.877534
H    1.646863  6.148030  6.978830
N    -3.735818  -0.688286  4.302404
C    -5.153085  -0.974996  4.427302
H    -3.106184  -1.008330  5.028608
H    -5.576221  -0.505304  5.326100
H    -5.335996  -2.057407  4.470181
H    -5.651286  -0.565583  3.542589
