35
Energy: -21190.3516586 eV PBE+vdW (tier 2 basis)
C    0.010062  0.206383  -0.468106
C    -0.386878  1.342665  0.449188
O    0.224986  2.422133  0.460482
H    0.929933  0.482681  -0.989343
H    -0.777359  0.005361  -1.209258
H    0.171697  -0.726369  0.089755
N    -1.457626  1.155642  1.265230
C    -2.368791  0.035020  1.350458
C    -3.342827  -0.205150  0.168132
O    -3.817999  -1.332792  0.037022
H    -1.688370  1.963993  1.867277
H    -1.800585  -0.907290  1.377606
C    -3.166846  0.093144  2.673860
C    -4.079893  1.316278  2.926525
C    -3.461506  2.484734  3.713787
N    -2.456402  3.226369  2.959650
C    -1.373173  3.883676  3.602878
N    -0.527926  4.457647  2.669834
N    -1.141455  3.966713  4.864711
H    -2.446243  -0.000874  3.501128
H    -3.781121  -0.816091  2.689493
H    -4.940298  0.972745  3.519545
H    -4.516918  1.681286  1.982839
H    -2.964439  2.079241  4.606794
H    -4.268432  3.146771  4.073652
H    -2.836007  3.796136  2.205354
H    -0.286086  3.873625  1.858318
H    0.283651  4.878558  3.111528
H    -1.931452  3.633788  5.421660
N    -3.681078  0.790002  -0.708471
C    -3.332563  2.203292  -0.780751
H    -4.316176  0.441237  -1.420402
H    -2.302347  2.377615  -1.118504
H    -3.468288  2.710959  0.181148
H    -4.011434  2.675859  -1.499525
