35
Energy: -21190.5287938 eV PBE+vdW (tier 2 basis)
C    -1.822166  0.586162  -0.074109
C    -0.995406  0.543140  1.196185
O    0.238490  0.614900  1.161911
H    -1.613844  1.527428  -0.597791
H    -2.902833  0.499587  0.091673
H    -1.496064  -0.231145  -0.729274
N    -1.702441  0.423882  2.354449
C    -1.153385  0.300562  3.715947
C    -0.557293  1.618302  4.275672
O    -0.931817  2.046864  5.376244
H    -2.711767  0.448886  2.282871
H    -2.027194  0.111917  4.352647
C    -0.164626  -0.886834  3.856420
C    -0.209939  -1.638944  5.194533
C    0.074198  -0.831358  6.480205
N    1.189836  0.105425  6.440585
C    2.475963  -0.188475  6.043690
N    2.867753  -1.510930  6.291103
N    3.187512  0.727477  5.470051
H    0.857894  -0.543187  3.655791
H    -0.401457  -1.609100  3.062463
H    0.518974  -2.458541  5.120595
H    -1.196907  -2.114865  5.323680
H    0.196256  -1.545421  7.313039
H    -0.798399  -0.218831  6.738793
H    0.925048  1.063021  6.227466
H    3.865832  -1.664634  6.202880
H    2.488785  -1.927618  7.137527
H    4.155819  0.421658  5.346132
N    0.404081  2.187717  3.522969
C    1.191457  3.317661  3.985139
H    0.674888  1.696420  2.664586
H    1.460757  3.950065  3.130702
H    2.106801  2.967647  4.487404
H    0.594532  3.900505  4.694823
