35
Energy: -21190.2230558 eV PBE+vdW (tier 2 basis)
C    -0.082973  -0.996245  -0.095524
C    0.094365  -0.381058  1.278345
O    1.193423  -0.266679  1.816734
H    -0.464791  -0.259387  -0.816861
H    -0.793691  -1.834101  -0.079940
H    0.891535  -1.355856  -0.434656
N    -1.041243  0.065014  1.912714
C    -2.397077  0.106056  1.396247
C    -2.708929  1.146774  0.298011
O    -3.695883  0.939539  -0.418473
H    -0.857221  0.470501  2.825989
H    -2.602322  -0.841618  0.876988
C    -3.426333  0.183033  2.544780
C    -3.425991  1.451315  3.411888
C    -4.194222  2.646122  2.826344
N    -5.611000  2.344561  2.640440
C    -6.384687  2.889900  1.606528
N    -5.720157  3.022927  0.395332
N    -7.621181  3.249184  1.703017
H    -3.248454  -0.697018  3.179338
H    -4.426180  0.059664  2.106625
H    -2.401993  1.781274  3.656068
H    -3.876528  1.196434  4.384157
H    -3.791591  2.946567  1.853738
H    -4.057312  3.516345  3.494772
H    -6.137009  2.298191  3.508111
H    -6.368572  3.314010  -0.329782
H    -5.130614  2.238571  0.102811
H    -7.937715  3.235920  2.676898
N    -1.937455  2.251180  0.099546
C    -0.849304  2.832867  0.880746
H    -2.297778  2.815064  -0.665308
H    0.093790  2.283886  0.769499
H    -1.094967  2.897252  1.947616
H    -0.695435  3.855068  0.518543
