35
Energy: -21190.5571551 eV PBE+vdW (tier 2 basis)
C    -1.062812  -0.302417  0.351126
C    -0.465687  -0.157101  1.736430
O    0.758824  -0.227784  1.918241
H    -0.833173  -1.308578  -0.022912
H    -0.576456  0.414512  -0.321183
H    -2.148394  -0.151759  0.316539
N    -1.352647  0.053853  2.743092
C    -1.088098  0.103452  4.187372
C    -0.279388  1.310412  4.701691
O    -0.566274  1.804256  5.801614
H    -2.327708  0.159063  2.488594
H    -2.088815  0.256182  4.611278
C    -0.470571  -1.214740  4.754479
C    -1.327273  -1.952813  5.792337
C    -1.578161  -1.217012  7.123412
N    -2.474415  -0.058584  7.034218
C    -3.749578  -0.200850  6.516488
N    -4.466695  -1.273782  7.053242
N    -4.159494  0.598604  5.582224
H    0.517157  -0.995547  5.186916
H    -0.277356  -1.888189  3.909425
H    -0.823408  -2.904197  6.028289
H    -2.299672  -2.227717  5.352568
H    -0.629743  -0.842331  7.534001
H    -1.970148  -1.937182  7.856493
H    -2.001267  0.773265  6.656987
H    -5.448245  -1.294600  6.801806
H    -4.307106  -1.454185  8.040378
H    -5.163619  0.486487  5.412225
N    0.750490  1.731007  3.937705
C    1.637919  2.795363  4.365644
H    1.004421  1.133956  3.140547
H    2.042231  3.310105  3.486257
H    2.476940  2.414851  4.969467
H    1.075416  3.507368  4.979046
