35
Energy: -21189.8159022 eV PBE+vdW (tier 2 basis)
C    -0.310214  -0.733076  -1.302613
C    0.392863  -0.062311  -0.145377
O    1.523168  0.421180  -0.285780
H    -0.079740  -1.807180  -1.270859
H    0.087034  -0.309610  -2.229213
H    -1.400294  -0.635209  -1.294552
N    -0.192189  -0.039958  1.092940
C    -1.584140  -0.199187  1.514023
C    -2.176666  -1.519379  0.941401
O    -1.528638  -2.549259  1.110105
H    0.428443  0.371546  1.785507
H    -1.522639  -0.482921  2.577494
C    -2.352963  1.145647  1.483091
C    -2.217837  1.988351  0.202536
C    -1.080084  3.018287  0.268021
N    -0.762698  3.541367  -1.053293
C    0.487314  4.081984  -1.368962
N    1.571002  3.425821  -0.804970
N    0.508126  5.127806  -2.128531
H    -1.971746  1.740369  2.329510
H    -3.405049  0.957194  1.733601
H    -3.165579  2.513155  0.006210
H    -2.038728  1.354362  -0.676431
H    -0.175493  2.554100  0.672679
H    -1.355157  3.823532  0.977927
H    -1.476877  4.145683  -1.454399
H    2.469139  3.735704  -1.155774
H    1.522264  2.410607  -0.684031
H    1.463200  5.355117  -2.417889
N    -3.412548  -1.591588  0.355745
C    -4.371373  -0.598275  -0.107622
H    -3.637871  -2.560847  0.150885
H    -5.079097  -1.106256  -0.771627
H    -3.896930  0.201225  -0.686797
H    -4.948496  -0.148341  0.713041
