35
Energy: -21189.9552286 eV PBE+vdW (tier 2 basis)
C    -0.484240  -0.318326  -1.254915
C    -0.038810  -0.019175  0.156838
O    1.153570  0.140019  0.427132
H    -1.557880  -0.232608  -1.439195
H    -0.168758  -1.343938  -1.493702
H    0.048504  0.361820  -1.934316
N    -0.954735  0.032644  1.190588
C    -2.408267  0.212953  1.220621
C    -3.171045  -0.692933  0.226148
O    -3.962261  -0.232199  -0.594658
H    -0.478223  0.237162  2.066487
H    -2.716330  -0.153449  2.216086
C    -2.872299  1.682444  1.130861
C    -2.273843  2.517375  -0.012722
C    -0.939791  3.235530  0.337292
N    0.119511  3.146307  -0.663554
C    -0.088945  3.418046  -2.005260
N    -0.849014  4.557333  -2.264370
N    0.479638  2.669036  -2.892368
H    -2.644814  2.167296  2.094320
H    -3.966429  1.661780  1.043557
H    -3.020521  3.264161  -0.315380
H    -2.125427  1.891275  -0.901131
H    -0.510867  2.815725  1.255568
H    -1.140583  4.293566  0.578683
H    0.752500  2.357906  -0.548200
H    -1.363540  4.551977  -3.135793
H    -1.358617  4.972782  -1.493299
H    0.383762  3.067113  -3.830454
N    -2.971042  -2.039388  0.334302
C    -2.106193  -2.778135  1.239232
H    -3.486929  -2.567087  -0.362974
H    -1.060070  -2.803634  0.901451
H    -2.477311  -3.807063  1.310015
H    -2.128429  -2.348891  2.248495
