35
Energy: -21190.6136208 eV PBE+vdW (tier 2 basis)
C    1.143699  -0.466255  -0.829948
C    0.249710  -0.170145  0.360157
O    -0.062637  0.978106  0.678344
H    1.323177  -1.536258  -0.990605
H    2.105308  0.040708  -0.681731
H    0.685501  -0.039748  -1.730878
N    -0.190480  -1.263501  1.046503
C    -0.975347  -1.159614  2.258208
C    -0.737899  -2.465396  3.040307
O    -0.324345  -3.485900  2.477568
H    0.146622  -2.203187  0.843111
H    -0.580142  -0.316306  2.847946
C    -2.472972  -0.840019  1.987549
C    -3.163750  -1.677650  0.905313
C    -3.564917  -3.105863  1.291298
N    -4.549070  -3.128201  2.359851
C    -4.443703  -3.870322  3.519657
N    -5.442297  -3.546775  4.453669
N    -3.564759  -4.758311  3.837110
H    -2.504051  0.214590  1.682927
H    -3.025960  -0.908887  2.937853
H    -2.516769  -1.730472  0.017122
H    -4.066910  -1.136693  0.576782
H    -2.681574  -3.673076  1.611598
H    -3.957709  -3.620360  0.397969
H    -5.180859  -2.336105  2.399735
H    -5.444738  -4.229474  5.206700
H    -6.371692  -3.437778  4.054637
H    -2.830795  -4.847574  3.131013
N    -0.998221  -2.396832  4.365307
C    -0.868666  -3.532648  5.266432
H    -1.365615  -1.527916  4.734520
H    -1.826218  -4.062147  5.378145
H    -0.509810  -3.183740  6.241971
H    -0.137111  -4.226249  4.838860
