35
Energy: -21190.4363913 eV PBE+vdW (tier 2 basis)
C    -2.978053  -1.424300  -0.587509
C    -1.994141  -0.456852  0.037787
O    -1.214797  0.221595  -0.622056
H    -2.897628  -1.338011  -1.673785
H    -4.012197  -1.218272  -0.279234
H    -2.753331  -2.459550  -0.293225
N    -2.012150  -0.354000  1.417429
C    -2.774977  -1.160953  2.362307
C    -4.268812  -0.782408  2.426725
O    -5.114927  -1.622097  2.750314
H    -1.255994  0.218277  1.785596
H    -2.768625  -2.218766  2.058283
C    -2.091009  -1.056611  3.744209
C    -2.756776  -1.823297  4.898024
C    -3.780056  -0.987749  5.695470
N    -4.448013  -1.693401  6.767513
C    -5.419464  -2.673548  6.596132
N    -6.173692  -2.577259  5.433360
N    -5.594148  -3.511895  7.566037
H    -2.005937  0.012020  4.010466
H    -1.063161  -1.421928  3.602849
H    -1.976097  -2.158330  5.596578
H    -3.241525  -2.735161  4.520531
H    -4.540081  -0.560215  5.026573
H    -3.263518  -0.123976  6.142636
H    -3.899830  -1.887003  7.599654
H    -6.733832  -3.399094  5.243239
H    -5.753651  -2.193535  4.586227
H    -6.382307  -4.135577  7.377508
N    -4.553798  0.510528  2.145457
C    -5.896009  1.058773  2.191704
H    -3.786014  1.082721  1.807398
H    -5.940129  1.924652  2.865439
H    -6.565134  0.277959  2.567790
H    -6.234179  1.368118  1.193026
