35
Energy: -21190.4689935 eV PBE+vdW (tier 2 basis)
C    -3.923524  -0.600083  -0.162057
C    -3.027297  0.169170  0.795386
O    -2.897197  1.388425  0.727111
H    -3.379562  -1.390871  -0.696919
H    -4.324202  0.111294  -0.888631
H    -4.762854  -1.071561  0.369333
N    -2.379361  -0.555229  1.763638
C    -2.337463  -1.998647  1.936785
C    -2.209870  -2.256414  3.448477
O    -1.333885  -1.695581  4.114127
H    -1.774990  -0.016159  2.381299
H    -3.285169  -2.422651  1.573185
C    -1.162828  -2.649531  1.172536
C    -1.081756  -4.186354  1.279997
C    0.274006  -4.697225  1.797750
N    0.615128  -4.211336  3.119171
C    0.141464  -4.797239  4.270431
N    0.380938  -4.003420  5.403144
N    -0.392890  -5.976012  4.233170
H    -0.242877  -2.181762  1.555108
H    -1.243412  -2.335743  0.122687
H    -1.278512  -4.645788  0.300300
H    -1.855246  -4.577875  1.957608
H    1.079078  -4.400853  1.108750
H    0.260531  -5.793136  1.846020
H    0.991075  -3.276995  3.210162
H    -0.026537  -4.390482  6.247806
H    0.102856  -3.028242  5.276359
H    -0.677310  -6.273735  5.168762
N    -3.116762  -3.119787  3.967622
C    -3.134129  -3.535391  5.357822
H    -3.768746  -3.558355  3.328854
H    -4.161484  -3.524321  5.742359
H    -2.529947  -2.826085  5.931754
H    -2.713336  -4.544556  5.472979
