35
Energy: -21190.2351684 eV PBE+vdW (tier 2 basis)
C    -1.813415  -1.522049  -0.196527
C    -0.937495  -0.928694  0.886975
O    0.228037  -1.290403  1.023283
H    -1.215936  -1.599459  -1.111157
H    -2.744101  -0.996040  -0.424960
H    -2.070581  -2.547333  0.106235
N    -1.471631  -0.043345  1.817635
C    -2.627438  0.861949  1.773773
C    -3.972719  0.146758  1.514736
O    -4.898983  0.703073  0.924134
H    -0.739457  0.241614  2.465228
H    -2.730210  1.211408  2.816139
C    -2.417018  2.141866  0.935254
C    -2.246496  1.978315  -0.586584
C    -3.482110  2.414348  -1.400661
N    -3.497193  1.912831  -2.765823
C    -3.870663  0.595319  -3.027503
N    -3.465420  0.168757  -4.300209
N    -4.501628  -0.224471  -2.261247
H    -1.530780  2.636155  1.358565
H    -3.265437  2.809870  1.146887
H    -2.017154  0.936883  -0.840933
H    -1.375153  2.558731  -0.924111
H    -3.539549  3.512333  -1.438949
H    -4.394688  2.074507  -0.896521
H    -2.727287  2.238265  -3.344413
H    -3.920920  -0.707675  -4.539270
H    -3.581194  0.862702  -5.034475
H    -4.687542  0.169922  -1.335450
N    -4.074263  -1.088131  2.068306
C    -5.240461  -1.930436  1.879357
H    -3.228282  -1.488213  2.459982
H    -5.417563  -2.531654  2.778823
H    -5.120693  -2.601101  1.014652
H    -6.106256  -1.286349  1.695233
