35
Energy: -21190.8652536 eV PBE+vdW (tier 2 basis)
C    0.719066  3.218360  0.964234
C    -0.506806  2.715130  1.698155
O    -1.451758  3.467022  1.971455
H    1.456446  2.434327  0.754336
H    1.191947  4.002464  1.569027
H    0.404200  3.679475  0.020128
N    -0.504383  1.393678  2.019955
C    -1.535672  0.807262  2.856507
C    -0.863899  -0.111335  3.881935
O    0.100536  -0.823243  3.583083
H    0.324948  0.822077  1.877619
H    -2.004738  1.629755  3.403457
C    -2.599917  0.034063  2.041932
C    -3.403572  0.903776  1.061922
C    -4.583806  1.678182  1.678866
N    -4.239024  2.435144  2.885912
C    -4.574266  2.012158  4.149823
N    -5.874446  1.521424  4.264272
N    -3.703745  2.056868  5.119332
H    -3.278466  -0.468846  2.749173
H    -2.080191  -0.762591  1.489031
H    -3.822670  0.263371  0.270096
H    -2.726624  1.604707  0.553511
H    -5.380705  0.973042  1.948584
H    -4.997920  2.360451  0.920078
H    -3.339079  2.921398  2.834046
H    -6.162905  1.284731  5.205908
H    -6.587410  2.010992  3.731990
H    -4.167491  1.935462  6.024430
N    -1.455057  -0.052498  5.098070
C    -1.025703  -0.859421  6.220641
H    -2.194967  0.655682  5.218558
H    -0.647043  -0.231219  7.039888
H    -0.218889  -1.517183  5.879120
H    -1.851393  -1.475560  6.604873
