35
Energy: -21190.5107552 eV PBE+vdW (tier 2 basis)
C    0.666573  -2.168436  1.885277
C    0.319410  -0.724517  2.166133
O    1.111643  0.198841  1.942045
H    1.677739  -2.372104  2.254487
H    0.672081  -2.305418  0.794942
H    -0.039674  -2.881570  2.327635
N    -0.939283  -0.495821  2.631037
C    -1.410550  0.836566  2.931771
C    -2.266321  0.746110  4.201760
O    -2.879763  -0.280468  4.492773
H    -1.544226  -1.257733  2.926604
H    -0.511853  1.446039  3.112633
C    -2.241274  1.487862  1.777772
C    -1.718626  2.861878  1.338132
C    -0.557378  2.812018  0.329791
N    -0.975126  2.354489  -0.985150
C    -0.736427  1.082417  -1.495787
N    -1.491016  0.843966  -2.658968
N    0.033131  0.156702  -1.048091
H    -3.291351  1.570232  2.092397
H    -2.233016  0.795715  0.924684
H    -1.397593  3.448056  2.216497
H    -2.542298  3.441070  0.889248
H    0.242087  2.152671  0.695586
H    -0.116256  3.817390  0.236895
H    -1.822942  2.788517  -1.337305
H    -1.172889  -0.013728  -3.102322
H    -1.494178  1.618295  -3.319133
H    0.471714  0.400861  -0.156294
N    -2.329877  1.894974  4.929589
C    -3.162505  2.039552  6.109490
H    -1.750053  2.673607  4.640529
H    -3.890746  2.852770  5.984124
H    -2.555234  2.239041  7.003145
H    -3.700270  1.096427  6.250765
