35
Energy: -21190.4393546 eV PBE+vdW (tier 2 basis)
C    -0.794734  -0.489695  -0.455453
C    -0.578971  -0.027161  0.973379
O    0.337505  0.759769  1.247365
H    -1.659822  -1.150250  -0.589253
H    0.108011  -1.017154  -0.788824
H    -0.912789  0.392189  -1.096675
N    -1.459275  -0.525970  1.882719
C    -1.504965  -0.412026  3.357244
C    -1.587478  1.002988  3.981145
O    -2.223488  1.138501  5.029591
H    -2.164437  -1.144087  1.500692
H    -2.483999  -0.833904  3.617889
C    -0.459347  -1.283130  4.087183
C    0.999279  -0.827542  4.028459
C    1.908411  -1.703821  4.900060
N    1.570508  -1.649325  6.315627
C    1.018770  -2.723620  6.980968
N    0.865417  -2.471359  8.356213
N    0.731164  -3.816750  6.358651
H    -0.543951  -2.312079  3.705281
H    -0.779563  -1.321131  5.138413
H    1.080561  0.219639  4.360111
H    1.378302  -0.850671  2.997023
H    2.955625  -1.391981  4.770310
H    1.835617  -2.757111  4.596694
H    2.071141  -0.982278  6.888596
H    0.304270  -3.171233  8.830048
H    0.541298  -1.532114  8.576977
H    0.257589  -4.477889  6.977321
N    -0.931326  2.006216  3.359044
C    -0.908335  3.346271  3.912053
H    -0.320061  1.755023  2.569506
H    -0.617627  4.052163  3.126198
H    -0.198763  3.435787  4.749998
H    -1.903103  3.610281  4.290131
