35
Energy: -21190.0971314 eV PBE+vdW (tier 2 basis)
C    0.548588  0.873077  1.789228
C    -0.466965  0.723576  2.895846
O    -0.218379  1.074302  4.055006
H    0.471813  1.882374  1.358806
H    0.421584  0.126936  0.999478
H    1.542305  0.788832  2.240616
N    -1.700549  0.169223  2.625687
C    -2.485804  0.116128  1.392654
C    -2.134115  -1.089720  0.497772
O    -0.986525  -1.501419  0.355703
H    -2.264187  0.154430  3.472728
H    -3.514628  -0.027818  1.748711
C    -2.468680  1.422533  0.551700
C    -2.575365  2.705014  1.386243
C    -3.809020  2.788627  2.296963
N    -3.704267  3.844272  3.297689
C    -3.609513  3.590581  4.661379
N    -2.892551  2.435660  4.991739
N    -4.207519  4.397749  5.473164
H    -3.299262  1.365863  -0.170000
H    -1.551317  1.454985  -0.051779
H    -2.563827  3.570934  0.707185
H    -1.684592  2.819014  2.018586
H    -3.958568  1.838169  2.827677
H    -4.714166  2.952558  1.690142
H    -4.268739  4.672599  3.141058
H    -2.800542  2.306120  5.993811
H    -1.991759  2.278384  4.531832
H    -3.939347  4.212005  6.442950
N    -3.177478  -1.659425  -0.180451
C    -4.600576  -1.383927  -0.061473
H    -2.889406  -2.430197  -0.775125
H    -4.988611  -1.603697  0.944727
H    -5.134910  -2.026172  -0.769289
H    -4.846787  -0.342887  -0.314991
