35
Energy: -21190.2943394 eV PBE+vdW (tier 2 basis)
C    0.703562  -0.028938  2.102741
C    -0.346301  1.006955  1.755426
O    -0.073761  2.181102  1.526236
H    1.686014  0.443420  2.027467
H    0.661893  -0.898895  1.433310
H    0.564237  -0.401507  3.127742
N    -1.655517  0.569801  1.695822
C    -2.173074  -0.752625  2.028568
C    -1.933974  -1.815086  0.929934
O    -1.940772  -3.013158  1.206719
H    -2.324497  1.323495  1.557928
H    -1.662721  -1.144751  2.921351
C    -3.677589  -0.625772  2.343466
C    -4.324021  -1.880844  2.930345
C    -5.812641  -1.675955  3.200907
N    -6.388853  -2.886776  3.780772
C    -7.742087  -2.992714  4.083399
N    -8.310049  -1.820910  4.592939
N    -8.343034  -4.110548  3.856969
H    -4.206124  -0.326295  1.422361
H    -3.788309  0.207712  3.056699
H    -4.182502  -2.729691  2.245682
H    -3.820474  -2.158165  3.869065
H    -6.328785  -1.383703  2.265438
H    -5.941751  -0.837037  3.902278
H    -6.086719  -3.745211  3.324347
H    -9.226322  -1.956554  5.005122
H    -7.704157  -1.255370  5.181185
H    -9.291334  -4.112418  4.241910
N    -1.760938  -1.319426  -0.324122
C    -1.542824  -2.164400  -1.481561
H    -1.700369  -0.310688  -0.416087
H    -0.556272  -1.979752  -1.929339
H    -2.314811  -1.996673  -2.245039
H    -1.592617  -3.205986  -1.146406
