35
Energy: -21190.2857758 eV PBE+vdW (tier 2 basis)
C    -1.346502  6.879559  1.891180
C    -2.818348  7.010166  1.555988
O    -3.345118  8.081232  1.273231
H    -0.877521  7.856502  1.751085
H    -0.843098  6.136400  1.257908
H    -1.207932  6.564208  2.935337
N    -3.565830  5.847653  1.571470
C    -3.135356  4.513297  1.971948
C    -2.315787  3.767435  0.892157
O    -1.587647  2.824583  1.199291
H    -4.561500  6.009466  1.441009
H    -2.468696  4.578377  2.845232
C    -4.378713  3.690331  2.368883
C    -4.072424  2.359704  3.056864
C    -5.342195  1.565326  3.359695
N    -5.009014  0.310335  4.010279
C    -5.904403  -0.528923  4.655743
N    -7.193368  -0.010139  4.793643
N    -5.632913  -1.673584  5.187283
H    -4.982576  4.318672  3.043728
H    -4.988764  3.516416  1.465974
H    -3.399562  1.762307  2.424291
H    -3.531239  2.542080  3.997743
H    -5.904702  1.411918  2.414759
H    -5.993400  2.142108  4.034198
H    -4.155054  -0.139624  3.702500
H    -7.590300  0.434960  3.971518
H    -7.810947  -0.710655  5.193276
H    -4.630842  -1.877816  5.143147
N    -2.498806  4.209952  -0.379678
C    -1.828000  3.621991  -1.522328
H    -3.069138  5.040708  -0.499783
H    -2.553581  3.250251  -2.258795
H    -1.167035  4.349656  -2.013511
H    -1.225983  2.782375  -1.158641
