35
Energy: -21190.3048043 eV PBE+vdW (tier 2 basis)
C    -2.396492  2.784538  2.680786
C    -1.246199  1.796803  2.562716
O    -0.087830  2.122584  2.804272
H    -2.969667  2.875793  1.747332
H    -1.971864  3.759812  2.931856
H    -3.094032  2.486699  3.476954
N    -1.547220  0.518398  2.157026
C    -2.860710  -0.079550  1.985668
C    -3.245794  -0.886785  3.243430
O    -2.496151  -1.744100  3.700954
H    -0.764668  -0.128018  2.239150
H    -3.579335  0.737090  1.836367
C    -2.893222  -1.019122  0.762934
C    -2.451142  -0.379802  -0.556650
C    -3.302785  0.823792  -0.992298
N    -3.030866  1.307377  -2.334039
C    -3.529251  0.659018  -3.460400
N    -2.995433  1.175514  -4.645083
N    -4.379266  -0.307804  -3.519745
H    -3.917897  -1.413738  0.666955
H    -2.254148  -1.886107  0.987647
H    -2.489491  -1.146198  -1.344455
H    -1.400214  -0.061490  -0.482789
H    -3.146807  1.668959  -0.305804
H    -4.375117  0.576214  -0.934960
H    -2.116190  1.729436  -2.464428
H    -3.471645  0.784959  -5.453068
H    -2.944914  2.190130  -4.683931
H    -4.590705  -0.689367  -2.595433
N    -4.464203  -0.579748  3.775761
C    -5.011206  -1.262459  4.934545
H    -5.010734  0.150303  3.335415
H    -4.267922  -1.996931  5.261934
H    -5.945321  -1.784655  4.685579
H    -5.203011  -0.558416  5.755601
