35
Energy: -21190.3401855 eV PBE+vdW (tier 2 basis)
C    -0.122959  0.226289  0.185740
C    -0.104600  0.043743  1.690163
O    0.944023  0.059236  2.328113
H    -0.135728  1.301704  -0.040645
H    -0.977976  -0.238348  -0.317243
H    0.809713  -0.184278  -0.213573
N    -1.305504  -0.160532  2.346367
C    -2.678904  -0.008441  1.855072
C    -3.119666  -1.124523  0.870168
O    -4.058403  -0.954499  0.096667
H    -1.178705  -0.171192  3.354639
H    -3.307907  -0.177910  2.745227
C    -3.034932  1.386531  1.317362
C    -2.791983  2.500854  2.333407
C    -3.163368  3.884181  1.776704
N    -3.003608  4.983304  2.711790
C    -3.933219  5.233815  3.716401
N    -3.485492  6.206570  4.617739
N    -5.090378  4.695609  3.893520
H    -4.092464  1.352861  1.022016
H    -2.477026  1.585420  0.390296
H    -1.733614  2.517105  2.639606
H    -3.375377  2.311251  3.248947
H    -4.206591  3.886671  1.425579
H    -2.548134  4.105270  0.891113
H    -2.044805  5.197592  2.969434
H    -4.232280  6.472364  5.253441
H    -3.049684  7.016692  4.184514
H    -5.252082  3.915287  3.253395
N    -2.430865  -2.291310  0.987557
C    -2.728134  -3.463194  0.188428
H    -1.650192  -2.303705  1.635077
H    -2.967290  -4.325406  0.825870
H    -1.882614  -3.728112  -0.462178
H    -3.597130  -3.228527  -0.435515
