35
Energy: -21190.4199499 eV PBE+vdW (tier 2 basis)
C    1.260194  2.619456  0.753730
C    0.729369  2.263120  2.128947
O    1.437246  2.412374  3.132471
H    2.010770  1.867930  0.473491
H    1.766839  3.589177  0.809067
H    0.491253  2.653907  -0.027741
N    -0.546057  1.781877  2.146208
C    -1.333601  1.132162  3.215529
C    -1.519709  1.857172  4.572404
O    -2.568095  1.646078  5.189431
H    -0.989107  1.731767  1.236684
H    -2.358964  1.132392  2.823294
C    -0.952356  -0.350887  3.430142
C    0.457998  -0.624027  3.950874
C    0.726162  -2.114567  4.212777
N    0.510640  -3.010304  3.081444
C    1.366459  -3.026975  1.999029
N    0.908790  -3.880585  0.976455
N    2.429663  -2.296512  1.979044
H    -1.093772  -0.864416  2.465263
H    -1.705378  -0.761523  4.122444
H    0.626139  -0.085644  4.896017
H    1.211668  -0.259269  3.242860
H    0.084337  -2.478708  5.029249
H    1.769708  -2.235914  4.530493
H    -0.451576  -3.251319  2.873877
H    1.596458  -4.032002  0.245821
H    0.522638  -4.762511  1.306277
H    3.015805  -2.522790  1.172127
N    -0.523666  2.647153  5.018955
C    -0.612733  3.313597  6.303749
H    0.354758  2.655890  4.477681
H    0.151847  4.096656  6.350488
H    -0.458710  2.615255  7.141169
H    -1.604917  3.764859  6.426832
