35
Energy: -21190.6680233 eV PBE+vdW (tier 2 basis)
C    -0.346733  -0.436101  -0.158461
C    -0.718908  -0.496806  1.307962
O    -0.436775  -1.481637  2.003245
H    -0.834830  -1.269890  -0.678590
H    0.736299  -0.580104  -0.255132
H    -0.630024  0.505105  -0.644048
N    -1.362157  0.594304  1.798206
C    -1.928906  0.656452  3.132944
C    -3.272846  1.388021  3.026563
O    -3.490681  2.218826  2.142646
H    -1.685520  1.330395  1.172400
H    -2.111267  -0.372593  3.463288
C    -0.994000  1.364333  4.148779
C    0.068906  0.434105  4.749802
C    -0.397694  -0.311518  6.012256
N    -1.753073  -0.890902  5.948027
C    -1.998656  -2.224967  5.574610
N    -1.123720  -2.738820  4.640684
N    -2.958891  -2.958183  6.038495
H    -1.602658  1.802876  4.954809
H    -0.521047  2.206905  3.625156
H    0.954845  1.020069  5.038077
H    0.414503  -0.276970  3.987577
H    -0.419730  0.405103  6.846048
H    0.337682  -1.089011  6.272237
H    -2.316416  -0.646679  6.755092
H    -0.828132  -2.154930  3.852320
H    -1.405389  -3.669404  4.349417
H    -3.423634  -2.506732  6.831845
N    -4.157163  1.047846  3.998942
C    -5.468282  1.653580  4.129283
H    -3.873150  0.322303  4.651250
H    -6.259140  0.893566  4.072306
H    -5.592563  2.360240  3.302213
H    -5.565760  2.197308  5.079733
