35
Energy: -21190.380142 eV PBE+vdW (tier 2 basis)
C    0.241333  -0.343385  -0.137811
C    0.364082  0.177597  1.281534
O    1.456499  0.329903  1.825281
H    -0.428839  0.271402  -0.753394
H    -0.147518  -1.371881  -0.145516
H    1.240812  -0.348332  -0.580477
N    -0.799774  0.501609  1.946513
C    -2.123942  -0.038608  1.650803
C    -3.248427  0.968468  1.998899
O    -4.417112  0.599730  2.100961
H    -0.623539  0.760772  2.924935
H    -2.196129  -0.164678  0.559924
C    -2.403518  -1.406620  2.307586
C    -2.197917  -1.415986  3.831371
C    -0.780515  -1.819197  4.295848
N    -0.440792  -1.306846  5.618452
C    -0.249623  0.062732  5.783218
N    -0.714809  0.548754  7.000083
N    0.341806  0.868954  4.963476
H    -1.762643  -2.165475  1.831319
H    -3.441608  -1.664876  2.065105
H    -2.929618  -2.090854  4.298220
H    -2.423592  -0.415199  4.233664
H    -0.017825  -1.467278  3.589143
H    -0.680009  -2.913187  4.318917
H    -0.898463  -1.770786  6.397498
H    -0.567631  1.549029  7.091231
H    -1.637229  0.242859  7.294670
H    0.870740  0.373550  4.237511
N    -2.840545  2.256650  2.138773
C    -3.754655  3.343778  2.423683
H    -1.848742  2.442341  2.028315
H    -4.751195  2.912301  2.566639
H    -3.794658  4.061623  1.592031
H    -3.456452  3.876893  3.336598
