35
Energy: -21190.3033218 eV PBE+vdW (tier 2 basis)
C    -0.599766  1.145707  0.264014
C    -0.192337  0.441731  1.544829
O    0.982761  0.258091  1.846641
H    -1.258737  2.004272  0.453092
H    -1.129576  0.462147  -0.414557
H    0.311513  1.493887  -0.228610
N    -1.201002  0.029335  2.393153
C    -2.632351  -0.041136  2.122954
C    -3.482840  0.667299  3.209984
O    -4.676251  0.402107  3.351505
H    -0.845505  -0.525650  3.169560
H    -2.815811  0.533125  1.203777
C    -3.148908  -1.468572  1.899699
C    -3.027595  -2.381676  3.132675
C    -4.130295  -3.438204  3.196868
N    -5.427013  -2.809595  3.428131
C    -6.621531  -3.382514  3.036045
N    -6.590514  -4.785657  3.000196
N    -7.616038  -2.626331  2.712210
H    -2.612214  -1.906844  1.046141
H    -4.203350  -1.383351  1.605208
H    -3.079401  -1.784705  4.058337
H    -2.053627  -2.891597  3.143459
H    -3.888843  -4.145698  4.010111
H    -4.142667  -4.023453  2.260248
H    -5.454516  -1.790693  3.376296
H    -7.507730  -5.206519  2.902077
H    -6.043558  -5.233245  3.731340
H    -8.467338  -3.175492  2.568180
N    -2.820204  1.597961  3.942919
C    -3.464217  2.399709  4.965108
H    -1.831543  1.717965  3.748054
H    -2.959687  2.281019  5.933435
H    -4.500101  2.055469  5.054523
H    -3.465469  3.464836  4.694202
