35
Energy: -21190.0920633 eV PBE+vdW (tier 2 basis)
C    0.903850  0.764594  -0.154921
C    -0.297357  0.161763  0.552451
O    -1.232804  -0.350754  -0.053369
H    1.453885  -0.040067  -0.659796
H    1.593638  1.297140  0.512379
H    0.548629  1.453412  -0.930421
N    -0.269564  0.229297  1.920984
C    -1.299860  -0.373997  2.751606
C    -2.714498  0.247394  2.679967
O    -3.678682  -0.486723  2.881121
H    0.528796  0.660112  2.370850
H    -1.473580  -1.398448  2.390466
C    -0.851683  -0.431684  4.220562
C    0.364886  -1.326232  4.473290
C    0.681664  -1.454972  5.969803
N    1.846361  -2.281005  6.285104
C    1.899023  -3.650923  6.013787
N    0.678538  -4.307748  6.152557
N    2.940785  -4.325699  5.666050
H    -1.709389  -0.809398  4.795819
H    -0.660354  0.591988  4.589435
H    1.257666  -0.940184  3.954447
H    0.175866  -2.329050  4.061808
H    -0.198119  -1.853238  6.495732
H    0.865547  -0.462034  6.407884
H    2.734789  -1.828008  6.095251
H    0.802848  -5.314087  6.097878
H    0.110610  -4.024562  6.945521
H    3.733198  -3.711117  5.459971
N    -2.889581  1.587092  2.471055
C    -1.933909  2.661397  2.263339
H    -3.874487  1.830053  2.430226
H    -2.457400  3.612851  2.414143
H    -1.506893  2.663169  1.249630
H    -1.112868  2.624420  2.990177
