35
Energy: -21190.3902287 eV PBE+vdW (tier 2 basis)
C    -0.676993  -1.756064  0.009975
C    -0.988334  -1.742226  1.493029
O    -0.974932  -2.770956  2.172218
H    0.330923  -2.165147  -0.132414
H    -0.730984  -0.767730  -0.462490
H    -1.379709  -2.432915  -0.491441
N    -1.265274  -0.513635  2.024280
C    -1.617235  -0.331186  3.425413
C    -3.144978  -0.133921  3.528719
O    -3.664870  0.914696  3.143306
H    -1.365620  0.285022  1.407433
H    -1.306839  -1.261478  3.914617
C    -0.878637  0.869754  4.028289
C    -1.112011  1.059396  5.531619
C    -0.632839  -0.102779  6.419115
N    0.774114  -0.477745  6.260890
C    1.809190  0.426059  6.479633
N    1.623898  1.242993  7.598732
N    2.801712  0.449558  5.656597
H    -1.210683  1.777907  3.504094
H    0.195199  0.748649  3.822734
H    -0.594537  1.976151  5.849180
H    -2.182807  1.228674  5.729233
H    -1.217394  -1.013424  6.225579
H    -0.828502  0.149879  7.471437
H    0.975967  -1.009888  5.417934
H    1.161887  0.805186  8.391020
H    2.449744  1.763474  7.871508
H    3.562793  1.040843  6.001707
N    -3.886424  -1.156968  4.036587
C    -3.450110  -2.474172  4.483228
H    -4.879826  -0.946825  4.073063
H    -4.292241  -3.169405  4.389136
H    -3.130283  -2.472522  5.537542
H    -2.633946  -2.852325  3.855339
