35
Energy: -21190.4495884 eV PBE+vdW (tier 2 basis)
C    -4.546814  0.819046  0.302760
C    -3.156424  0.572924  0.857396
O    -2.184086  0.379671  0.128583
H    -5.285192  1.084448  1.069007
H    -4.882555  -0.087657  -0.217053
H    -4.493792  1.621873  -0.442042
N    -3.062722  0.596482  2.223171
C    -1.858263  0.194824  2.922294
C    -2.286286  -0.742548  4.064113
O    -3.401334  -0.650828  4.579285
H    -3.904475  0.573205  2.795897
H    -1.224936  -0.333525  2.191854
C    -1.072171  1.395407  3.499042
C    -0.569459  2.359143  2.421120
C    0.145240  3.591265  2.974836
N    1.399427  3.228731  3.634595
C    2.222738  4.166441  4.246515
N    2.274195  5.402260  3.598831
N    2.831092  3.835929  5.335465
H    -0.232293  0.991622  4.087405
H    -1.723257  1.928460  4.210771
H    -1.425912  2.706016  1.826210
H    0.096591  1.829527  1.723456
H    -0.530249  4.143057  3.657530
H    0.361446  4.266474  2.134453
H    1.331386  2.419968  4.247195
H    3.034444  5.997994  3.906081
H    2.181334  5.381572  2.587311
H    3.502617  4.552229  5.623636
N    -1.337187  -1.627011  4.470459
C    -1.524732  -2.532864  5.589225
H    -0.463886  -1.658326  3.957736
H    -0.777117  -2.353309  6.373993
H    -1.458775  -3.580669  5.265789
H    -2.523594  -2.349828  5.998080
