35
Energy: -21190.0743204 eV PBE+vdW (tier 2 basis)
C    -0.078922  -1.755052  0.464179
C    -0.303547  -0.561290  1.375389
O    0.579845  -0.098231  2.089758
H    0.645649  -1.473357  -0.310638
H    -0.990949  -2.122759  -0.022791
H    0.369224  -2.566562  1.049630
N    -1.567947  -0.033671  1.355608
C    -1.928667  1.165128  2.100094
C    -1.696300  1.111432  3.627531
O    -1.310895  2.129237  4.197816
H    -2.260054  -0.441052  0.737833
H    -1.271979  1.990984  1.787532
C    -3.389833  1.530135  1.779982
C    -3.840295  2.870337  2.361508
C    -5.298081  3.177871  2.031584
N    -5.678969  4.467812  2.605288
C    -6.992767  4.929833  2.624322
N    -7.776909  4.465524  1.568451
N    -7.522656  5.713807  3.500368
H    -3.493114  1.557242  0.681796
H    -4.055886  0.727701  2.139635
H    -3.704347  2.864318  3.453861
H    -3.197241  3.677293  1.978563
H    -5.950014  2.364081  2.400403
H    -5.421683  3.209366  0.936509
H    -5.174076  4.703209  3.454245
H    -7.315888  4.413481  0.664940
H    -8.658146  4.969060  1.530229
H    -6.890407  5.876361  4.288745
N    -2.017345  -0.009688  4.342212
C    -2.431543  -1.332832  3.907800
H    -1.781912  0.098908  5.324126
H    -2.844377  -1.861394  4.775101
H    -3.222706  -1.281940  3.150992
H    -1.598878  -1.929696  3.505319
