35
Energy: -21190.3466697 eV PBE+vdW (tier 2 basis)
C    -0.087820  -1.359084  0.760047
C    -0.300665  -0.741934  2.128581
O    0.299469  -1.180265  3.119053
H    -0.373910  -2.417309  0.808333
H    0.981957  -1.321832  0.520747
H    -0.653253  -0.875404  -0.045381
N    -1.169141  0.306063  2.164417
C    -1.688450  1.094469  3.301649
C    -0.673561  1.846408  4.200182
O    -1.021896  2.925724  4.683404
H    -1.557951  0.572988  1.268406
H    -2.224190  1.921925  2.819949
C    -2.739358  0.349588  4.157180
C    -2.220515  -0.731780  5.106756
C    -3.352254  -1.367737  5.909572
N    -2.815246  -2.393863  6.802895
C    -3.618975  -3.254074  7.545596
N    -4.863297  -2.725808  7.884828
N    -3.321634  -4.450386  7.927141
H    -3.484182  -0.079932  3.468402
H    -3.260229  1.125607  4.739024
H    -1.486964  -0.299575  5.804100
H    -1.689051  -1.511177  4.541541
H    -4.115329  -1.786127  5.226935
H    -3.853362  -0.585390  6.502481
H    -1.984108  -2.853868  6.444507
H    -5.325275  -3.309217  8.575717
H    -4.876923  -1.739950  8.127801
H    -2.442601  -4.767405  7.509350
N    0.521315  1.259614  4.427513
C    1.502060  1.863468  5.309889
H    0.648130  0.296576  4.090203
H    2.493560  1.461971  5.072939
H    1.281593  1.662935  6.370146
H    1.504129  2.950319  5.168799
