35
Energy: -21190.0658302 eV PBE+vdW (tier 2 basis)
C    -0.046021  -0.025996  0.260046
C    -0.237340  0.111691  1.759914
O    0.709598  0.238483  2.531356
H    1.028044  -0.014065  0.058773
H    -0.516781  0.802557  -0.288406
H    -0.472786  -0.962845  -0.123114
N    -1.527273  0.106628  2.234557
C    -2.764487  -0.111137  1.496819
C    -3.895236  0.787436  2.059805
O    -4.987163  0.329453  2.390663
H    -1.580101  0.155989  3.249323
H    -2.594601  0.246004  0.468419
C    -3.191940  -1.594184  1.403758
C    -2.927270  -2.467980  2.635953
C    -3.674756  -2.076113  3.909523
N    -3.453434  -3.088754  4.939176
C    -3.865840  -2.934885  6.260372
N    -4.907126  -2.029338  6.436247
N    -3.374927  -3.533149  7.293533
H    -2.648961  -2.042914  0.559147
H    -4.259532  -1.616563  1.146549
H    -1.844228  -2.488103  2.844157
H    -3.209194  -3.500555  2.377877
H    -4.747149  -1.992278  3.680260
H    -3.362098  -1.076866  4.264362
H    -2.569098  -3.581164  4.863381
H    -5.313308  -2.109516  7.362651
H    -5.596124  -1.970291  5.693778
H    -2.547078  -4.082638  7.048640
N    -3.635206  2.125102  2.156994
C    -2.486967  2.885459  1.685047
H    -4.418741  2.645147  2.539263
H    -2.151044  2.535483  0.700081
H    -1.634724  2.841141  2.376530
H    -2.791763  3.931973  1.572967
