35
Energy: -21190.0478997 eV PBE+vdW (tier 2 basis)
C    -0.021872  0.830403  0.230297
C    -0.004445  0.739420  1.747910
O    0.989444  1.062582  2.396673
H    0.800567  0.221307  -0.164346
H    0.175525  1.870346  -0.058637
H    -0.960916  0.503799  -0.233469
N    -1.173678  0.299676  2.306003
C    -1.502440  -0.007160  3.704870
C    -2.423468  1.004842  4.425314
O    -3.241893  0.545314  5.231067
H    -1.917673  0.086443  1.652323
H    -2.152686  -0.890074  3.642817
C    -0.311064  -0.426352  4.610005
C    0.416928  0.675410  5.398258
C    -0.232933  1.019648  6.751884
N    0.256784  2.280163  7.313592
C    -0.384918  3.503709  7.157794
N    -1.782282  3.446613  7.163851
N    0.176393  4.660774  7.034763
H    0.403853  -0.968624  3.979682
H    -0.717895  -1.161380  5.320939
H    0.508603  1.581760  4.790233
H    1.452101  0.345305  5.576342
H    -0.042365  0.208217  7.472807
H    -1.320809  1.089714  6.653107
H    1.267454  2.379853  7.285238
H    -2.165532  4.374919  7.317062
H    -2.191798  2.749265  7.779152
H    1.188293  4.570984  6.910704
N    -2.322487  2.342934  4.224233
C    -1.355781  3.152414  3.495813
H    -2.898598  2.848717  4.893274
H    -1.127049  4.038775  4.100633
H    -1.754550  3.480727  2.523780
H    -0.415483  2.621777  3.324255
