35
Energy: -21190.1072685 eV PBE+vdW (tier 2 basis)
C    0.066881  -1.329746  0.567239
C    -0.270572  -1.305919  2.041887
O    0.177205  -2.141960  2.830480
H    1.144213  -1.137832  0.461740
H    -0.487186  -0.593094  -0.027788
H    -0.127387  -2.334933  0.175363
N    -1.053767  -0.259962  2.454606
C    -1.584075  -0.162871  3.819771
C    -2.722180  0.864633  3.956852
O    -3.647269  0.608280  4.723427
H    -1.543500  0.254003  1.731684
H    -2.093465  -1.111099  4.049849
C    -0.532114  -0.002754  4.947614
C    0.445699  1.181534  4.942642
C    1.496395  1.244006  3.827449
N    2.267907  0.003670  3.730558
C    3.195039  -0.178871  2.701629
N    3.889620  0.975992  2.336844
N    3.439077  -1.282123  2.080702
H    0.018450  -0.950187  5.004114
H    -1.120306  0.046767  5.875677
H    0.978428  1.148922  5.905585
H    -0.105737  2.134401  4.941084
H    2.171875  2.081179  4.056733
H    1.026516  1.486259  2.857540
H    1.685172  -0.827800  3.820507
H    4.672363  0.743921  1.732366
H    4.159252  1.582846  3.105741
H    2.775153  -2.011357  2.358435
N    -2.751019  2.020433  3.210521
C    -1.681205  2.784668  2.583387
H    -3.598059  2.544681  3.420363
H    -2.012523  3.170839  1.609527
H    -0.799403  2.161105  2.422174
H    -1.376443  3.638277  3.208048
