35
Energy: -21190.5537925 eV PBE+vdW (tier 2 basis)
C    -0.410941  -0.193707  -0.087557
C    -0.559315  0.012862  1.403745
O    0.115837  -0.584569  2.237637
H    0.023855  0.702527  -0.554697
H    -1.374453  -0.370469  -0.588118
H    0.263024  -1.038747  -0.249478
N    -1.482016  0.961781  1.810290
C    -2.484827  1.622750  0.981452
C    -1.954233  2.860032  0.233403
O    -2.571474  3.323839  -0.732780
H    -1.596970  0.999275  2.820475
H    -2.800777  0.929296  0.187357
C    -3.698187  1.974276  1.876597
C    -4.838135  2.797879  1.258149
C    -5.729014  2.067384  0.242252
N    -4.998709  1.572451  -0.925867
C    -4.846511  0.229877  -1.193014
N    -5.988626  -0.539669  -0.945941
N    -3.698416  -0.220833  -1.596415
H    -3.314428  2.530392  2.749009
H    -4.097791  1.022405  2.262086
H    -5.493649  3.130361  2.078334
H    -4.435907  3.712070  0.799961
H    -6.528483  2.758991  -0.072521
H    -6.218328  1.211036  0.727483
H    -4.161165  2.117670  -1.158192
H    -5.915420  -1.503451  -1.250946
H    -6.871998  -0.110775  -1.207837
H    -3.774919  -1.188922  -1.919937
N    -0.802944  3.388981  0.713614
C    -0.143663  4.531751  0.114573
H    -0.350608  2.872443  1.461971
H    -0.778611  4.893436  -0.701281
H    0.838674  4.255739  -0.294151
H    -0.007202  5.337781  0.848455
