35
Energy: -21190.3981942 eV PBE+vdW (tier 2 basis)
C    0.374213  1.085165  0.721773
C    -0.150449  -0.159270  1.410807
O    0.475633  -1.219786  1.409088
H    1.370678  1.313767  1.119027
H    -0.271060  1.963590  0.844328
H    0.489466  0.872292  -0.348494
N    -1.354640  -0.012811  2.046266
C    -2.038110  -1.136674  2.669490
C    -3.244956  -1.511136  1.783626
O    -4.188660  -0.725978  1.663776
H    -1.896475  0.831701  1.894424
H    -1.291800  -1.938300  2.694242
C    -2.515071  -0.796853  4.088594
C    -3.024561  -2.019181  4.863289
C    -1.896385  -2.913818  5.398456
N    -2.367228  -4.108657  6.100564
C    -2.783301  -5.262528  5.437703
N    -2.020150  -5.581049  4.308677
N    -3.754955  -6.040966  5.770557
H    -3.315207  -0.046930  4.008932
H    -1.677535  -0.326647  4.627309
H    -3.695934  -2.620932  4.230134
H    -3.635634  -1.677871  5.713379
H    -1.264254  -2.337996  6.092154
H    -1.239801  -3.233834  4.580156
H    -2.962812  -3.901343  6.897451
H    -1.015727  -5.478709  4.433515
H    -2.268311  -6.509991  3.978716
H    -4.324707  -5.629349  6.515075
N    -3.206913  -2.703699  1.135500
C    -2.160672  -3.721917  1.169052
H    -4.035136  -2.886096  0.576442
H    -2.331881  -4.410487  0.334181
H    -2.178889  -4.303366  2.103587
H    -1.168122  -3.273044  1.034304
