35
Energy: -21190.4135052 eV PBE+vdW (tier 2 basis)
C    3.385119  -1.230688  0.050979
C    2.744211  -0.177050  0.933097
O    2.995326  1.023206  0.815068
H    4.475231  -1.151023  0.143183
H    3.129066  -1.018351  -0.994535
H    3.077390  -2.255105  0.293534
N    1.865526  -0.647256  1.866523
C    1.198690  0.236163  2.802721
C    1.004371  -0.548453  4.105834
O    0.699190  -1.741279  4.090055
H    1.688400  -1.640509  1.987310
H    1.866328  1.097540  2.950948
C    -0.158117  0.723860  2.234630
C    -0.912310  1.755819  3.078926
C    -0.199583  3.103197  3.201366
N    -0.997357  4.027774  3.989358
C    -0.698394  5.371365  4.186001
N    0.269855  5.884441  3.328900
N    -1.287989  6.168923  5.012946
H    -0.793445  -0.161367  2.085973
H    0.050629  1.140176  1.238111
H    -1.108029  1.349917  4.085920
H    -1.898150  1.930923  2.623327
H    -0.051398  3.524847  2.195669
H    0.812665  2.960506  3.635074
H    -1.530326  3.613187  4.745185
H    0.520702  6.833274  3.586805
H    1.069901  5.297801  3.117509
H    -2.064108  5.704145  5.491512
N    1.159046  0.176529  5.247262
C    0.963925  -0.382774  6.572676
H    1.470660  1.136700  5.161009
H    1.904437  -0.401365  7.140529
H    0.605727  -1.409776  6.448203
H    0.218813  0.193700  7.137393
