35
Energy: -21190.195241 eV PBE+vdW (tier 2 basis)
C    -0.433226  1.025340  0.009210
C    -0.084930  0.279973  1.281574
O    0.856262  -0.506849  1.340681
H    0.447711  1.009175  -0.638420
H    -0.734338  2.065716  0.191657
H    -1.258122  0.529374  -0.522894
N    -0.868624  0.495617  2.398449
C    -1.933495  1.482646  2.593546
C    -2.190511  1.698123  4.095355
O    -2.252843  2.823369  4.580816
H    -0.472654  0.062671  3.228448
H    -1.607442  2.470583  2.233625
C    -3.236653  1.093754  1.863835
C    -4.342492  2.144700  1.975107
C    -5.529929  1.881682  1.036230
N    -5.202763  1.965684  -0.390373
C    -4.622655  0.923973  -1.113882
N    -5.097761  -0.342563  -0.777591
N    -3.723692  1.030750  -2.034978
H    -3.591483  0.120307  2.237269
H    -2.987173  0.933308  0.808253
H    -3.927799  3.143137  1.754649
H    -4.719051  2.206228  3.008446
H    -6.327569  2.610428  1.241619
H    -5.953367  0.888904  1.235366
H    -4.823926  2.867979  -0.664277
H    -4.754438  -1.038317  -1.433170
H    -6.101296  -0.405021  -0.631828
H    -3.354368  1.984587  -2.084848
N    -2.369442  0.552898  4.821498
C    -2.665771  0.565383  6.242346
H    -2.397845  -0.332792  4.328043
H    -1.994858  -0.112441  6.785836
H    -3.706878  0.272127  6.441490
H    -2.515849  1.588420  6.602269
