35
Energy: -21190.4934724 eV PBE+vdW (tier 2 basis)
C    0.493977  -0.248320  0.385459
C    -0.073467  -0.764406  1.690781
O    0.245805  -1.866687  2.151386
H    1.586943  -0.205755  0.471229
H    0.120122  0.743046  0.101924
H    0.256811  -0.963363  -0.411882
N    -0.949638  0.061529  2.329605
C    -1.568720  -0.274943  3.612947
C    -2.831384  -1.152711  3.390241
O    -3.972154  -0.711991  3.518462
H    -1.261080  0.905115  1.861047
H    -0.825007  -0.882868  4.151166
C    -1.893990  0.980718  4.414579
C    -0.664595  1.788369  4.830916
C    -1.014527  3.017194  5.683135
N    -1.665569  2.700517  6.950588
C    -1.043330  2.709875  8.190576
N    0.346437  2.579183  8.138687
N    -1.615782  2.842459  9.339435
H    -2.450403  0.666895  5.308529
H    -2.596095  1.607251  3.839541
H    -0.104269  2.132457  3.946701
H    0.026852  1.137354  5.392223
H    -1.686853  3.674887  5.110109
H    -0.105496  3.598706  5.890737
H    -2.667916  2.830043  6.993228
H    0.722172  2.476192  9.076881
H    0.700043  1.870563  7.501919
H    -2.606031  3.082353  9.239955
N    -2.527600  -2.430694  3.039976
C    -3.540370  -3.404967  2.684461
H    -1.541555  -2.634696  2.862450
H    -3.366436  -4.352203  3.211618
H    -3.551360  -3.602222  1.601887
H    -4.516105  -3.003464  2.977426
