35
Energy: -21190.6099912 eV PBE+vdW (tier 2 basis)
C    0.083980  0.902999  -0.063669
C    -0.552550  1.053094  1.306685
O    -0.989423  2.131905  1.710971
H    -0.637212  1.223184  -0.825869
H    0.411664  -0.119494  -0.287187
H    0.946092  1.578810  -0.125960
N    -0.619607  -0.091415  2.045558
C    -1.072139  -0.105228  3.422281
C    -0.540538  -1.419684  4.034533
O    0.177679  -2.187144  3.385290
H    -0.100052  -0.927793  1.778678
H    -0.602375  0.737326  3.960031
C    -2.597370  0.052941  3.562003
C    -3.414418  -1.042072  2.863770
C    -4.813672  -1.242150  3.464337
N    -4.808356  -1.921944  4.767274
C    -4.490292  -1.301024  5.970941
N    -4.971686  -0.004477  6.106295
N    -3.805209  -1.817968  6.941549
H    -2.864938  1.039444  3.160171
H    -2.845827  0.099374  4.630960
H    -2.883201  -2.008479  2.907939
H    -3.513782  -0.807563  1.793483
H    -5.429107  -1.850107  2.785885
H    -5.328207  -0.277534  3.567739
H    -4.402814  -2.852584  4.717297
H    -4.881860  0.326988  7.061328
H    -5.885236  0.175826  5.703180
H    -3.429684  -2.731549  6.671654
N    -0.894437  -1.667384  5.317672
C    -0.467167  -2.874180  6.003831
H    -1.590582  -1.088774  5.778015
H    -0.922704  -3.776144  5.566928
H    -0.758696  -2.796799  7.056038
H    0.621726  -2.986404  5.935365
