35
Energy: -21190.3320402 eV PBE+vdW (tier 2 basis)
C    0.069503  -1.282926  1.072211
C    -0.202781  -0.272660  2.170141
O    0.601195  -0.120827  3.100115
H    1.028701  -1.037520  0.599792
H    -0.708295  -1.330859  0.300735
H    0.176728  -2.273759  1.531020
N    -1.357672  0.434133  2.035553
C    -1.991601  1.432179  2.924396
C    -1.195169  2.725134  3.234108
O    -1.817125  3.781946  3.350429
H    -1.895926  0.224605  1.204014
H    -2.829608  1.812717  2.327547
C    -2.616115  0.830977  4.206371
C    -1.664408  0.532679  5.367861
C    -2.360954  -0.162764  6.551080
N    -3.530665  0.507766  7.109749
C    -3.517308  1.807465  7.602678
N    -2.384182  2.152281  8.338516
N    -4.565476  2.538498  7.426752
H    -3.152068  -0.086003  3.909713
H    -3.379135  1.548867  4.541540
H    -1.212160  1.476301  5.710678
H    -0.831272  -0.103637  5.039345
H    -1.623836  -0.346938  7.350296
H    -2.700309  -1.162838  6.243401
H    -4.401826  0.351936  6.611718
H    -2.184556  3.144267  8.372520
H    -1.553842  1.582237  8.222346
H    -4.500021  3.419473  7.942647
N    0.143261  2.611442  3.389677
C    0.957751  3.757814  3.743945
H    0.543287  1.664997  3.402066
H    0.628991  4.636862  3.177260
H    2.004667  3.540398  3.505381
H    0.880969  4.004322  4.814976
