35
Energy: -21190.4528884 eV PBE+vdW (tier 2 basis)
C    0.366917  -2.297979  2.118281
C    0.241252  -1.535925  3.420801
O    0.633872  -2.020521  4.487178
H    0.388991  -1.658509  1.227409
H    -0.477200  -2.996919  2.025067
H    1.283202  -2.895020  2.165848
N    -0.322012  -0.291034  3.392812
C    -1.173888  0.287739  2.371759
C    -1.432186  1.744597  2.802090
O    -1.339642  2.092689  3.978676
H    -0.361835  0.200166  4.287472
H    -0.640647  0.295985  1.406189
C    -2.518363  -0.463249  2.166274
C    -3.580388  -0.343376  3.266582
C    -3.238543  -0.907699  4.665187
N    -2.589928  -2.211654  4.720981
C    -3.029800  -3.375613  4.119257
N    -4.388764  -3.385639  3.782100
N    -2.310385  -4.410098  3.832234
H    -2.289680  -1.523632  1.992133
H    -2.963962  -0.100315  1.226347
H    -4.474374  -0.858120  2.889192
H    -3.866320  0.711258  3.408825
H    -4.171491  -0.914686  5.256227
H    -2.571064  -0.214990  5.192040
H    -1.595916  -2.207208  4.931020
H    -4.674659  -4.327444  3.529493
H    -5.005741  -2.973928  4.477406
H    -1.324366  -4.243562  4.053091
N    -1.813305  2.578288  1.798440
C    -2.186948  3.963654  2.020605
H    -1.839749  2.211594  0.854445
H    -3.228702  4.146533  1.723004
H    -1.530851  4.644301  1.461498
H    -2.080220  4.167065  3.090875
