35
Energy: -21190.4256167 eV PBE+vdW (tier 2 basis)
C    -0.885393  -0.774379  -0.154929
C    -0.624966  -0.040446  1.145828
O    0.276808  0.805998  1.223987
H    -0.985144  -0.038443  -0.961325
H    -1.774251  -1.416327  -0.138842
H    -0.008341  -1.393624  -0.384389
N    -1.449475  -0.374111  2.176243
C    -1.408052  -0.002220  3.605073
C    -1.408784  1.497491  3.997045
O    -1.785239  1.781077  5.135034
H    -2.153800  -1.067250  1.953403
H    -2.389526  -0.317895  3.984691
C    -0.372411  -0.820596  4.417368
C    1.100893  -0.740028  4.004483
C    1.792605  0.601205  4.297764
N    3.185243  0.647902  3.886044
C    4.196718  0.032307  4.610390
N    5.414611  0.019070  3.916704
N    4.138613  -0.497048  5.784598
H    -0.687947  -1.873940  4.366846
H    -0.496635  -0.512472  5.466735
H    1.209417  -0.964015  2.933117
H    1.643104  -1.537713  4.534276
H    1.737029  0.835505  5.371769
H    1.278813  1.417772  3.777865
H    3.328743  0.659833  2.880539
H    6.164344  -0.291029  4.528643
H    5.643954  0.895118  3.453885
H    3.179566  -0.534101  6.136557
N    -1.023025  2.409245  3.075902
C    -0.945670  3.818537  3.415953
H    -0.501518  2.053483  2.265086
H    -0.914594  4.407967  2.493040
H    -0.052471  4.049762  4.018269
H    -1.826052  4.104405  4.002130
