35
Energy: -21190.6469491 eV PBE+vdW (tier 2 basis)
C    0.140912  -3.041111  -0.428312
C    -0.047667  -2.280303  0.865874
O    0.835196  -1.542305  1.323439
H    -0.706834  -3.685795  -0.689780
H    1.048932  -3.651494  -0.353157
H    0.299725  -2.317844  -1.238257
N    -1.242441  -2.454273  1.493599
C    -1.654084  -1.712682  2.688240
C    -1.064637  -2.315176  4.000128
O    -1.774460  -2.721359  4.928740
H    -1.902625  -3.118331  1.106309
H    -1.207591  -0.710146  2.590449
C    -3.175966  -1.581070  2.744077
C    -3.964937  -2.906223  2.649493
C    -5.184180  -2.934166  3.575492
N    -4.747056  -2.915110  4.953143
C    -5.521267  -2.420732  5.979429
N    -4.814341  -2.275684  7.175541
N    -6.784668  -2.143116  5.959000
H    -3.493942  -0.899928  1.942132
H    -3.419668  -1.084898  3.692945
H    -3.323511  -3.760707  2.919206
H    -4.308537  -3.081027  1.619196
H    -5.788263  -3.832603  3.354899
H    -5.830661  -2.060161  3.371976
H    -3.739110  -2.985936  5.101446
H    -3.852955  -1.959369  7.087281
H    -5.350350  -1.752320  7.859804
H    -7.209513  -2.407756  5.067781
N    0.285410  -2.312990  4.027730
C    1.055699  -2.835331  5.139723
H    0.762360  -1.932366  3.201743
H    1.767818  -3.596622  4.793745
H    0.364099  -3.288062  5.857398
H    1.616114  -2.035004  5.643550
