35
Energy: -21190.064149 eV PBE+vdW (tier 2 basis)
C    0.808139  0.482676  -0.159077
C    0.663082  0.413901  1.350321
O    1.624533  0.498646  2.108243
H    -0.146876  0.471832  -0.699114
H    1.415859  -0.368411  -0.491898
H    1.355284  1.396739  -0.418767
N    -0.624072  0.264566  1.810236
C    -0.897448  -0.009939  3.225459
C    -2.262968  -0.696299  3.390626
O    -2.348391  -1.775938  3.969634
H    -1.331664  -0.000313  1.134568
H    -0.171705  -0.759902  3.571234
C    -0.733865  1.237502  4.119675
C    -0.877676  0.922941  5.609021
C    -0.736479  2.183705  6.470680
N    -0.823170  1.939890  7.907673
C    -1.957819  2.146767  8.677845
N    -3.156614  2.078322  7.960611
N    -1.999614  2.400104  9.942651
H    -1.451826  2.017293  3.826041
H    0.269169  1.639208  3.918818
H    -0.119182  0.186235  5.914389
H    -1.851220  0.446339  5.808393
H    -1.505473  2.918540  6.186493
H    0.238068  2.652219  6.266167
H    0.042302  2.007234  8.427175
H    -3.943790  2.125927  8.601494
H    -3.231623  1.289419  7.323469
H    -1.064547  2.579342  10.319241
N    -3.384208  -0.101637  2.860215
C    -3.599437  1.264825  2.402468
H    -4.218301  -0.647366  3.062397
H    -2.692065  1.672945  1.947239
H    -3.905888  1.936282  3.220365
H    -4.388507  1.267981  1.639990
