35
Energy: -21190.5809085 eV PBE+vdW (tier 2 basis)
C    -0.135704  0.170152  0.008654
C    -0.090349  0.001563  1.511942
O    0.973461  -0.172059  2.119444
H    0.469836  1.044003  -0.262653
H    -1.148292  0.303304  -0.390807
H    0.325799  -0.706629  -0.461896
N    -1.289334  0.059050  2.156190
C    -1.418143  -0.019010  3.612021
C    -1.450013  -1.500203  4.082488
O    -2.472872  -2.036487  4.504843
H    -2.139849  0.117261  1.607205
H    -0.503334  0.441316  4.017536
C    -2.647111  0.748709  4.090740
C    -2.572624  2.252618  3.822649
C    -3.826894  2.994086  4.310454
N    -3.870749  4.406843  3.974391
C    -4.187917  4.843193  2.692470
N    -3.965267  6.215000  2.529249
N    -4.636300  4.155235  1.698568
H    -2.762930  0.553814  5.166621
H    -3.546934  0.313397  3.625557
H    -2.437840  2.448816  2.748167
H    -1.686452  2.677661  4.322214
H    -3.915109  2.905822  5.403658
H    -4.731719  2.520625  3.898757
H    -3.190537  4.987792  4.455304
H    -4.339730  6.533111  1.639864
H    -4.285384  6.791177  3.303454
H    -4.640907  3.153640  1.902700
N    -0.240916  -2.111135  3.972605
C    -0.047967  -3.518664  4.259563
H    0.502224  -1.576835  3.514686
H    0.819804  -3.664135  4.916540
H    0.107006  -4.102045  3.339438
H    -0.946977  -3.889792  4.762872
