35
Energy: -21190.4210392 eV PBE+vdW (tier 2 basis)
C    0.557294  -0.161875  0.242417
C    0.373197  0.117105  1.722503
O    1.327583  0.231368  2.492863
H    1.161403  0.642529  -0.195279
H    -0.385699  -0.243991  -0.311810
H    1.123153  -1.094694  0.128126
N    -0.921124  0.233164  2.138811
C    -1.268874  0.477554  3.527164
C    -2.601897  -0.241663  3.775450
O    -3.500760  -0.177334  2.932844
H    -1.702406  0.116184  1.500046
H    -0.448368  0.073302  4.134769
C    -1.411657  1.990557  3.810009
C    -1.613247  2.356452  5.280031
C    -1.951625  3.842454  5.475176
N    -3.256816  4.193379  4.942452
C    -4.433372  3.946590  5.636904
N    -5.563144  4.365528  4.927035
N    -4.573489  3.416067  6.803590
H    -2.257641  2.366068  3.214826
H    -0.498454  2.471852  3.428679
H    -0.705206  2.122364  5.857886
H    -2.432417  1.763937  5.714931
H    -1.207856  4.465605  4.958896
H    -1.883976  4.104701  6.546144
H    -3.295854  4.957888  4.279751
H    -6.412231  4.079961  5.406389
H    -5.569390  4.093548  3.947283
H    -3.672833  3.291216  7.271813
N    -2.765677  -0.923998  4.941265
C    -1.799126  -1.167298  6.001931
H    -3.698408  -1.311250  5.049908
H    -2.164425  -1.997639  6.615699
H    -1.660082  -0.295205  6.657092
H    -0.823610  -1.459667  5.594639
