35
Energy: -21190.4884901 eV PBE+vdW (tier 2 basis)
C    -1.896794  -2.533345  2.476984
C    -1.237860  -1.168906  2.412190
O    -1.749477  -0.217883  1.820055
H    -1.305592  -3.283514  3.016207
H    -2.078383  -2.885190  1.454068
H    -2.873798  -2.429574  2.965381
N    -0.039443  -1.064604  3.058305
C    0.723802  0.168634  3.067214
C    2.206705  -0.220118  3.086783
O    2.608119  -1.163194  3.768921
H    0.393949  -1.860226  3.518057
H    0.461823  0.705167  2.143246
C    0.358242  1.038551  4.295950
C    1.012366  2.422221  4.365732
C    0.584168  3.377424  3.238423
N    1.048983  4.745354  3.394294
C    0.427067  5.633818  4.268835
N    1.155369  6.821130  4.414110
N    -0.675477  5.486599  4.916844
H    0.613562  0.463167  5.197866
H    -0.736701  1.148211  4.285251
H    2.110738  2.331890  4.370091
H    0.745079  2.882434  5.328290
H    -0.513002  3.396317  3.154683
H    0.942181  3.021776  2.260035
H    2.055390  4.869505  3.332931
H    1.501351  7.212161  3.541401
H    0.619536  7.501455  4.945921
H    -1.048265  4.538514  4.833181
N    3.023060  0.565980  2.332342
C    4.461192  0.380765  2.269059
H    2.593174  1.277895  1.754313
H    4.991509  1.293666  2.572972
H    4.783304  0.101478  1.256378
H    4.719122  -0.429560  2.958689
