35
Energy: -21190.0577132 eV PBE+vdW (tier 2 basis)
C    -1.179561  -1.120856  -0.020733
C    -0.732298  -0.107338  1.008704
O    0.314976  0.535116  0.868519
H    -1.025016  -2.133276  0.374442
H    -0.573826  -0.978078  -0.919638
H    -2.243431  -1.039067  -0.277128
N    -1.479373  0.075292  2.143848
C    -2.902667  -0.127982  2.401951
C    -3.368400  -1.554424  2.020180
O    -2.690985  -2.535668  2.307203
H    -1.038362  0.751984  2.762537
H    -2.981436  -0.166359  3.502237
C    -3.762868  1.087195  1.981308
C    -3.877600  1.517286  0.507709
C    -2.642443  2.175743  -0.172142
N    -1.731672  2.939455  0.664475
C    -2.076898  3.968899  1.518105
N    -3.296403  4.587207  1.218241
N    -1.409397  4.375444  2.546949
H    -3.387323  1.947514  2.554890
H    -4.780306  0.929458  2.376864
H    -4.703056  2.241053  0.477684
H    -4.186030  0.679011  -0.138477
H    -3.019119  2.796611  -1.003515
H    -2.020405  1.412311  -0.652288
H    -0.851889  2.474759  0.877677
H    -3.403785  5.431875  1.772845
H    -3.459606  4.756670  0.229157
H    -0.597883  3.775379  2.720364
N    -4.591755  -1.640738  1.423247
C    -5.213404  -2.911941  1.102906
H    -5.093892  -0.786581  1.218673
H    -6.155501  -3.044802  1.652841
H    -4.515224  -3.703069  1.395182
H    -5.416207  -2.992454  0.026001
