35
Energy: -21190.6037144 eV PBE+vdW (tier 2 basis)
C    0.794691  0.344202  0.671225
C    0.157033  -0.296745  1.897064
O    0.836363  -0.790801  2.794477
H    0.477807  -0.148774  -0.259525
H    1.878938  0.246253  0.768845
H    0.540309  1.411303  0.594220
N    -1.209613  -0.286695  1.960189
C    -2.146535  0.207000  0.963600
C    -3.364324  0.757849  1.728688
O    -3.909275  0.074890  2.599709
H    -1.625516  -0.715653  2.785499
H    -1.669283  1.032316  0.422554
C    -2.581810  -0.922766  -0.002894
C    -3.476093  -0.528638  -1.188460
C    -2.748703  0.078167  -2.399532
N    -2.179527  1.415187  -2.199624
C    -2.960297  2.541782  -2.018353
N    -4.035951  2.646714  -2.885238
N    -2.655181  3.370567  -1.065456
H    -3.104046  -1.668993  0.613503
H    -1.670248  -1.417708  -0.375373
H    -4.276794  0.154431  -0.863760
H    -3.986276  -1.436260  -1.546803
H    -3.438072  0.114359  -3.253767
H    -1.919268  -0.576502  -2.705528
H    -1.377777  1.447490  -1.576627
H    -4.544851  3.521270  -2.849496
H    -3.909579  2.282361  -3.824065
H    -3.169763  4.251286  -1.153115
N    -3.755629  1.998174  1.356876
C    -4.901184  2.657390  1.951361
H    -3.239221  2.485955  0.609632
H    -4.599641  3.564185  2.495126
H    -5.369219  1.961992  2.656211
H    -5.634283  2.938083  1.181533
