35
Energy: -21190.1379952 eV PBE+vdW (tier 2 basis)
C    -0.064874  2.060890  -0.093256
C    -0.176382  0.829537  0.780263
O    0.560390  -0.143059  0.631012
H    0.396690  1.762084  -1.038679
H    0.605250  2.781943  0.396920
H    -1.015642  2.570952  -0.284340
N    -1.110641  0.819093  1.794390
C    -2.144765  1.791390  2.156778
C    -3.111814  2.101786  0.984727
O    -3.297493  3.250015  0.586395
H    -1.055181  -0.031221  2.346120
H    -2.748413  1.277776  2.924104
C    -1.611441  3.087923  2.780043
C    -0.707640  2.843951  3.987602
C    -0.208403  4.149315  4.603023
N    0.686967  3.887656  5.716529
C    1.328680  4.930136  6.378314
N    2.029450  4.486914  7.506184
N    1.334047  6.181636  6.075238
H    -2.477743  3.702987  3.062883
H    -1.079627  3.670016  2.014905
H    0.159250  2.231932  3.697147
H    -1.257383  2.267191  4.753204
H    -1.071354  4.775206  4.904844
H    0.346874  4.721125  3.842716
H    0.402229  3.125495  6.325740
H    2.588620  5.240089  7.896797
H    2.577997  3.643952  7.356571
H    0.674872  6.391461  5.322456
N    -3.757449  1.042424  0.413764
C    -3.703313  -0.368893  0.759138
H    -4.347990  1.316984  -0.364967
H    -2.798512  -0.863668  0.378298
H    -4.580045  -0.863736  0.326629
H    -3.750710  -0.517307  1.846550
