35
Energy: -21190.516349 eV PBE+vdW (tier 2 basis)
C    0.981258  -0.999900  0.748093
C    0.744372  -0.112308  1.953949
O    1.686851  0.397534  2.571992
H    1.597672  -1.852662  1.059138
H    1.556475  -0.435913  0.003593
H    0.062757  -1.376856  0.282329
N    -0.559320  0.080009  2.297228
C    -1.067633  0.832044  3.457945
C    -0.941556  2.371572  3.313713
O    -1.931952  3.086234  3.510764
H    -1.260448  -0.320699  1.686918
H    -2.152308  0.664177  3.445310
C    -0.515418  0.286200  4.798464
C    -1.470416  0.433846  5.992342
C    -1.614419  1.834022  6.604663
N    -0.370452  2.325501  7.164766
C    0.226324  3.535838  6.857504
N    1.466293  3.684835  7.503867
N    -0.185792  4.473354  6.078262
H    0.457162  0.743884  5.023549
H    -0.320331  -0.785464  4.648704
H    -1.130215  -0.255114  6.784095
H    -2.476450  0.082767  5.710601
H    -2.395025  1.794328  7.384116
H    -1.967291  2.544356  5.847033
H    0.231872  1.639329  7.605644
H    1.811019  4.631441  7.368975
H    1.456519  3.434065  8.489905
H    -1.027747  4.216202  5.556927
N    0.282942  2.833992  2.993977
C    0.569400  4.251063  2.842916
H    1.039162  2.146186  2.919986
H    0.783278  4.719211  3.815498
H    -0.302916  4.752821  2.408056
H    1.429659  4.370255  2.174388
