35
Energy: -21190.4003158 eV PBE+vdW (tier 2 basis)
C    0.382717  0.314422  0.633653
C    -0.165035  0.252892  2.046294
O    0.518775  0.552605  3.020326
H    1.459175  0.123748  0.680686
H    0.239378  1.330026  0.239163
H    -0.087846  -0.385736  -0.065470
N    -1.472302  -0.164964  2.220439
C    -2.506026  -0.400718  1.211625
C    -2.262414  -1.681206  0.379786
O    -2.777523  -1.832685  -0.733283
H    -1.778004  -0.069236  3.184854
H    -3.413950  -0.661189  1.778567
C    -2.855494  0.821005  0.322028
C    -4.311823  1.301430  0.401441
C    -5.374671  0.322674  -0.109484
N    -5.639734  -0.755483  0.851055
C    -6.187717  -1.981996  0.456930
N    -5.668406  -2.491118  -0.723784
N    -7.101669  -2.499109  1.210379
H    -2.613550  0.581302  -0.722474
H    -2.206852  1.653914  0.623703
H    -4.555033  1.596108  1.437010
H    -4.393166  2.223657  -0.194271
H    -5.041159  -0.126379  -1.051864
H    -6.303227  0.878835  -0.334872
H    -6.159476  -0.441669  1.669397
H    -5.941641  -3.446267  -0.920701
H    -4.677642  -2.302120  -0.898568
H    -7.332665  -3.450646  0.911642
N    -1.511688  -2.628478  0.989021
C    -1.240106  -3.926946  0.405613
H    -1.112032  -2.384558  1.889494
H    -0.158833  -4.107006  0.337710
H    -1.669637  -3.939759  -0.601469
H    -1.696958  -4.732151  0.997971
