35
Energy: -21190.0606093 eV PBE+vdW (tier 2 basis)
C    -0.173630  -0.148988  -0.179471
C    -0.099646  -0.490492  1.300733
O    0.685621  -1.337836  1.721490
H    -0.855489  0.675673  -0.421439
H    -0.495085  -1.044462  -0.726433
H    0.833974  0.103300  -0.530805
N    -0.966050  0.222806  2.088908
C    -1.262896  0.110190  3.523120
C    -0.707321  1.279427  4.377666
O    -1.501635  1.930726  5.063010
H    -1.535300  0.905738  1.603176
H    -2.343607  0.290855  3.596153
C    -0.988379  -1.273397  4.147484
C    -1.404049  -1.370139  5.621760
C    -2.902997  -1.164685  5.889739
N    -3.272019  -1.365698  7.286290
C    -3.856124  -2.507007  7.808434
N    -3.700570  -3.650144  7.018875
N    -4.525458  -2.598422  8.909319
H    0.068828  -1.537722  4.049229
H    -1.538399  -2.018756  3.551720
H    -0.835473  -0.649629  6.229749
H    -1.105586  -2.365031  5.987741
H    -3.497117  -1.847071  5.262094
H    -3.188335  -0.139369  5.618092
H    -3.422000  -0.530245  7.836703
H    -4.039844  -4.466099  7.519907
H    -2.772382  -3.795214  6.631493
H    -4.699834  -1.675850  9.317401
N    0.624096  1.557525  4.400422
C    1.728113  0.975120  3.655818
H    0.831093  2.360105  4.988963
H    2.612904  0.926896  4.302974
H    1.980719  1.572969  2.765840
H    1.496144  -0.040407  3.321161
