35
Energy: -21190.1006706 eV PBE+vdW (tier 2 basis)
C    0.112349  -0.778669  1.729223
C    -0.163524  0.238098  2.816712
O    0.562688  0.339293  3.803228
H    0.874265  -1.465209  2.108286
H    0.510761  -0.281681  0.832952
H    -0.790721  -1.337057  1.459047
N    -1.226395  1.111265  2.681005
C    -2.338620  1.192767  1.743877
C    -3.382575  0.068054  1.939056
O    -3.066180  -1.074956  2.257658
H    -1.303001  1.703533  3.502272
H    -2.822414  2.151674  1.981869
C    -1.948821  1.272642  0.254165
C    -1.073079  2.481481  -0.071636
C    -0.883070  2.710316  -1.579472
N    -2.122787  2.785144  -2.365244
C    -3.179212  3.632942  -2.033903
N    -2.785845  4.871554  -1.537997
N    -4.440126  3.370636  -2.139765
H    -2.887747  1.338200  -0.314440
H    -1.469237  0.336311  -0.062695
H    -0.081529  2.375574  0.393433
H    -1.525430  3.384066  0.366785
H    -0.294970  1.892974  -2.020743
H    -0.288702  3.623102  -1.736309
H    -2.455767  1.883426  -2.688589
H    -3.568789  5.515873  -1.490147
H    -1.959984  5.277948  -1.966500
H    -4.593635  2.392318  -2.400315
N    -4.684620  0.406264  1.690060
C    -5.248366  1.716947  1.391474
H    -5.326016  -0.371677  1.808756
H    -5.091371  2.433697  2.211770
H    -6.329074  1.600783  1.259284
H    -4.853210  2.152535  0.462140
