35
Energy: -21190.4551401 eV PBE+vdW (tier 2 basis)
C    -0.546318  2.597611  2.422760
C    -0.576256  1.080826  2.444445
O    0.256474  0.397911  1.848863
H    -1.350763  3.063544  3.005001
H    -0.614929  2.935636  1.381319
H    0.421439  2.936338  2.812870
N    -1.589028  0.526262  3.174904
C    -1.791651  -0.907796  3.253212
C    -3.307038  -1.138873  3.325498
O    -4.031756  -0.391518  3.984590
H    -2.308416  1.096975  3.610278
H    -1.361087  -1.345116  2.338834
C    -1.071137  -1.513766  4.478937
C    -1.138310  -3.036717  4.583815
C    -0.307126  -3.593224  5.748221
N    1.125223  -3.350592  5.603605
C    1.919499  -2.760655  6.575204
N    1.280759  -1.751548  7.306569
N    3.126224  -3.189085  6.732793
H    -1.498456  -1.051990  5.384466
H    -0.018046  -1.203915  4.404652
H    -0.781126  -3.489251  3.642919
H    -2.178783  -3.371400  4.720062
H    -0.491229  -4.676573  5.838990
H    -0.639862  -3.143214  6.693538
H    1.650428  -4.079665  5.130575
H    1.907999  -1.233298  7.911299
H    0.672701  -1.138081  6.770169
H    3.660652  -2.581276  7.358650
N    -3.763006  -2.221666  2.640922
C    -5.153200  -2.637858  2.652566
H    -3.091977  -2.761519  2.107670
H    -5.264461  -3.641996  3.085179
H    -5.574187  -2.638490  1.638019
H    -5.706781  -1.920758  3.267421
