35
Energy: -21190.1231181 eV PBE+vdW (tier 2 basis)
C    0.940533  -0.313084  0.097791
C    0.463545  -0.586175  1.512784
O    0.968929  -1.449753  2.224356
H    1.997273  -0.020596  0.133835
H    0.372710  0.469360  -0.421349
H    0.880468  -1.242854  -0.481513
N    -0.586163  0.183980  1.939418
C    -1.084868  0.132709  3.304202
C    -1.967059  -1.066998  3.722823
O    -2.146110  -1.235301  4.927923
H    -0.940848  0.905780  1.323779
H    -0.210363  0.002720  3.958912
C    -1.756709  1.468094  3.680429
C    -3.012766  1.871117  2.889690
C    -4.310048  1.165578  3.330209
N    -5.511968  1.675088  2.692787
C    -6.089912  2.885090  3.060969
N    -7.110127  3.271965  2.181665
N    -5.800670  3.641877  4.062180
H    -0.993460  2.252683  3.569968
H    -1.997000  1.416554  4.751392
H    -2.874875  1.711772  1.805359
H    -3.157838  2.955276  3.003226
H    -4.430465  1.256495  4.419984
H    -4.261140  0.088188  3.127753
H    -5.618579  1.443414  1.710116
H    -7.603662  4.080296  2.550605
H    -7.752128  2.524583  1.929045
H    -4.967899  3.319208  4.559462
N    -2.558363  -1.904650  2.818043
C    -2.547100  -1.945771  1.363808
H    -3.044100  -2.660091  3.292504
H    -3.319257  -2.655675  1.045438
H    -1.583862  -2.285771  0.958026
H    -2.793669  -0.971910  0.924316
