35
Energy: -21190.4247449 eV PBE+vdW (tier 2 basis)
C    -0.695971  0.867008  -0.289519
C    -1.037689  1.442973  1.065865
O    -1.385463  2.622533  1.209297
H    -0.063546  -0.027703  -0.233060
H    -0.196821  1.633020  -0.891171
H    -1.637140  0.593141  -0.787273
N    -0.984865  0.563023  2.103530
C    -1.363877  0.901283  3.468752
C    -0.087012  1.178381  4.288881
O    0.702270  0.267638  4.540609
H    -0.577741  -0.352654  1.946492
H    -1.982304  1.801930  3.386549
C    -2.158316  -0.241220  4.124651
C    -3.451908  -0.600221  3.385181
C    -4.608412  0.416089  3.560544
N    -5.319794  0.747760  2.319341
C    -4.643745  1.510742  1.355281
N    -4.271975  2.780721  1.768921
N    -4.469925  1.022136  0.171447
H    -2.373687  0.046240  5.166495
H    -1.494918  -1.116233  4.193302
H    -3.235771  -0.692001  2.309950
H    -3.786132  -1.594110  3.715254
H    -4.224898  1.352282  3.991498
H    -5.346208  0.037717  4.281320
H    -5.684006  -0.083926  1.855424
H    -3.344386  3.078922  1.466981
H    -4.501230  3.031867  2.723834
H    -4.133047  1.755471  -0.461321
N    0.126611  2.456974  4.705255
C    -0.666261  3.646853  4.420478
H    0.981206  2.567570  5.242786
H    -0.052661  4.528221  4.636425
H    -1.569918  3.705830  5.047359
H    -0.952826  3.685655  3.361516
