35
Energy: -21190.5069889 eV PBE+vdW (tier 2 basis)
C    -2.697897  0.749236  -0.367339
C    -1.950562  0.118128  0.787024
O    -0.956787  0.641531  1.301433
H    -3.301086  1.577412  0.034397
H    -3.359574  0.047727  -0.890516
H    -1.972924  1.168154  -1.073609
N    -2.469621  -1.056353  1.245898
C    -1.929468  -1.767840  2.384315
C    -2.612025  -3.142371  2.403149
O    -3.658463  -3.340745  1.781527
H    -3.293874  -1.482360  0.827295
H    -0.842979  -1.882019  2.239464
C    -2.141959  -0.991831  3.710038
C    -3.606889  -0.728252  4.067179
C    -3.785373  0.511322  4.957530
N    -3.429621  1.778636  4.309591
C    -4.121997  2.260007  3.195441
N    -5.497858  2.037426  3.238071
N    -3.614375  2.872677  2.181371
H    -1.603491  -0.045145  3.563510
H    -1.632902  -1.515076  4.532778
H    -4.047114  -1.601743  4.573034
H    -4.197774  -0.572807  3.152783
H    -3.165905  0.432976  5.863900
H    -4.825701  0.566009  5.304959
H    -2.428893  1.913899  4.201034
H    -5.968006  2.553966  2.501017
H    -5.933995  2.166742  4.146314
H    -2.591198  2.827147  2.193210
N    -2.040315  -4.128933  3.149878
C    -0.806359  -4.102662  3.915355
H    -2.585876  -4.985466  3.157132
H    -0.359154  -5.103863  3.909779
H    -0.964362  -3.800415  4.962243
H    -0.082294  -3.415372  3.463676
