35
Energy: -21190.1939687 eV PBE+vdW (tier 2 basis)
C    0.363953  1.305365  0.157912
C    0.363502  0.070845  1.025436
O    1.359633  -0.646365  1.177814
H    0.117820  2.206531  0.736476
H    -0.377341  1.203824  -0.646078
H    1.358682  1.415710  -0.280796
N    -0.802678  -0.242639  1.674260
C    -2.112261  0.372856  1.521517
C    -2.226606  1.826150  2.038876
O    -2.916546  2.628028  1.412166
H    -0.734702  -1.085820  2.236003
H    -2.349368  0.467260  0.450747
C    -3.199082  -0.491545  2.202823
C    -3.884086  -1.583340  1.366175
C    -3.037165  -2.740503  0.801812
N    -2.400735  -2.458111  -0.476093
C    -1.051683  -2.230719  -0.701024
N    -0.160608  -3.032898  -0.000142
N    -0.727477  -1.344145  -1.586306
H    -3.991559  0.186972  2.548641
H    -2.771976  -0.938009  3.117520
H    -4.663193  -2.026952  2.006122
H    -4.426545  -1.109610  0.531818
H    -3.695497  -3.618015  0.689890
H    -2.265162  -3.034238  1.528565
H    -2.956832  -1.910377  -1.126972
H    0.674465  -2.550579  0.331782
H    -0.544537  -3.693634  0.665503
H    0.272725  -1.400323  -1.795227
N    -1.591309  2.196002  3.191594
C    -0.813738  1.415307  4.144087
H    -1.755666  3.172461  3.415846
H    -0.734916  1.996287  5.070096
H    0.201238  1.196114  3.785909
H    -1.306254  0.467949  4.396822
