35
Energy: -21190.0017009 eV PBE+vdW (tier 2 basis)
C    -0.821384  -0.079886  -0.212033
C    -0.645411  0.525000  1.160430
O    0.326203  1.238347  1.428024
H    -0.272689  0.539011  -0.927681
H    -1.865562  -0.176717  -0.529612
H    -0.390281  -1.090219  -0.202684
N    -1.558718  0.252966  2.151346
C    -2.895968  -0.340392  2.152444
C    -2.982242  -1.603797  1.260259
O    -2.108538  -2.462622  1.311049
H    -1.238431  0.604605  3.050198
H    -2.990482  -0.792733  3.154635
C    -4.031633  0.715984  2.104198
C    -4.310439  1.593613  0.866323
C    -3.199156  2.520234  0.352679
N    -2.525270  3.252272  1.417212
C    -1.690227  4.334883  1.075460
N    -0.491803  4.317484  1.776279
N    -1.969411  5.304596  0.274733
H    -3.848357  1.392712  2.953632
H    -4.968318  0.199190  2.371876
H    -5.177213  2.215255  1.137354
H    -4.634424  0.985276  0.006003
H    -3.659044  3.248306  -0.327976
H    -2.479642  1.950825  -0.261250
H    -2.053047  2.626151  2.064359
H    0.112014  5.089070  1.510025
H    -0.011795  3.415845  1.798554
H    -2.941752  5.253147  -0.040833
N    -4.106807  -1.722191  0.500090
C    -4.380072  -2.895075  -0.310181
H    -4.776018  -0.963465  0.500610
H    -5.313311  -3.383547  0.001864
H    -3.547614  -3.592648  -0.173025
H    -4.454821  -2.631800  -1.374292
