35
Energy: -21190.4481478 eV PBE+vdW (tier 2 basis)
C    -0.621857  2.085749  1.492594
C    -0.457657  1.369630  2.819386
O    -0.159775  1.965236  3.854381
H    0.331112  2.562944  1.231496
H    -1.364505  2.884150  1.610906
H    -0.930158  1.427167  0.671726
N    -0.683448  0.019937  2.784943
C    -0.402038  -0.840730  3.917060
C    0.327733  -2.080469  3.374310
O    0.131141  -2.484378  2.227697
H    -0.758138  -0.468693  1.894839
H    0.244186  -0.268158  4.601530
C    -1.679898  -1.275037  4.671087
C    -2.440320  -0.104307  5.293143
C    -3.712565  -0.552062  6.007086
N    -4.381617  0.600546  6.609186
C    -5.678384  0.556519  7.110224
N    -6.080390  -0.706152  7.544225
N    -6.506984  1.541661  7.198106
H    -1.394590  -1.993903  5.456396
H    -2.326926  -1.821378  3.966389
H    -2.704490  0.618034  4.505027
H    -1.788179  0.433709  5.998153
H    -3.446191  -1.279963  6.792624
H    -4.379143  -1.077858  5.299813
H    -4.160015  1.487409  6.168467
H    -6.951249  -0.647050  8.063134
H    -5.374017  -1.259192  8.019990
H    -6.144581  2.377526  6.731603
N    1.153460  -2.697539  4.261172
C    1.872458  -3.920922  3.954878
H    1.292547  -2.261427  5.164954
H    1.598083  -4.218871  2.937833
H    1.599451  -4.725948  4.650894
H    2.958944  -3.764178  3.998748
