35
Energy: -21190.5670495 eV PBE+vdW (tier 2 basis)
C    -2.137758  0.157894  -0.310647
C    -1.726479  -0.085078  1.129113
O    -0.669663  -0.642699  1.426887
H    -2.177329  -0.806355  -0.832214
H    -1.365210  0.762850  -0.801332
H    -3.106205  0.662363  -0.412974
N    -2.602919  0.367246  2.073118
C    -2.396328  0.127118  3.486781
C    -3.784991  0.112042  4.139724
O    -4.762770  0.609043  3.554964
H    -3.527794  0.713281  1.827012
H    -1.936500  -0.869514  3.589533
C    -1.398473  1.134802  4.121796
C    -1.659061  2.628953  3.893906
C    -2.956301  3.202927  4.481128
N    -3.146727  2.788675  5.868068
C    -4.367220  2.717333  6.535032
N    -5.488759  2.634107  5.724394
N    -4.517604  2.711580  7.821396
H    -0.417280  0.888317  3.693371
H    -1.328055  0.931409  5.198257
H    -1.648518  2.850184  2.816259
H    -0.798484  3.173567  4.315879
H    -3.811523  2.854423  3.895022
H    -2.940364  4.303655  4.382114
H    -2.383888  3.032403  6.491895
H    -6.320065  2.447565  6.275345
H    -5.423583  2.072032  4.874336
H    -3.634048  2.906626  8.300798
N    -3.927149  -0.464229  5.356400
C    -2.900387  -0.956563  6.257423
H    -4.855615  -0.334769  5.750137
H    -3.334410  -1.731654  6.899293
H    -2.502864  -0.154026  6.897427
H    -2.075497  -1.409289  5.696712
