35
Energy: -21190.1799068 eV PBE+vdW (tier 2 basis)
C    0.016905  -0.273183  1.728795
C    -0.770460  -0.593055  2.973133
O    -0.212696  -0.730066  4.071101
H    0.147525  0.817246  1.676495
H    -0.457766  -0.642879  0.815970
H    1.007776  -0.724352  1.842576
N    -2.137622  -0.719156  2.925778
C    -3.132619  -0.344179  1.925606
C    -3.226503  -1.365875  0.767887
O    -2.261698  -2.002831  0.359274
H    -2.505149  -0.950049  3.843826
H    -4.087335  -0.383875  2.472106
C    -2.995281  1.095003  1.374101
C    -3.363019  2.209541  2.366016
C    -2.400893  2.468510  3.531332
N    -1.071129  2.829326  3.038284
C    -0.012863  3.077905  3.925285
N    0.118606  2.150959  4.948078
N    0.703547  4.131846  3.713235
H    -3.656252  1.182499  0.498847
H    -1.978706  1.244476  0.990512
H    -4.362771  2.012913  2.787572
H    -3.465780  3.146210  1.792898
H    -2.313192  1.584241  4.172218
H    -2.831149  3.268926  4.163606
H    -1.095972  3.611293  2.384066
H    -0.046977  1.166650  4.715657
H    0.957402  2.275092  5.503446
H    1.529644  4.144978  4.318161
N    -4.460520  -1.500577  0.187930
C    -5.731346  -0.934414  0.611067
H    -4.467739  -2.169976  -0.575166
H    -6.502915  -1.254258  -0.097026
H    -5.720458  0.164912  0.609079
H    -6.034301  -1.280766  1.611342
