35
Energy: -21190.5354982 eV PBE+vdW (tier 2 basis)
C    -1.285963  0.033529  -0.911696
C    -0.698693  -0.362771  0.425043
O    0.230903  -1.169836  0.516315
H    -0.495535  0.506265  -1.508993
H    -2.136242  0.721357  -0.832206
H    -1.598501  -0.873255  -1.443331
N    -1.237412  0.253199  1.517259
C    -0.834179  -0.089967  2.865490
C    -2.108829  -0.265301  3.700929
O    -3.130253  0.370123  3.433126
H    -2.105025  0.779072  1.443750
H    -0.270483  -1.029909  2.788756
C    0.048201  1.005510  3.516772
C    1.336746  1.334026  2.757292
C    2.378703  0.203148  2.737216
N    3.649182  0.585181  2.142034
C    3.825134  0.639789  0.756559
N    5.000687  1.333227  0.416107
N    3.083366  0.163571  -0.175651
H    0.291380  0.694850  4.546442
H    -0.564719  1.915062  3.607910
H    1.790573  2.220129  3.229810
H    1.100127  1.627791  1.724187
H    1.991846  -0.664628  2.185820
H    2.578641  -0.137428  3.766459
H    4.127516  1.337406  2.630974
H    5.194259  1.213328  -0.574682
H    5.807887  1.081755  0.982381
H    2.208941  -0.248312  0.162816
N    -2.044220  -1.109101  4.767916
C    -0.948324  -1.991002  5.141106
H    -2.903773  -1.153502  5.305937
H    -1.272659  -2.601568  5.989898
H    -0.052022  -1.434932  5.452404
H    -0.671586  -2.671830  4.324015
