35
Energy: -21190.4768834 eV PBE+vdW (tier 2 basis)
C    -1.430251  2.207678  1.193491
C    -0.672842  1.014165  1.723313
O    0.549611  1.000684  1.867594
H    -0.733641  3.044896  1.100541
H    -2.265827  2.488111  1.847757
H    -1.836106  1.969898  0.199552
N    -1.417840  -0.096029  2.090173
C    -2.721260  -0.474327  1.543466
C    -3.928191  0.163211  2.263240
O    -5.038442  0.155738  1.736080
H    -0.807629  -0.863382  2.361589
H    -2.791553  -0.142500  0.497858
C    -2.912928  -2.007545  1.622704
C    -1.811225  -2.897678  1.030800
C    -1.730743  -3.007718  -0.504402
N    -1.554074  -1.784075  -1.268905
C    -0.549524  -0.847784  -1.101867
N    0.670521  -1.323665  -0.635915
N    -0.800686  0.375113  -1.441055
H    -3.879953  -2.229336  1.149970
H    -3.027167  -2.272035  2.686787
H    -1.972386  -3.920492  1.406700
H    -0.825371  -2.606849  1.428504
H    -2.656754  -3.465941  -0.878753
H    -0.931381  -3.726709  -0.756979
H    -2.390299  -1.352327  -1.645629
H    1.189317  -0.662741  -0.064870
H    0.706892  -2.272325  -0.281779
H    0.048216  0.944379  -1.399178
N    -3.664222  0.663860  3.499002
C    -4.675847  1.278995  4.333144
H    -2.694970  0.635989  3.800528
H    -4.444229  2.335622  4.529042
H    -4.771762  0.754650  5.294159
H    -5.629229  1.217658  3.796902
