35
Energy: -21190.1498314 eV PBE+vdW (tier 2 basis)
C    -0.206819  1.320701  -0.509727
C    0.007442  0.449551  0.710198
O    1.053555  -0.170307  0.892790
H    0.772139  1.517421  -0.954865
H    -0.718212  2.265562  -0.294153
H    -0.821694  0.784254  -1.246590
N    -1.023384  0.318933  1.616225
C    -2.319193  0.998799  1.694851
C    -3.129559  0.903973  0.377922
O    -3.542320  1.904387  -0.202387
H    -0.774060  -0.298532  2.382914
H    -2.891353  0.420737  2.441418
C    -2.235019  2.448738  2.188854
C    -1.601538  2.574319  3.575180
C    -1.359203  4.024090  4.000197
N    -0.349335  4.648533  3.162315
C    -0.118705  6.020557  3.208846
N    0.983781  6.394366  2.433406
N    -0.773817  6.918954  3.858738
H    -3.251087  2.867824  2.194965
H    -1.673322  3.053361  1.464835
H    -0.642072  2.031078  3.606145
H    -2.245438  2.097769  4.331808
H    -1.083587  4.055036  5.071525
H    -2.291379  4.600305  3.892705
H    0.492353  4.094099  3.026589
H    1.058383  7.406132  2.379712
H    1.025896  5.957384  1.516477
H    -1.455962  6.503272  4.496426
N    -3.381582  -0.349848  -0.105401
C    -3.025018  -1.643903  0.453586
H    -3.904342  -0.336590  -0.975474
H    -3.674304  -2.404582  0.005714
H    -3.191366  -1.671027  1.538870
H    -1.978300  -1.916744  0.257637
