35
Energy: -21190.3988522 eV PBE+vdW (tier 2 basis)
C    0.009802  -0.511025  -0.256338
C    0.046094  -0.252618  1.236987
O    1.099101  0.017961  1.819638
H    -0.997323  -0.692931  -0.650983
H    0.642183  -1.380253  -0.477005
H    0.446854  0.351341  -0.774150
N    -1.155734  -0.328710  1.879931
C    -1.277046  -0.241390  3.340356
C    -2.636251  -0.793248  3.792413
O    -2.737231  -1.610389  4.699828
H    -1.945148  -0.698604  1.362478
H    -0.522678  -0.887085  3.807453
C    -1.064029  1.206906  3.842827
C    -0.902766  1.332413  5.364088
C    0.487328  0.954940  5.891324
N    0.799466  -0.470178  5.771506
C    2.077111  -0.927508  5.447577
N    2.669074  -0.243352  4.388565
N    2.571518  -1.902499  6.137054
H    -1.906353  1.830428  3.501042
H    -0.165645  1.599823  3.346425
H    -1.672150  0.740589  5.885484
H    -1.084624  2.380894  5.646598
H    0.566217  1.275077  6.946138
H    1.255140  1.510265  5.337170
H    0.421530  -1.046746  6.519426
H    3.560372  -0.634961  4.105871
H    2.063865  -0.051191  3.584771
H    3.425761  -2.261529  5.700907
N    -3.721033  -0.303040  3.106430
C    -5.081954  -0.651531  3.477792
H    -3.583651  0.512286  2.518478
H    -5.717018  -0.694826  2.584771
H    -5.513307  0.067840  4.190539
H    -5.060397  -1.635084  3.957998
