35
Energy: -21190.4564663 eV PBE+vdW (tier 2 basis)
C    0.498512  -1.520332  1.236128
C    1.381143  -0.873586  2.293329
O    2.573925  -1.151923  2.388103
H    -0.014895  -0.779030  0.608699
H    -0.267990  -2.156273  1.700266
H    1.139484  -2.143754  0.607604
N    0.793557  0.011924  3.161886
C    -0.527132  0.606365  3.099848
C    -0.378806  2.142514  3.049480
O    0.596678  2.706858  3.543227
H    1.459865  0.530891  3.734882
H    -1.021834  0.271869  2.181748
C    -1.381850  0.235989  4.338627
C    -1.879273  -1.212552  4.391916
C    -3.182980  -1.501893  3.627608
N    -3.115073  -1.480893  2.169245
C    -3.288896  -0.415508  1.309094
N    -3.881328  0.736033  1.860197
N    -2.943485  -0.364148  0.067244
H    -2.242352  0.920377  4.399190
H    -0.762322  0.444822  5.223081
H    -2.072680  -1.480642  5.442654
H    -1.085632  -1.898988  4.055943
H    -3.962084  -0.799901  3.959368
H    -3.546922  -2.499801  3.915084
H    -2.614361  -2.254855  1.748191
H    -4.268409  1.294779  1.102410
H    -4.576431  0.563987  2.581915
H    -2.445676  -1.208568  -0.225521
N    -1.423096  2.778807  2.459063
C    -1.523496  4.223484  2.391592
H    -2.207630  2.207950  2.143114
H    -2.341321  4.602991  3.022343
H    -1.690731  4.554987  1.357887
H    -0.578472  4.642695  2.752808
