35
Energy: -21190.8235809 eV PBE+vdW (tier 2 basis)
C    0.231408  0.894938  -0.328751
C    0.177905  0.466819  1.122874
O    1.178132  0.042222  1.716862
H    -0.732078  1.247280  -0.716482
H    0.573068  0.046103  -0.933984
H    0.975576  1.693982  -0.435924
N    -1.029923  0.574775  1.736351
C    -1.179511  0.177271  3.124267
C    -2.620073  -0.294415  3.334808
O    -3.579788  0.360923  2.915375
H    -1.852417  0.933219  1.260418
H    -0.514343  -0.677692  3.267238
C    -0.791020  1.328256  4.091495
C    -0.231420  0.899952  5.453980
C    1.205934  0.345783  5.417948
N    1.343604  -0.978941  4.798008
C    0.706135  -2.076210  5.342503
N    0.922239  -2.237270  6.705783
N    -0.051986  -2.831936  4.602988
H    -1.672136  1.973152  4.226604
H    -0.033414  1.939274  3.578263
H    -0.894023  0.164797  5.938913
H    -0.226910  1.780210  6.116111
H    1.605715  0.311583  6.440784
H    1.855771  1.024568  4.848269
H    1.286005  -0.953964  3.777543
H    0.554817  -3.088740  7.112235
H    1.840032  -1.976546  7.052258
H    -0.280399  -3.706525  5.086024
N    -2.705770  -1.457546  4.022241
C    -3.973733  -2.079575  4.342647
H    -1.826530  -1.966937  4.205132
H    -4.134191  -2.993631  3.751512
H    -4.773778  -1.368553  4.109543
H    -4.020299  -2.340046  5.409053
