35
Energy: -21190.5540239 eV PBE+vdW (tier 2 basis)
C    1.271937  -0.115973  1.380148
C    0.367397  -0.503026  2.522372
O    0.734899  -1.239236  3.439868
H    1.939336  -0.949889  1.141822
H    1.877631  0.730548  1.742961
H    0.727077  0.196544  0.480077
N    -0.891117  0.059720  2.501317
C    -1.717047  0.100121  3.706390
C    -3.140498  -0.445844  3.498041
O    -4.034597  -0.195303  4.304429
H    -1.031560  0.810064  1.830657
H    -1.234430  -0.625735  4.380838
C    -1.731421  1.502549  4.359781
C    -1.442702  1.530506  5.865358
C    -0.107518  0.881714  6.296666
N    1.045090  1.102676  5.425345
C    1.463768  2.326689  4.955672
N    1.245394  3.389205  5.837298
N    1.976700  2.413338  3.767262
H    -2.711626  1.967386  4.190552
H    -0.981417  2.118610  3.844593
H    -1.453140  2.582986  6.182110
H    -2.256328  1.029316  6.411345
H    -0.215584  -0.209770  6.348704
H    0.118348  1.197210  7.329402
H    1.219959  0.354332  4.757307
H    1.321619  3.166805  6.825904
H    1.732456  4.243041  5.591159
H    2.374695  3.342131  3.606175
N    -3.303332  -1.238799  2.403929
C    -4.543810  -1.927267  2.111921
H    -2.484302  -1.395752  1.826476
H    -4.434328  -3.016560  2.216443
H    -4.890436  -1.702450  1.093961
H    -5.293027  -1.578134  2.830853
