35
Energy: -21190.4430404 eV PBE+vdW (tier 2 basis)
C    0.905636  1.075668  0.753124
C    0.473223  0.338626  2.001994
O    1.258611  -0.365215  2.650517
H    1.330430  0.354580  0.044361
H    1.703784  1.779550  1.021046
H    0.094642  1.627200  0.262472
N    -0.829064  0.496511  2.365522
C    -1.406275  -0.053514  3.591015
C    -1.820610  -1.550171  3.439958
O    -2.973794  -1.942161  3.624374
H    -1.435977  1.033951  1.757688
H    -0.589392  -0.050228  4.330255
C    -2.544916  0.831889  4.128143
C    -3.521199  1.443985  3.111545
C    -4.348939  0.454157  2.290976
N    -5.191530  1.170199  1.342290
C    -5.863117  0.564711  0.284712
N    -5.454907  -0.737072  0.002252
N    -6.738125  1.125973  -0.481678
H    -2.087718  1.659848  4.688278
H    -3.105548  0.223939  4.850795
H    -2.995258  2.125304  2.420235
H    -4.206492  2.097494  3.676195
H    -4.921199  -0.197487  2.975267
H    -3.687861  -0.208845  1.717214
H    -5.674756  1.982302  1.710651
H    -6.046608  -1.148784  -0.712609
H    -5.301527  -1.352720  0.795213
H    -6.852516  2.116824  -0.251369
N    -0.775774  -2.355527  3.129086
C    -0.915833  -3.784418  2.932289
H    0.141286  -1.908516  3.025251
H    -0.229137  -4.336259  3.588544
H    -0.706813  -4.067474  1.890273
H    -1.945929  -4.064552  3.176195
