35
Energy: -21190.3419095 eV PBE+vdW (tier 2 basis)
C    0.304391  -0.342523  1.479188
C    -0.066190  0.971917  2.150091
O    0.785264  1.809402  2.441665
H    -0.176360  -0.440474  0.494911
H    0.007043  -1.212352  2.080737
H    1.389058  -0.356527  1.345262
N    -1.392320  1.190750  2.409183
C    -2.523641  0.335511  2.114998
C    -3.748579  1.260479  1.951807
O    -3.729987  2.411446  2.394889
H    -1.642291  2.115798  2.761066
H    -2.347929  -0.195170  1.166541
C    -2.801074  -0.723381  3.212721
C    -3.147863  -0.133989  4.582514
C    -3.747345  -1.166356  5.545857
N    -5.047663  -1.678105  5.101848
C    -5.211003  -2.816925  4.331825
N    -4.389965  -3.883179  4.699438
N    -6.063067  -2.800428  3.356404
H    -1.914678  -1.369229  3.300211
H    -3.617232  -1.372582  2.868212
H    -3.867387  0.693475  4.469347
H    -2.253696  0.312239  5.043169
H    -3.870847  -0.712083  6.540110
H    -3.064597  -2.017650  5.666554
H    -5.690964  -0.957119  4.782252
H    -4.611801  -4.758573  4.239666
H    -4.226743  -3.993547  5.696262
H    -6.223102  -3.741150  2.986334
N    -4.855746  0.751867  1.348348
C    -5.086001  -0.570716  0.781099
H    -5.636385  1.401934  1.353213
H    -4.157492  -0.977761  0.363052
H    -5.800802  -0.476807  -0.045465
H    -5.489824  -1.280759  1.521671
