35
Energy: -21189.7816818 eV PBE+vdW (tier 2 basis)
C    0.017731  0.092874  -0.109375
C    0.141975  0.087655  1.402480
O    1.235824  0.094935  1.960328
H    -0.582672  0.937317  -0.472791
H    -0.446342  -0.835801  -0.468481
H    1.025051  0.170113  -0.526192
N    -1.011777  0.071015  2.152178
C    -2.414196  0.020473  1.737783
C    -2.693310  -1.277755  0.921328
O    -2.427695  -2.348552  1.461360
H    -0.819651  -0.057540  3.140116
H    -2.958130  -0.213383  2.666025
C    -2.949593  1.384781  1.266926
C    -2.828652  2.456705  2.352148
C    -3.294681  3.834634  1.864916
N    -3.152798  4.890967  2.860691
C    -2.133267  5.835198  2.869633
N    -0.971926  5.430928  2.208333
N    -2.177114  7.009995  3.400782
H    -4.007889  1.271470  0.985312
H    -2.420404  1.728423  0.366822
H    -1.781839  2.522448  2.684855
H    -3.413797  2.168199  3.240435
H    -4.354045  3.781886  1.568834
H    -2.730264  4.119664  0.963832
H    -4.003651  5.205657  3.308620
H    -0.235396  6.117456  2.343905
H    -0.655107  4.486044  2.408984
H    -3.123218  7.246112  3.712741
N    -3.263877  -1.273008  -0.325036
C    -3.540392  -0.220209  -1.292046
H    -3.408448  -2.226511  -0.644956
H    -2.675836  0.434307  -1.456166
H    -4.404682  0.398075  -1.013354
H    -3.771624  -0.701710  -2.248192
