35
Energy: -21190.7770702 eV PBE+vdW (tier 2 basis)
C    -0.292541  1.254600  -0.658521
C    -0.738252  1.448771  0.780706
O    -0.893288  2.570336  1.268834
H    0.667525  1.766169  -0.800783
H    -1.020959  1.736378  -1.322888
H    -0.186963  0.201851  -0.947409
N    -0.972445  0.299116  1.475186
C    -1.252865  0.288183  2.899446
C    -0.880768  -1.133500  3.383685
O    -0.336209  -1.936537  2.612382
H    -0.623503  -0.599038  1.135244
H    -0.566186  0.995112  3.398327
C    -2.687217  0.765168  3.213848
C    -3.819105  -0.174200  2.760200
C    -4.414592  -1.053245  3.868993
N    -5.046467  -0.288275  4.941815
C    -4.473894  -0.049143  6.161036
N    -5.345294  0.546047  7.078981
N    -3.248525  -0.395900  6.416639
H    -2.781541  1.740026  2.719607
H    -2.768257  0.968722  4.290579
H    -3.465956  -0.829965  1.948000
H    -4.635328  0.421939  2.324757
H    -3.651446  -1.695878  4.322737
H    -5.178980  -1.717902  3.440262
H    -6.044541  -0.141448  4.873628
H    -4.879504  0.967134  7.875132
H    -6.044219  1.169902  6.685016
H    -2.979201  -0.120713  7.362200
N    -1.145684  -1.422427  4.673860
C    -0.859366  -2.743489  5.205307
H    -1.797089  -0.846441  5.233824
H    0.222471  -2.907657  5.306162
H    -1.254705  -3.533516  4.550451
H    -1.329137  -2.821027  6.191704
