35
Energy: -21190.6016699 eV PBE+vdW (tier 2 basis)
C    0.373531  1.364684  2.926399
C    -0.794159  0.809730  3.712719
O    -1.375932  1.481161  4.575914
H    0.798324  0.650501  2.211207
H    1.154428  1.678630  3.629963
H    0.041519  2.260307  2.386548
N    -1.163573  -0.461672  3.414521
C    -2.240546  -1.134183  4.112541
C    -2.013057  -2.639742  3.929690
O    -1.397085  -3.079414  2.957549
H    -0.672738  -1.026942  2.724733
H    -2.159257  -0.868455  5.177805
C    -3.634935  -0.698399  3.581985
C    -4.790090  -0.805540  4.584578
C    -4.581736  -0.004767  5.879289
N    -4.212123  1.382146  5.627213
C    -4.667898  2.448018  6.394228
N    -5.974564  2.303560  6.881182
N    -4.013337  3.523537  6.671845
H    -3.863813  -1.270500  2.671143
H    -3.542406  0.352089  3.275176
H    -4.991005  -1.857988  4.845458
H    -5.698782  -0.437724  4.084222
H    -3.814027  -0.495617  6.511978
H    -5.501897  -0.021580  6.474464
H    -3.243778  1.505366  5.317200
H    -6.645757  1.971283  6.192631
H    -6.276130  3.174576  7.309511
H    -3.035564  3.438906  6.378586
N    -2.568446  -3.425635  4.889773
C    -2.525316  -4.876138  4.848540
H    -3.013463  -2.971769  5.678829
H    -1.969547  -5.281101  5.705297
H    -2.013629  -5.165961  3.925307
H    -3.538213  -5.301368  4.846979
