35
Energy: -21190.2643146 eV PBE+vdW (tier 2 basis)
C    -0.057764  -0.209182  -0.015530
C    -0.480292  0.108362  1.405542
O    0.339634  0.182551  2.322210
H    -0.236828  -1.275034  -0.213380
H    1.012782  -0.005348  -0.104128
H    -0.604269  0.363590  -0.775290
N    -1.815675  0.273812  1.664722
C    -2.950261  0.408612  0.763108
C    -3.068927  -0.815417  -0.177741
O    -2.863693  -1.952867  0.233527
H    -2.000702  0.495055  2.637753
H    -3.844133  0.304354  1.401437
C    -3.042029  1.804593  0.104995
C    -2.867251  2.992890  1.064202
C    -3.911314  3.125771  2.184520
N    -3.679649  2.259139  3.340702
C    -4.591822  1.285036  3.710159
N    -4.345262  0.765879  4.985538
N    -5.548184  0.949360  2.911066
H    -4.030359  1.898489  -0.375683
H    -2.281544  1.901202  -0.687429
H    -2.914591  3.912908  0.461101
H    -1.859211  2.971335  1.505186
H    -4.917731  2.893394  1.810192
H    -3.922821  4.168944  2.534619
H    -3.168451  2.681783  4.106820
H    -3.370356  0.739516  5.273931
H    -4.810969  -0.116347  5.168067
H    -6.095926  0.173868  3.288066
N    -3.460275  -0.548703  -1.458678
C    -3.693414  -1.595633  -2.434453
H    -3.600158  0.414510  -1.734174
H    -3.007260  -1.505332  -3.288586
H    -4.727633  -1.570849  -2.805459
H    -3.515082  -2.554237  -1.936005
