35
Energy: -21190.0692577 eV PBE+vdW (tier 2 basis)
C    -0.034409  2.393329  -0.695745
C    0.439210  1.865221  0.638015
O    1.501810  2.258622  1.132812
H    0.433651  3.368499  -0.855063
H    -1.120562  2.490377  -0.787741
H    0.298271  1.700586  -1.481070
N    -0.276825  0.894888  1.294286
C    -1.676195  0.482263  1.202080
C    -2.093521  0.221161  -0.268862
O    -1.405716  -0.494895  -0.987650
H    0.206664  0.598895  2.138907
H    -1.700151  -0.537732  1.619490
C    -2.613290  1.338796  2.091719
C    -2.565869  2.865188  1.882955
C    -1.535055  3.572699  2.776178
N    -1.251420  4.917653  2.289016
C    -0.084389  5.622659  2.624307
N    1.045186  4.842841  2.791377
N    -0.005701  6.904188  2.770836
H    -2.356084  1.118741  3.140527
H    -3.638904  0.952967  1.979662
H    -3.562066  3.289986  2.083328
H    -2.337194  3.116978  0.837723
H    -0.595185  3.014421  2.786099
H    -1.899419  3.576026  3.822501
H    -2.059264  5.534091  2.291285
H    1.184374  4.039491  2.175929
H    1.874071  5.418844  2.892738
H    -0.933130  7.337763  2.756929
N    -3.270861  0.777934  -0.673281
C    -3.805668  0.578804  -2.007693
H    -3.766504  1.389742  -0.038187
H    -4.830200  0.185912  -1.965616
H    -3.161845  -0.145696  -2.516666
H    -3.806929  1.516662  -2.581273
