35
Energy: -21189.9861664 eV PBE+vdW (tier 2 basis)
C    0.471056  0.850089  0.602572
C    0.080007  -0.090612  1.725327
O    0.938971  -0.743036  2.319540
H    0.193015  1.887818  0.822404
H    0.009178  0.583987  -0.356253
H    1.557586  0.785179  0.500866
N    -1.235304  -0.223006  2.126813
C    -2.556184  0.230084  1.673246
C    -3.447759  -0.951422  1.211620
O    -4.552910  -1.107007  1.735060
H    -1.282304  -0.880186  2.903048
H    -3.088351  0.577555  2.572166
C    -2.568759  1.380109  0.660850
C    -3.977576  1.882240  0.330483
C    -3.987991  2.879509  -0.838031
N    -3.597603  2.295599  -2.127080
C    -2.274002  2.059565  -2.494849
N    -1.381804  3.058792  -2.113254
N    -1.823051  1.031915  -3.137085
H    -2.074175  1.071011  -0.265653
H    -1.976819  2.213233  1.065379
H    -4.429724  2.361819  1.213185
H    -4.639741  1.038187  0.080511
H    -3.322387  3.725618  -0.622921
H    -4.997674  3.297967  -0.955934
H    -4.204236  1.532837  -2.415873
H    -0.475273  2.918426  -2.548956
H    -1.723234  4.009981  -2.214678
H    -2.548504  0.316566  -3.241433
N    -3.020308  -1.793871  0.225427
C    -1.767487  -1.836430  -0.518200
H    -3.688828  -2.538389  0.053179
H    -1.858007  -2.616359  -1.281770
H    -0.909135  -2.083438  0.120559
H    -1.564171  -0.894534  -1.044111
