35
Energy: -21190.5947233 eV PBE+vdW (tier 2 basis)
C    1.343573  0.643205  0.837584
C    0.818338  -0.149804  2.009543
O    1.560359  -0.834065  2.735285
H    0.592712  0.787057  0.050203
H    2.220421  0.138424  0.421185
H    1.646972  1.633055  1.208597
N    -0.514625  -0.042893  2.246528
C    -1.174042  -0.585890  3.434168
C    -1.606273  -2.059361  3.197629
O    -2.783233  -2.398460  3.096941
H    -1.080356  0.490913  1.595869
H    -0.406952  -0.595015  4.222406
C    -2.353144  0.291849  3.850686
C    -1.974073  1.730010  4.229556
C    -1.156566  1.878433  5.542586
N    0.120652  2.584777  5.403506
C    1.208030  1.979895  4.767186
N    1.626407  0.779370  5.318131
N    1.781304  2.594818  3.783627
H    -2.861787  -0.205778  4.688995
H    -3.094450  0.295893  3.036510
H    -1.393289  2.189734  3.415072
H    -2.898856  2.318569  4.310467
H    -0.960364  0.888873  5.979641
H    -1.747604  2.418684  6.294229
H    0.009895  3.519902  5.014786
H    1.944525  0.075881  4.655118
H    1.110012  0.419008  6.111642
H    2.671283  2.137788  3.559767
N    -0.545432  -2.907653  3.122295
C    -0.691329  -4.314960  2.807098
H    0.384595  -2.482405  3.131976
H    -0.119365  -4.931045  3.513481
H    -0.347227  -4.539856  1.786287
H    -1.753156  -4.571774  2.883453
