35
Energy: -21190.4005396 eV PBE+vdW (tier 2 basis)
C    -1.617338  -1.256993  0.127667
C    -0.923934  -0.996150  1.450804
O    0.192542  -1.435112  1.706813
H    -1.467984  -2.305019  -0.153871
H    -1.140376  -0.635863  -0.642723
H    -2.691133  -1.031187  0.141184
N    -1.642851  -0.236194  2.349050
C    -1.031357  0.323359  3.550675
C    -1.687894  -0.191727  4.851042
O    -1.612579  0.439624  5.904384
H    -2.497864  0.198514  2.017147
H    -0.004903  -0.082847  3.546240
C    -0.975650  1.860915  3.498681
C    0.184323  2.462857  4.298128
C    0.207064  3.996478  4.275487
N    0.330713  4.586514  2.940944
C    -0.744127  4.884798  2.118431
N    -1.863257  5.392084  2.788223
N    -0.641586  4.664685  0.849075
H    -1.928330  2.279668  3.858861
H    -0.874332  2.150765  2.442964
H    1.138216  2.080163  3.896034
H    0.124064  2.131734  5.344351
H    1.046060  4.356036  4.889983
H    -0.709434  4.381708  4.741097
H    1.088948  4.206367  2.378702
H    -2.563726  5.782439  2.168022
H    -1.662417  6.005654  3.573540
H    -1.426034  5.074540  0.335256
N    -2.311294  -1.396429  4.739730
C    -2.893195  -2.087022  5.872102
H    -2.307767  -1.835953  3.826408
H    -2.356031  -3.021191  6.090763
H    -3.951743  -2.321079  5.692886
H    -2.815792  -1.423135  6.739920
