35
Energy: -21190.7356752 eV PBE+vdW (tier 2 basis)
C    1.651414  -2.018775  0.948799
C    1.162597  -1.264169  2.170903
O    1.974560  -0.766523  2.970781
H    0.865949  -2.613305  0.467435
H    2.479878  -2.670809  1.248913
H    2.048960  -1.297025  0.222292
N    -0.185668  -1.166582  2.278587
C    -0.962494  -0.695057  3.436746
C    -0.827232  0.791613  3.847056
O    -1.849513  1.407633  4.163559
H    -0.729098  -1.811445  1.682697
H    -2.005469  -0.749086  3.098071
C    -0.842934  -1.616550  4.674811
C    -1.530728  -2.977830  4.478141
C    -0.720516  -4.021994  3.676048
N    -1.536002  -4.933421  2.881367
C    -2.077759  -4.537503  1.680105
N    -2.985023  -5.465475  1.162132
N    -1.772837  -3.399167  1.135382
H    -1.330168  -1.092945  5.509475
H    0.215643  -1.735574  4.951218
H    -2.487224  -2.809504  3.960244
H    -1.785159  -3.403803  5.460465
H    -0.106375  -4.632110  4.352453
H    -0.030633  -3.534588  2.982810
H    -2.098786  -5.597158  3.403061
H    -3.267524  -5.287998  0.204864
H    -2.749920  -6.441919  1.316913
H    -2.185662  -3.320536  0.203971
N    0.422627  1.304333  3.882599
C    0.686436  2.668799  4.288608
H    1.194607  0.662613  3.643997
H    1.293938  3.187863  3.534249
H    1.220798  2.705584  5.250060
H    -0.272186  3.186917  4.400869
