35
Energy: -21190.5273809 eV PBE+vdW (tier 2 basis)
C    0.754721  0.039211  0.784376
C    0.073996  -0.544012  2.012409
O    0.520031  -1.537884  2.584202
H    0.929912  -0.767885  0.063494
H    1.735336  0.431774  1.083721
H    0.187454  0.840798  0.295369
N    -1.059533  0.117180  2.407030
C    -1.822231  -0.139416  3.637558
C    -1.070493  0.459947  4.858464
O    -1.295127  1.630749  5.185127
H    -1.250149  1.001789  1.952310
H    -2.712727  0.500002  3.561167
C    -2.269538  -1.599930  3.762114
C    -3.194200  -1.846544  4.964459
C    -3.095125  -3.274324  5.522477
N    -1.794779  -3.566470  6.142627
C    -0.674022  -3.906256  5.391828
N    -0.899359  -4.894608  4.444136
N    0.438784  -3.281174  5.608073
H    -1.380827  -2.236064  3.811414
H    -2.779875  -1.882597  2.829046
H    -4.242123  -1.638106  4.695971
H    -2.950689  -1.147261  5.781266
H    -3.274359  -4.009847  4.727226
H    -3.872909  -3.433004  6.283473
H    -1.522235  -2.865672  6.829823
H    -0.081204  -5.207381  3.936525
H    -1.539772  -5.637889  4.702484
H    1.217057  -3.704098  5.096648
N    -0.186042  -0.334710  5.497576
C    0.582150  0.150318  6.628090
H    0.009341  -1.296920  5.197463
H    1.064644  -0.711441  7.101414
H    -0.071456  0.656087  7.351029
H    1.353336  0.871651  6.317937
