35
Energy: -21190.3997707 eV PBE+vdW (tier 2 basis)
C    0.089323  1.316233  0.105923
C    0.387272  0.506060  1.343047
O    1.527681  0.140298  1.623758
H    0.675814  0.895203  -0.718927
H    0.453195  2.344070  0.275067
H    -0.968066  1.347516  -0.175290
N    -0.666327  0.129493  2.169084
C    -1.961888  0.802137  2.347223
C    -2.981167  0.523331  1.213999
O    -3.939808  1.267561  1.023650
H    -0.313224  -0.364974  2.984620
H    -2.410751  0.307309  3.225760
C    -1.850230  2.302263  2.667416
C    -1.078771  2.556426  3.964080
C    -0.583832  4.002995  4.142900
N    0.279751  4.516573  3.083235
C    1.403953  3.863405  2.598425
N    2.185871  3.208740  3.543613
N    1.676453  3.967450  1.338559
H    -2.866967  2.712755  2.720308
H    -1.356128  2.809373  1.827133
H    -1.704351  2.298000  4.834346
H    -0.204973  1.887974  4.006819
H    -0.073622  4.091525  5.117079
H    -1.438579  4.691174  4.200618
H    -0.191023  4.995882  2.322660
H    2.658474  2.379525  3.200093
H    1.805214  3.095791  4.476042
H    2.598356  3.574684  1.131097
N    -2.759593  -0.628516  0.526496
C    -3.615319  -1.076543  -0.553077
H    -1.902811  -1.128796  0.739798
H    -3.972482  -2.099637  -0.373238
H    -3.090378  -1.049637  -1.519040
H    -4.475182  -0.399665  -0.599263
