35
Energy: -21190.4819311 eV PBE+vdW (tier 2 basis)
C    -0.158502  0.144546  0.143194
C    -0.237523  -0.137864  1.628849
O    0.475988  -0.971164  2.192962
H    0.822022  0.582315  -0.085613
H    -0.946617  0.816790  -0.217779
H    -0.222877  -0.808706  -0.394906
N    -1.146534  0.607658  2.322513
C    -1.375545  0.348637  3.726949
C    -2.018532  -1.042395  3.917686
O    -2.861240  -1.487190  3.131180
H    -1.824171  1.197257  1.843603
H    -0.386590  0.332968  4.204529
C    -2.192046  1.491734  4.376899
C    -3.734586  1.473719  4.362282
C    -4.478343  1.206480  3.041397
N    -3.872989  1.829722  1.861480
C    -3.898826  1.231022  0.586594
N    -3.947875  -0.145422  0.591284
N    -3.828636  1.872832  -0.534590
H    -1.828499  2.421071  3.913554
H    -1.892856  1.553885  5.433606
H    -4.050671  2.446413  4.772239
H    -4.099344  0.722320  5.079895
H    -5.526881  1.531916  3.159693
H    -4.507953  0.130186  2.865331
H    -4.007231  2.834769  1.797506
H    -3.785329  -0.537550  -0.328802
H    -3.516306  -0.654740  1.367278
H    -3.910218  2.883257  -0.392786
N    -1.652969  -1.742339  5.023571
C    -0.512677  -1.478746  5.891179
H    -2.076769  -2.664227  5.068823
H    -0.617167  -0.522788  6.422068
H    0.433948  -1.481313  5.331016
H    -0.468646  -2.268723  6.648195
