35
Energy: -21190.0523077 eV PBE+vdW (tier 2 basis)
C    0.342491  -0.147876  0.185126
C    -0.019501  0.007181  1.652661
O    0.785105  0.415157  2.485817
H    0.813898  0.780017  -0.159850
H    -0.513381  -0.379173  -0.461472
H    1.088228  -0.947538  0.087448
N    -1.315033  -0.317197  1.966459
C    -1.791117  -0.419631  3.349771
C    -3.137698  -1.157318  3.465158
O    -3.330761  -1.860268  4.455405
H    -1.842160  -0.818194  1.261425
H    -1.101809  -1.079819  3.897956
C    -1.808776  0.903495  4.156693
C    -2.676080  2.056462  3.636519
C    -2.021403  2.891352  2.524418
N    -2.918639  3.904241  1.960498
C    -3.785106  3.625831  0.906136
N    -3.227192  2.818531  -0.093330
N    -4.998595  4.038574  0.761620
H    -0.766725  1.234360  4.261557
H    -2.148501  0.615886  5.161720
H    -2.896807  2.727435  4.482783
H    -3.654012  1.692014  3.289972
H    -1.690676  2.244066  1.706941
H    -1.120328  3.387732  2.914405
H    -3.359040  4.494015  2.661731
H    -3.840285  2.802392  -0.903857
H    -2.271291  3.060078  -0.343093
H    -5.339923  4.492213  1.613741
N    -4.093404  -1.082228  2.479977
C    -4.339926  -0.104727  1.424526
H    -4.890457  -1.663341  2.731256
H    -3.471621  0.530985  1.244362
H    -5.179165  0.558852  1.680349
H    -4.585960  -0.618132  0.484002
