35
Energy: -21190.10923 eV PBE+vdW (tier 2 basis)
C    -0.882996  -0.126465  -0.251725
C    -0.658672  -1.100446  0.887962
O    -0.161417  -2.213028  0.719583
H    -1.928273  0.207890  -0.305228
H    -0.614180  -0.628012  -1.184571
H    -0.262537  0.773682  -0.134920
N    -1.026260  -0.684541  2.144824
C    -1.547643  0.615650  2.534842
C    -0.580386  1.823454  2.460487
O    -1.069265  2.942876  2.309017
H    -0.863632  -1.385398  2.860693
H    -2.328047  0.904107  1.815170
C    -2.242093  0.584847  3.913150
C    -1.376829  0.418579  5.172887
C    -0.899198  -1.011692  5.475954
N    -0.319269  -1.174363  6.800893
C    -1.148157  -1.299808  7.905802
N    -0.426008  -1.291939  9.108864
N    -2.426190  -1.379705  7.762930
H    -3.013464  -0.201045  3.886010
H    -2.777217  1.540144  3.992200
H    -0.516576  1.107353  5.138779
H    -1.989082  0.729087  6.030763
H    -1.753241  -1.700155  5.421298
H    -0.141606  -1.355647  4.754254
H    0.540199  -0.662662  6.974284
H    -0.984255  -1.533569  9.920559
H    0.447557  -1.812524  9.085424
H    -2.887596  -1.592704  8.649891
N    0.775722  1.669559  2.552857
C    1.613571  0.507267  2.820648
H    1.248123  2.564779  2.469804
H    1.277910  -0.051104  3.702816
H    2.626107  0.870453  3.030068
H    1.669224  -0.186659  1.971797
