35
Energy: -21190.2043009 eV PBE+vdW (tier 2 basis)
C    -0.316471  -0.029425  -0.069015
C    -0.212199  -0.019280  1.445303
O    0.865445  -0.002014  2.033458
H    0.264576  -0.874844  -0.457525
H    0.143009  0.887460  -0.459061
H    -1.345080  -0.098079  -0.444826
N    -1.406145  -0.043305  2.116877
C    -1.485192  0.050506  3.564844
C    -1.138998  -1.201999  4.406826
O    -0.913695  -1.027464  5.603957
H    -2.265572  -0.054140  1.581223
H    -0.714227  0.766536  3.883463
C    -2.861017  0.583661  4.000466
C    -4.035206  -0.352146  3.700240
C    -5.375455  0.224450  4.183643
N    -6.540632  -0.569825  3.835821
C    -7.051165  -0.588420  2.542458
N    -8.017865  -1.584184  2.366478
N    -6.739366  0.169465  1.546845
H    -3.019664  1.560631  3.516173
H    -2.802312  0.768915  5.081847
H    -3.869072  -1.326120  4.187380
H    -4.119396  -0.556774  2.620227
H    -5.521511  1.238229  3.779215
H    -5.358742  0.336279  5.277606
H    -6.626559  -1.451626  4.332170
H    -8.480938  -1.476577  1.468436
H    -8.685004  -1.667561  3.129226
H    -5.948073  0.778320  1.766081
N    -1.119073  -2.461361  3.878842
C    -1.359440  -2.966616  2.535418
H    -0.831224  -3.140091  4.577414
H    -2.308548  -2.604323  2.123328
H    -1.426558  -4.058744  2.598960
H    -0.547133  -2.716157  1.838725
