35
Energy: -21190.904384 eV PBE+vdW (tier 2 basis)
C    0.382652  -1.022702  0.803645
C    0.295810  -0.350158  2.156672
O    0.942834  -0.765219  3.133123
H    0.122447  -2.082746  0.914829
H    1.422758  -0.977418  0.456093
H    -0.267826  -0.559639  0.052779
N    -0.525799  0.727221  2.220409
C    -0.688069  1.517947  3.437772
C    -1.706168  0.858330  4.413214
O    -2.791411  1.365459  4.732678
H    -1.155286  0.900052  1.425463
H    0.280473  1.448826  3.956853
C    -0.966824  3.009099  3.146148
C    -1.695249  3.385218  1.845434
C    -3.217793  3.173572  1.787284
N    -3.734071  1.849983  2.106530
C    -3.562312  0.777504  1.274242
N    -4.151835  -0.387523  1.765333
N    -2.851480  0.869559  0.185811
H    0.009435  3.512865  3.122923
H    -1.510919  3.416077  4.011142
H    -1.227081  2.890503  0.983666
H    -1.532935  4.462566  1.682895
H    -3.563078  3.437503  0.777993
H    -3.704961  3.861456  2.493570
H    -3.750251  1.638090  3.108955
H    -4.184185  -1.163406  1.115091
H    -5.010405  -0.264335  2.293211
H    -2.948464  0.025209  -0.384077
N    -1.272155  -0.323826  4.898063
C    -2.094661  -1.158549  5.751657
H    -0.381004  -0.676215  4.526682
H    -2.868533  -1.691791  5.177418
H    -2.598470  -0.541161  6.504732
H    -1.456857  -1.893714  6.253794
