35
Energy: -21190.6003905 eV PBE+vdW (tier 2 basis)
C    -2.899052  3.453860  2.115149
C    -2.033364  2.214187  2.066635
O    -1.092022  2.107657  1.266293
H    -3.145118  3.761570  1.093094
H    -2.312568  4.259579  2.579320
H    -3.821668  3.320994  2.692688
N    -2.328601  1.261045  2.982518
C    -1.584344  0.031123  3.162630
C    -2.616165  -1.096379  3.318970
O    -3.704705  -0.894163  3.856333
H    -3.179561  1.328113  3.535348
H    -0.983093  -0.114281  2.252801
C    -0.664892  0.062944  4.423312
C    0.830931  0.288762  4.164264
C    1.223999  1.573680  3.432260
N    0.698220  2.756824  4.107501
C    0.886070  4.043459  3.601608
N    0.878784  4.131992  2.216847
N    1.063645  5.003661  4.450645
H    -0.772638  -0.887823  4.966192
H    -1.056614  0.842394  5.090638
H    1.238832  -0.557112  3.587074
H    1.344869  0.252685  5.139567
H    0.824740  1.546743  2.410930
H    2.326935  1.604035  3.345108
H    0.874274  2.783495  5.110200
H    0.840332  5.079293  1.860926
H    0.279000  3.476382  1.707702
H    1.074598  5.913088  3.981311
N    -2.206414  -2.314236  2.871413
C    -3.001719  -3.519838  3.017284
H    -1.309367  -2.372325  2.404369
H    -3.930868  -3.241969  3.525287
H    -2.475249  -4.273145  3.619557
H    -3.247208  -3.953294  2.038229
