35
Energy: -21190.0638781 eV PBE+vdW (tier 2 basis)
C    0.462086  0.559487  0.455678
C    0.091696  0.212922  1.878352
O    0.942476  0.038441  2.749481
H    1.536313  0.386136  0.346531
H    0.265607  1.616913  0.226827
H    -0.087352  -0.055996  -0.264887
N    -1.242451  0.117273  2.242329
C    -2.493993  0.182347  1.500339
C    -2.739353  -1.065723  0.619116
O    -1.833072  -1.667563  0.053474
H    -1.321504  -0.161531  3.215183
H    -3.269115  0.199454  2.282055
C    -2.683076  1.464867  0.659944
C    -2.632557  2.736180  1.508887
C    -2.769660  4.039768  0.707758
N    -1.645637  4.334869  -0.179624
C    -1.486775  3.767538  -1.437999
N    -2.671350  3.665857  -2.176249
N    -0.310299  3.381369  -1.799427
H    -3.651864  1.402434  0.140605
H    -1.925435  1.493064  -0.132258
H    -1.689643  2.762522  2.077226
H    -3.438739  2.710456  2.262639
H    -2.871647  4.882588  1.407315
H    -3.691453  4.019169  0.110559
H    -0.741957  4.362289  0.288062
H    -2.524023  3.406071  -3.145220
H    -3.308749  4.452559  -2.083552
H    -0.281156  3.127038  -2.790071
N    -4.046085  -1.453112  0.468401
C    -5.230691  -0.935359  1.132534
H    -4.152142  -2.264159  -0.132726
H    -5.398134  0.130210  0.918069
H    -5.195208  -1.071902  2.224369
H    -6.102002  -1.484057  0.759568
