35
Energy: -21190.0565376 eV PBE+vdW (tier 2 basis)
C    -0.867871  -0.332493  -0.595286
C    -0.583644  0.050135  0.849421
O    0.264114  0.895233  1.130117
H    0.036570  -0.788810  -1.017614
H    -1.069199  0.581786  -1.166143
H    -1.706186  -1.028544  -0.723641
N    -1.347460  -0.617868  1.771291
C    -1.288169  -0.614726  3.239289
C    -2.464346  0.129771  3.921079
O    -3.144680  -0.482025  4.750350
H    -2.019366  -1.271985  1.387939
H    -1.498457  -1.653081  3.527145
C    0.080481  -0.242236  3.846951
C    0.128059  -0.410988  5.371924
C    0.029440  -1.858660  5.856198
N    -0.030833  -1.914795  7.308712
C    0.489552  -2.992511  7.999039
N    0.286411  -2.917308  9.385376
N    1.169006  -3.904424  7.388765
H    0.349827  0.785763  3.585296
H    0.841399  -0.880717  3.372609
H    -0.674840  0.186722  5.834073
H    1.073352  0.014508  5.738481
H    0.912174  -2.438455  5.558651
H    -0.848968  -2.362549  5.417673
H    -0.841452  -1.466646  7.722559
H    0.250681  -3.818641  9.847454
H    -0.443816  -2.289945  9.709397
H    1.584128  -4.557030  8.057623
N    -2.717852  1.438285  3.643554
C    -2.098535  2.343814  2.690260
H    -3.529539  1.779641  4.151215
H    -2.068748  3.352515  3.121061
H    -2.658890  2.387204  1.742766
H    -1.072217  2.043243  2.458226
