35
Energy: -21190.1594888 eV PBE+vdW (tier 2 basis)
C    0.038058  1.440266  1.113928
C    0.115436  0.178860  1.949337
O    1.083177  -0.090885  2.658324
H    -0.717838  2.131760  1.512715
H    -0.240633  1.230241  0.072566
H    1.015835  1.927464  1.142792
N    -0.959698  -0.677128  1.887114
C    -2.242137  -0.462099  1.232103
C    -3.076388  0.714050  1.792495
O    -3.644526  1.477479  1.011326
H    -0.851412  -1.500744  2.472785
H    -2.074112  -0.171171  0.184617
C    -3.044872  -1.775860  1.232830
C    -4.339482  -1.718635  0.422493
C    -5.114071  -3.041017  0.494875
N    -6.309984  -3.075303  -0.330895
C    -6.212089  -3.347091  -1.684724
N    -7.438880  -3.298844  -2.357467
N    -5.081646  -3.696134  -2.199285
H    -3.265425  -2.071791  2.273082
H    -2.389756  -2.558415  0.817735
H    -4.106828  -1.507505  -0.630858
H    -4.977561  -0.895216  0.778687
H    -5.412337  -3.254135  1.533626
H    -4.475915  -3.865909  0.151941
H    -7.063064  -2.457939  -0.048877
H    -7.369352  -3.065888  -3.341092
H    -8.204749  -2.817741  -1.896152
H    -5.194835  -3.984989  -3.173242
N    -3.192899  0.885751  3.144195
C    -2.621462  0.136826  4.255398
H    -3.746518  1.705396  3.373402
H    -1.545877  0.320368  4.385302
H    -2.781442  -0.943232  4.146015
H    -3.136898  0.447727  5.171110
