35
Energy: -21190.3104161 eV PBE+vdW (tier 2 basis)
C    0.074441  -0.614460  2.479109
C    -0.649124  -1.912280  2.776021
O    -0.156475  -2.811126  3.454381
H    0.121596  -0.411532  1.400314
H    -0.432415  0.242029  2.946440
H    1.087641  -0.691012  2.881102
N    -1.909569  -2.056358  2.242483
C    -2.696324  -1.051517  1.548314
C    -3.206558  0.109690  2.425509
O    -3.233141  1.258136  1.960416
H    -2.344226  -2.946755  2.469050
H    -2.068181  -0.562063  0.793092
C    -3.862111  -1.727138  0.794527
C    -4.635720  -0.803668  -0.156937
C    -3.991181  -0.606493  -1.538106
N    -2.584796  -0.174145  -1.541221
C    -2.233595  1.174356  -1.686997
N    -2.977975  2.040786  -0.898079
N    -1.297846  1.463269  -2.529561
H    -4.557433  -2.168088  1.527144
H    -3.430223  -2.568013  0.227780
H    -4.815556  0.170151  0.319105
H    -5.632301  -1.236026  -0.334387
H    -4.612963  0.095696  -2.117198
H    -4.015920  -1.569196  -2.069603
H    -2.003422  -0.711222  -2.178348
H    -2.674069  3.006246  -0.961706
H    -3.130632  1.746964  0.074305
H    -1.018425  2.444847  -2.446083
N    -3.637776  -0.114319  3.696056
C    -3.771770  -1.352214  4.453814
H    -3.931463  0.743398  4.153883
H    -4.289612  -2.129321  3.877513
H    -4.386283  -1.139377  5.335455
H    -2.805037  -1.747404  4.792853
