35
Energy: -21190.2873403 eV PBE+vdW (tier 2 basis)
C    -1.053107  -1.846310  -1.102455
C    -0.488380  -0.727486  -0.261611
O    0.534187  -0.118866  -0.598983
H    -0.211940  -2.404360  -1.527065
H    -1.610088  -1.401762  -1.939516
H    -1.724027  -2.529535  -0.573032
N    -1.114741  -0.375686  0.908020
C    -2.437791  -0.751146  1.416172
C    -2.545073  -2.265252  1.731414
O    -3.415666  -2.972797  1.229503
H    -0.657020  0.414320  1.353035
H    -2.516507  -0.235153  2.388049
C    -3.607440  -0.281616  0.539651
C    -3.686139  1.247826  0.343155
C    -3.534283  1.700607  -1.113686
N    -2.194550  1.467760  -1.609261
C    -1.894404  1.234379  -2.950254
N    -0.523913  1.217160  -3.179726
N    -2.715131  1.036207  -3.927546
H    -4.529285  -0.657556  1.000537
H    -3.545769  -0.785101  -0.433868
H    -2.926731  1.764737  0.954169
H    -4.654100  1.619089  0.708928
H    -3.833012  2.761466  -1.208787
H    -4.231827  1.122144  -1.737336
H    -1.450665  1.926108  -1.091664
H    -0.306802  0.896510  -4.117264
H    0.050187  0.787663  -2.451281
H    -3.683624  1.209540  -3.651837
N    -1.633821  -2.781288  2.608692
C    -0.565788  -2.110793  3.331476
H    -1.747371  -3.780220  2.749352
H    0.314606  -1.918686  2.702064
H    -0.264272  -2.746877  4.171158
H    -0.905411  -1.154924  3.753101
