35
Energy: -21190.5175899 eV PBE+vdW (tier 2 basis)
C    -3.418514  2.978499  0.341316
C    -2.472410  2.761179  1.504503
O    -1.304264  2.395236  1.319234
H    -4.380255  3.422068  0.626014
H    -3.606450  2.008448  -0.137374
H    -2.927990  3.620845  -0.399170
N    -2.996915  2.990821  2.740442
C    -2.363185  2.719259  4.041426
C    -1.199960  3.677686  4.410719
O    -1.234721  4.293321  5.478154
H    -3.952682  3.321954  2.775121
H    -3.128265  2.962525  4.789346
C    -1.987325  1.232586  4.199539
C    -1.394176  0.909639  5.571717
C    -1.142784  -0.587018  5.807443
N    -2.335955  -1.413702  5.855409
C    -2.850674  -2.116724  4.776263
N    -4.072542  -2.731878  5.089461
N    -2.371587  -2.252897  3.587965
H    -1.279680  0.949763  3.407786
H    -2.900936  0.643548  4.030933
H    -2.054954  1.291481  6.368183
H    -0.437954  1.439534  5.704420
H    -0.601223  -0.710772  6.757913
H    -0.482940  -0.995164  5.027943
H    -3.014031  -1.169626  6.569856
H    -4.358389  -3.343632  4.329827
H    -4.081122  -3.217254  5.983411
H    -1.556462  -1.657374  3.429593
N    -0.175360  3.720020  3.525363
C    0.989847  4.558087  3.724121
H    -0.295128  3.193422  2.651016
H    1.912254  3.964111  3.662398
H    0.920031  5.011427  4.718657
H    1.040190  5.358595  2.971477
