35
Energy: -21190.3154122 eV PBE+vdW (tier 2 basis)
C    -0.258259  1.426916  2.287945
C    -0.183158  -0.067530  2.519930
O    0.738288  -0.599377  3.133677
H    -0.531757  1.683239  1.256053
H    0.716711  1.856631  2.531455
H    -1.017055  1.878701  2.942359
N    -1.208796  -0.836756  2.014703
C    -2.399978  -0.411980  1.288362
C    -3.313760  0.536543  2.099429
O    -3.701445  1.589871  1.571041
H    -1.083920  -1.831176  2.184135
H    -2.107686  0.205170  0.423988
C    -3.116974  -1.672958  0.760186
C    -4.156245  -1.486802  -0.354501
C    -5.390857  -0.637893  -0.021475
N    -5.954457  -1.004165  1.272834
C    -6.833248  -0.197267  1.993711
N    -6.664542  1.168500  1.815050
N    -7.708444  -0.790799  2.739081
H    -3.574795  -2.212480  1.600820
H    -2.325918  -2.327665  0.361632
H    -4.482501  -2.496131  -0.653223
H    -3.677332  -1.052466  -1.245564
H    -6.127446  -0.747288  -0.838907
H    -5.109870  0.418975  0.004073
H    -6.270685  -1.968801  1.347151
H    -7.197291  1.741080  2.458370
H    -5.715466  1.514875  1.646796
H    -8.230962  -0.118475  3.306103
N    -3.639218  0.250726  3.387208
C    -3.597680  -1.025935  4.086047
H    -4.268668  0.948528  3.775320
H    -3.711989  -0.835809  5.158762
H    -2.632580  -1.519242  3.938940
H    -4.412199  -1.691055  3.760716
