35
Energy: -21190.1145252 eV PBE+vdW (tier 2 basis)
C    0.332793  -1.226434  0.700388
C    -0.153624  0.106896  1.244601
O    0.398182  1.162797  0.936126
H    -0.260623  -2.090577  1.023276
H    1.372980  -1.372119  1.017629
H    0.329463  -1.178430  -0.395327
N    -1.224017  0.018175  2.092686
C    -1.926966  1.079410  2.829007
C    -3.264068  1.460099  2.134093
O    -4.317121  1.075516  2.653346
H    -1.623179  -0.905403  2.211992
H    -2.303066  0.580654  3.733445
C    -1.029671  2.231074  3.318578
C    -1.672778  3.092022  4.416367
C    -2.775673  4.055343  3.937720
N    -3.185214  5.034775  4.928967
C    -2.420740  6.155788  5.223837
N    -2.915361  6.859479  6.329231
N    -1.366452  6.590004  4.622138
H    -0.687574  2.864971  2.493154
H    -0.120072  1.767002  3.726199
H    -0.876995  3.690223  4.883738
H    -2.080976  2.448266  5.212983
H    -3.675171  3.501937  3.639768
H    -2.435705  4.600708  3.043154
H    -3.723729  4.669444  5.708032
H    -2.425522  7.743694  6.433220
H    -3.924673  6.983304  6.333991
H    -1.027382  5.927938  3.920962
N    -3.285088  2.177451  0.978100
C    -2.220765  2.823120  0.225519
H    -4.238081  2.347920  0.667302
H    -1.246117  2.380031  0.454338
H    -2.178292  3.904183  0.433581
H    -2.404440  2.688004  -0.848301
