35
Energy: -21190.2932758 eV PBE+vdW (tier 2 basis)
C    -1.012890  -1.821988  1.385522
C    -1.292235  -1.225323  2.751687
O    -1.189951  -1.873927  3.787299
H    -0.072778  -1.421746  0.980240
H    -0.913378  -2.904052  1.502361
H    -1.810442  -1.606296  0.660783
N    -1.683212  0.094983  2.790442
C    -1.786503  1.027233  1.687227
C    -0.414843  1.330214  1.035892
O    0.636133  1.343284  1.675923
H    -1.790914  0.451081  3.734790
H    -2.436747  0.581109  0.914326
C    -2.461441  2.350067  2.136783
C    -1.570970  3.404126  2.811627
C    -0.950880  3.005747  4.165531
N    -0.106506  4.021635  4.758268
C    1.161728  4.358756  4.297329
N    1.867784  3.337368  3.677074
N    1.597002  5.546753  4.569484
H    -3.304739  2.077358  2.791813
H    -2.912354  2.809236  1.245317
H    -2.179509  4.309147  2.963642
H    -0.761845  3.701450  2.127225
H    -0.362581  2.082915  4.065972
H    -1.752164  2.778310  4.887332
H    -0.571163  4.843470  5.131963
H    2.697934  3.645892  3.187567
H    1.371974  2.597486  3.181791
H    2.568940  5.660858  4.272429
N    -0.484470  1.615918  -0.291912
C    0.667256  2.012801  -1.081666
H    -1.386066  1.543980  -0.748985
H    1.540976  1.995814  -0.422352
H    0.542279  3.027034  -1.484902
H    0.834531  1.315574  -1.913546
