35
Energy: -21190.4090993 eV PBE+vdW (tier 2 basis)
C    0.001554  0.094836  0.865988
C    -0.250618  -0.132684  2.343991
O    0.617774  0.032864  3.196517
H    1.004951  0.513143  0.754263
H    -0.733892  0.779188  0.421618
H    -0.051733  -0.851227  0.307772
N    -1.519795  -0.531384  2.704479
C    -2.639305  -0.872544  1.834275
C    -3.532209  0.332048  1.443077
O    -4.412806  0.197320  0.596282
H    -1.610285  -0.741840  3.695619
H    -2.247388  -1.245218  0.875675
C    -3.512327  -1.980779  2.450603
C    -2.958258  -3.407786  2.358090
C    -1.687740  -3.694668  3.174939
N    -1.343127  -5.108081  3.245612
C    -2.025532  -5.949054  4.107264
N    -1.661548  -7.294392  3.932583
N    -2.901555  -5.481151  4.930034
H    -4.476034  -1.946056  1.925991
H    -3.723865  -1.724967  3.503520
H    -2.780760  -3.659146  1.298759
H    -3.738247  -4.091821  2.721066
H    -1.831762  -3.357582  4.210686
H    -0.816114  -3.163719  2.768644
H    -1.044804  -5.537931  2.376196
H    -2.024012  -7.908911  4.653720
H    -0.668250  -7.448327  3.775586
H    -3.223138  -6.203306  5.578287
N    -3.264809  1.494919  2.092804
C    -4.001086  2.718864  1.848443
H    -2.499035  1.485820  2.758221
H    -4.495213  3.073810  2.763420
H    -4.763563  2.501444  1.092619
H    -3.340349  3.512663  1.472816
