35
Energy: -21189.7901169 eV PBE+vdW (tier 2 basis)
C    0.147155  1.129819  1.682712
C    -0.831173  0.646673  2.735052
O    -0.515176  0.573750  3.919717
H    0.391378  0.322078  0.979401
H    1.061256  1.440310  2.194968
H    -0.248324  1.979511  1.111603
N    -2.097632  0.282058  2.340797
C    -2.728444  0.194390  1.019342
C    -2.073399  -0.936986  0.171219
O    -2.226959  -2.091599  0.564123
H    -2.620438  -0.130164  3.107362
H    -3.697207  -0.271709  1.244087
C    -3.053302  1.564929  0.400007
C    -4.125951  1.511952  -0.699811
C    -5.524695  1.104311  -0.221871
N    -6.020009  1.999087  0.807544
C    -7.124020  1.663837  1.590616
N    -7.505180  2.714314  2.431010
N    -7.784533  0.559468  1.610825
H    -2.158219  2.067507  0.016731
H    -3.421186  2.190422  1.225447
H    -3.839201  0.810998  -1.498671
H    -4.185861  2.501816  -1.180674
H    -5.499534  0.089145  0.201831
H    -6.200781  1.055381  -1.096252
H    -5.967131  2.988555  0.579254
H    -8.233757  2.415002  3.072798
H    -6.736990  3.175606  2.911349
H    -7.509194  -0.066477  0.851195
N    -1.354985  -0.711778  -0.976795
C    -0.944971  0.487007  -1.694480
H    -1.045061  -1.596728  -1.368587
H    -1.785146  1.005840  -2.176649
H    -0.252981  0.176634  -2.484756
H    -0.410052  1.197691  -1.054164
