35
Energy: -21190.5003444 eV PBE+vdW (tier 2 basis)
C    -4.118702  0.927814  -0.001970
C    -2.821224  0.840905  0.779147
O    -1.722599  0.978380  0.239740
H    -5.015110  0.810586  0.618831
H    -4.114185  0.151483  -0.777335
H    -4.159857  1.898082  -0.512069
N    -2.963022  0.620059  2.121134
C    -1.831951  0.339040  2.983959
C    -2.250294  -0.811582  3.915180
O    -3.435605  -1.021746  4.177905
H    -3.861175  0.331459  2.505179
H    -0.998091  0.032210  2.332110
C    -1.386141  1.558140  3.821459
C    -0.976866  2.765925  2.979236
C    -0.309837  3.870892  3.810662
N    0.936755  3.455413  4.449758
C    2.199550  3.723139  3.946663
N    2.244554  3.913752  2.563548
N    3.187266  3.809701  4.774014
H    -0.532074  1.256073  4.447810
H    -2.203505  1.833873  4.507954
H    -1.854666  3.190029  2.469394
H    -0.302061  2.434156  2.174378
H    -0.997947  4.192188  4.606752
H    -0.130207  4.752527  3.176469
H    0.956296  3.454821  5.463076
H    3.182114  3.931886  2.179912
H    1.604896  3.358225  2.002608
H    4.080326  3.895564  4.283336
N    -1.223123  -1.530914  4.439561
C    -1.413917  -2.596685  5.406280
H    -0.280831  -1.300324  4.147143
H    -0.917208  -2.363438  6.358317
H    -1.024376  -3.550365  5.024966
H    -2.490181  -2.696270  5.579893
