35
Energy: -21190.172157 eV PBE+vdW (tier 2 basis)
C    -0.307505  -0.233533  0.041055
C    -0.124691  0.019219  1.529390
O    0.983850  0.269084  2.002628
H    0.253352  -1.137202  -0.230073
H    0.135158  0.602860  -0.512880
H    -1.351375  -0.359605  -0.271971
N    -1.277600  -0.058217  2.263464
C    -1.492996  0.039466  3.714311
C    -2.169542  1.356239  4.174591
O    -3.175591  1.280679  4.882375
H    -2.118676  -0.257516  1.735022
H    -2.278221  -0.697331  3.936991
C    -0.299423  -0.314687  4.614843
C    0.197513  -1.750321  4.445193
C    1.221270  -2.142480  5.519725
N    0.673638  -2.143026  6.867623
C    -0.033724  -3.224551  7.378543
N    -0.411052  -3.025145  8.711518
N    -0.342746  -4.327203  6.788256
H    -0.661245  -0.184249  5.645993
H    0.531248  0.385752  4.463946
H    0.672606  -1.873841  3.461919
H    -0.655013  -2.446632  4.486247
H    2.055726  -1.427231  5.506729
H    1.656849  -3.127860  5.276127
H    1.175053  -1.599185  7.559776
H    -1.024191  -3.772696  9.023948
H    -0.801711  -2.106768  8.906002
H    0.105520  -4.404625  5.872429
N    -1.645792  2.566894  3.831561
C    -0.488675  2.907018  3.021152
H    -2.207786  3.334019  4.189431
H    0.265013  2.113532  3.041075
H    -0.030190  3.820003  3.420996
H    -0.759775  3.088573  1.968733
