35
Energy: -21190.4839776 eV PBE+vdW (tier 2 basis)
C    0.830675  -0.249782  0.174300
C    0.594161  -0.058411  1.657376
O    1.539749  0.154461  2.431551
H    1.417031  -1.167252  0.033499
H    1.434997  0.585038  -0.199460
H    -0.088913  -0.325502  -0.418102
N    -0.702478  -0.129264  2.063413
C    -1.217567  -0.162084  3.445070
C    -1.080211  1.165405  4.233277
O    -2.043543  1.593774  4.870643
H    -1.392966  -0.273935  1.337218
H    -2.305491  -0.256189  3.337283
C    -0.710309  -1.412750  4.200937
C    -1.220460  -1.540732  5.646934
C    -0.320535  -0.920182  6.733699
N    0.937784  -1.618592  6.971908
C    2.054642  -1.565847  6.145008
N    2.376982  -0.304152  5.646099
N    2.747266  -2.645206  5.985499
H    0.385708  -1.442764  4.173785
H    -1.048645  -2.279967  3.615023
H    -1.332539  -2.609968  5.882234
H    -2.225655  -1.099173  5.735126
H    -0.872736  -0.916895  7.684510
H    -0.120884  0.138855  6.520944
H    0.832205  -2.569666  7.316896
H    2.830862  -0.328595  4.738569
H    1.630018  0.383939  5.659400
H    3.623376  -2.446249  5.495188
N    0.134650  1.765867  4.212855
C    0.368716  3.027765  4.892642
H    0.859281  1.339210  3.621774
H    1.446305  3.222529  4.914977
H    -0.012712  2.984822  5.920966
H    -0.134983  3.864532  4.386286
