35
Energy: -21190.3099948 eV PBE+vdW (tier 2 basis)
C    1.383597  -0.261108  0.135443
C    0.829816  -0.443075  1.534671
O    1.366468  -1.183802  2.358954
H    2.431490  0.053615  0.210513
H    0.831569  0.470393  -0.467221
H    1.369402  -1.230888  -0.377762
N    -0.294895  0.285198  1.818815
C    -1.006831  0.153129  3.083554
C    -2.297709  -0.647155  2.826383
O    -3.214467  -0.153857  2.166715
H    -0.779006  0.760442  1.063982
H    -0.319274  -0.390943  3.741592
C    -1.346806  1.515145  3.701839
C    -0.107350  2.344326  4.036781
C    -0.459029  3.705480  4.630391
N    0.759305  4.469945  4.897576
C    0.761811  5.680537  5.586959
N    -0.419630  6.409109  5.469388
N    1.725591  6.160275  6.297784
H    -1.939916  1.335230  4.612475
H    -2.010673  2.059993  3.012826
H    0.500485  2.491079  3.130963
H    0.524915  1.788091  4.749975
H    -1.065458  3.577106  5.545732
H    -1.087944  4.252778  3.909599
H    1.562449  3.894176  5.130355
H    -0.299885  7.352272  5.825810
H    -0.874313  6.382634  4.562060
H    2.481586  5.479680  6.411306
N    -2.365772  -1.910124  3.328161
C    -1.354878  -2.646952  4.078135
H    -3.244945  -2.376529  3.124756
H    -1.589507  -3.715137  4.013181
H    -1.339597  -2.367826  5.143044
H    -0.355036  -2.496097  3.652248
