35
Energy: -21190.2374901 eV PBE+vdW (tier 2 basis)
C    -0.267119  -1.387252  0.591461
C    -0.222534  -0.565891  1.862726
O    0.763092  0.084147  2.202947
H    0.149095  -2.382068  0.817805
H    0.362408  -0.906457  -0.163724
H    -1.283349  -1.518428  0.197416
N    -1.371423  -0.609282  2.616307
C    -1.523811  -0.071492  3.969511
C    -0.677499  1.193264  4.262680
O    0.073157  1.236650  5.232832
H    -2.090733  -1.257302  2.312365
H    -2.574062  0.264156  4.044544
C    -1.315175  -1.152410  5.045138
C    0.059946  -1.836126  5.030785
C    0.003171  -3.335946  5.362752
N    -0.835584  -4.137394  4.474204
C    -0.538764  -4.316163  3.133357
N    -1.636380  -4.787860  2.392800
N    0.571219  -4.094055  2.517272
H    -2.107221  -1.900958  4.874089
H    -1.513528  -0.704897  6.028585
H    0.730538  -1.334811  5.739562
H    0.528046  -1.707439  4.046907
H    -0.382142  -3.493732  6.380623
H    1.019451  -3.757982  5.354491
H    -1.828412  -4.102279  4.678234
H    -1.325603  -5.100950  1.476548
H    -2.177407  -5.511579  2.860824
H    1.263640  -3.649147  3.122674
N    -0.933616  2.313685  3.519228
C    -1.681422  2.433712  2.281798
H    -0.296558  3.070283  3.749734
H    -1.107241  2.099906  1.403185
H    -1.957194  3.485653  2.140265
H    -2.610251  1.853081  2.328900
