35
Energy: -21190.2634917 eV PBE+vdW (tier 2 basis)
C    0.949271  -0.026659  1.436620
C    0.183041  1.121272  2.064022
O    0.749448  2.061237  2.621000
H    1.958680  -0.033973  1.856842
H    1.022395  0.128483  0.351149
H    0.473392  -1.002153  1.607236
N    -1.185513  1.078964  2.004560
C    -2.051089  0.167959  1.288294
C    -1.734391  0.089553  -0.224524
O    -1.326764  1.049775  -0.872385
H    -1.645778  1.891549  2.417709
H    -1.950741  -0.849629  1.711245
C    -3.522951  0.604360  1.498674
C    -4.049439  1.797998  0.683777
C    -3.296808  3.139128  0.795505
N    -2.918410  3.545797  2.151053
C    -3.789555  3.970467  3.159262
N    -5.145072  3.853588  2.855921
N    -3.440018  4.370453  4.332347
H    -3.651688  0.801670  2.573754
H    -4.166058  -0.257611  1.270307
H    -5.098065  1.932439  0.982754
H    -4.063520  1.542884  -0.386836
H    -3.896173  3.916416  0.283944
H    -2.358773  3.057817  0.232577
H    -2.005908  3.984974  2.216682
H    -5.421790  4.157789  1.926879
H    -5.708383  4.274246  3.589180
H    -2.429897  4.280904  4.472834
N    -1.995172  -1.131513  -0.774289
C    -1.839512  -1.409880  -2.189392
H    -2.286141  -1.880785  -0.157480
H    -2.790056  -1.726202  -2.640887
H    -1.086499  -2.191467  -2.361266
H    -1.505595  -0.484484  -2.670459
