35
Energy: -21190.6491371 eV PBE+vdW (tier 2 basis)
C    0.476907  -0.746051  0.560051
C    0.428554  -0.352438  2.025863
O    1.434797  -0.351957  2.736351
H    1.187232  -0.090593  0.040907
H    -0.495913  -0.689970  0.056850
H    0.863142  -1.770158  0.484492
N    -0.800764  0.018767  2.488006
C    -1.059386  0.274562  3.891888
C    -2.581193  0.083032  4.085772
O    -3.290407  -0.326431  3.158775
H    -1.646279  -0.195328  1.957686
H    -0.577481  -0.522483  4.487683
C    -0.445008  1.603241  4.390988
C    -0.656483  2.855090  3.530155
C    -2.098813  3.356715  3.339604
N    -2.946411  3.388897  4.542063
C    -2.498429  3.819861  5.779808
N    -1.782514  5.008242  5.751060
N    -2.747146  3.088332  6.822837
H    0.637277  1.428924  4.452347
H    -0.776362  1.791137  5.422631
H    -0.232323  2.687804  2.528239
H    -0.058090  3.657806  3.983803
H    -2.634861  2.714999  2.627631
H    -2.066932  4.354745  2.873834
H    -3.474949  2.532036  4.668494
H    -1.575460  5.421129  6.652093
H    -2.050809  5.682516  5.041529
H    -2.511642  3.574554  7.691558
N    -3.067835  0.335496  5.325541
C    -4.474001  0.161088  5.654584
H    -2.512314  0.864907  5.997388
H    -4.664180  -0.831224  6.088780
H    -5.079431  0.254958  4.745323
H    -4.760475  0.931028  6.380177
