35
Energy: -21190.5147068 eV PBE+vdW (tier 2 basis)
C    -2.336244  1.108985  1.472471
C    -1.846024  0.310186  2.664438
O    -2.026240  0.675037  3.827266
H    -2.036898  2.155420  1.601197
H    -3.434054  1.079271  1.454843
H    -1.966578  0.734592  0.510441
N    -1.223816  -0.867245  2.360391
C    -0.637965  -1.719755  3.373640
C    0.421071  -2.577699  2.656179
O    0.461934  -2.658767  1.427897
H    -0.960728  -1.108272  1.405069
H    -0.141689  -1.079341  4.122391
C    -1.681625  -2.589706  4.121378
C    -2.610879  -3.403643  3.202541
C    -4.000710  -2.762235  3.064949
N    -4.832472  -3.406287  2.059993
C    -4.771954  -3.021651  0.723972
N    -5.748799  -3.652696  -0.055147
N    -3.963987  -2.180866  0.177599
H    -2.268363  -1.908885  4.755372
H    -1.142954  -3.256802  4.810023
H    -2.737275  -4.423712  3.591463
H    -2.166127  -3.514415  2.202652
H    -3.898168  -1.684527  2.850641
H    -4.529500  -2.829234  4.026102
H    -5.753499  -3.697456  2.367812
H    -5.855345  -4.647059  0.127642
H    -5.595648  -3.462649  -1.041434
H    -3.385788  -1.714648  0.879861
N    1.280123  -3.238188  3.478014
C    2.315259  -4.129202  2.987718
H    1.197975  -3.089552  4.476669
H    2.248918  -4.142633  1.895104
H    2.173298  -5.150646  3.367284
H    3.313751  -3.775719  3.279567
