35
Energy: -21190.4261541 eV PBE+vdW (tier 2 basis)
C    -0.131595  0.825270  0.870900
C    -0.718334  1.701482  1.966404
O    -0.010745  2.382961  2.702681
H    -0.428940  -0.227265  0.976654
H    0.957147  0.895829  0.935281
H    -0.448238  1.165089  -0.125800
N    -2.085139  1.720564  2.088265
C    -3.065240  0.909990  1.381325
C    -4.316753  1.781872  1.225608
O    -4.833710  2.328984  2.205549
H    -2.447100  2.295493  2.847059
H    -2.661888  0.665076  0.387312
C    -3.387811  -0.401608  2.134405
C    -4.315302  -1.382622  1.405073
C    -5.820260  -1.109886  1.550844
N    -6.248610  -1.147767  2.944147
C    -7.316541  -0.393724  3.430974
N    -7.387630  0.905121  2.931819
N    -8.123682  -0.960289  4.264769
H    -3.820697  -0.145291  3.112902
H    -2.423180  -0.888036  2.337387
H    -4.113389  -2.395687  1.786486
H    -4.069590  -1.421805  0.329650
H    -6.373401  -1.850441  0.943109
H    -6.086583  -0.129657  1.142840
H    -6.310726  -2.083105  3.340091
H    -8.078531  1.477016  3.404269
H    -6.500728  1.399769  2.800853
H    -8.771117  -0.281109  4.673671
N    -4.819401  1.898688  -0.026455
C    -6.038868  2.643544  -0.305137
H    -4.356216  1.410876  -0.782706
H    -6.131389  2.782165  -1.386809
H    -5.994879  3.624263  0.183057
H    -6.926725  2.113949  0.070111
