35
Energy: -21190.3571204 eV PBE+vdW (tier 2 basis)
C    -1.066495  1.566874  -0.549434
C    -1.371415  0.258707  0.152297
O    -0.922137  -0.810583  -0.246286
H    -1.105010  2.451124  0.094789
H    -1.795136  1.710629  -1.360006
H    -0.073928  1.483820  -1.001640
N    -2.248778  0.276427  1.226161
C    -2.669839  1.415919  2.049233
C    -3.538321  2.423551  1.250872
O    -3.540236  3.632003  1.496946
H    -2.321347  -0.641855  1.656800
H    -3.366865  0.979537  2.785095
C    -1.534715  2.101856  2.831366
C    -2.005281  2.782191  4.119884
C    -0.963271  3.742815  4.711075
N    -0.412788  4.718653  3.761284
C    -1.041941  5.935712  3.483913
N    -2.409695  5.838426  3.258018
N    -0.315033  7.004240  3.481455
H    -1.038801  2.853872  2.202846
H    -0.779859  1.336298  3.065077
H    -2.238926  2.025340  4.886667
H    -2.938144  3.330334  3.937352
H    -0.103671  3.158192  5.069691
H    -1.401873  4.243607  5.591767
H    0.572821  4.910791  3.915303
H    -2.835976  6.710297  2.965121
H    -2.729937  5.041336  2.702290
H    -0.839062  7.804417  3.115569
N    -4.326937  1.856688  0.304935
C    -5.221588  2.619001  -0.543509
H    -4.184073  0.867543  0.127484
H    -6.232961  2.192527  -0.523507
H    -4.866859  2.640693  -1.584247
H    -5.255557  3.644579  -0.162210
