35
Energy: -21190.5525733 eV PBE+vdW (tier 2 basis)
C    -2.508456  -1.939713  0.847100
C    -2.112408  -0.692194  1.606381
O    -2.530187  0.429364  1.295568
H    -1.969300  -2.838648  1.170096
H    -2.328086  -1.773455  -0.221537
H    -3.588788  -2.099404  0.978753
N    -1.292615  -0.891011  2.676077
C    -0.803686  0.166808  3.538645
C    0.200925  -0.498035  4.499053
O    0.248764  -1.721719  4.636648
H    -0.970119  -1.821503  2.936213
H    -0.269885  0.908486  2.918805
C    -1.905695  0.944256  4.305710
C    -2.701020  0.186746  5.378453
C    -3.517668  -1.024382  4.915134
N    -4.423795  -0.683941  3.826993
C    -5.293650  -1.595534  3.242826
N    -5.573420  -2.723010  4.011687
N    -5.899022  -1.447043  2.110555
H    -2.569068  1.378295  3.545673
H    -1.424410  1.808264  4.790027
H    -3.385523  0.908780  5.849099
H    -2.021540  -0.160910  6.172272
H    -4.111948  -1.376842  5.771839
H    -2.825490  -1.842609  4.638092
H    -4.058437  -0.018986  3.150913
H    -4.800482  -3.137262  4.521681
H    -6.112694  -3.398824  3.480127
H    -5.686192  -0.535044  1.696564
N    0.993825  0.363790  5.187470
C    1.965547  -0.069865  6.174952
H    0.908901  1.354037  4.990896
H    1.911813  -1.161420  6.235612
H    1.743114  0.355636  7.163181
H    2.983696  0.220894  5.882442
