35
Energy: -21190.3090002 eV PBE+vdW (tier 2 basis)
C    -1.040272  -0.294975  0.282112
C    -0.585920  0.095465  1.672500
O    0.362238  0.862570  1.854263
H    -1.653492  -1.204375  0.261543
H    -0.162807  -0.429280  -0.358812
H    -1.632707  0.534442  -0.128536
N    -1.298592  -0.454040  2.701519
C    -1.225305  0.049313  4.077075
C    -1.417861  1.597333  4.061302
O    -2.428308  2.034066  3.508624
H    -2.149674  -0.939309  2.445952
H    -2.175863  -0.264649  4.532265
C    -0.122854  -0.636267  4.933453
C    1.232343  -1.007610  4.293908
C    2.414906  -0.090924  4.612705
N    2.195991  1.265444  4.144972
C    3.043609  2.327766  4.418794
N    3.993957  2.076538  5.415794
N    2.832366  3.458643  3.832113
H    -0.575969  -1.574145  5.285108
H    0.031308  -0.036519  5.843800
H    1.125001  -1.103334  3.206098
H    1.518381  -2.007256  4.651505
H    3.325163  -0.545247  4.169673
H    2.563376  -0.069809  5.704930
H    1.698046  1.350145  3.252920
H    4.397434  1.144720  5.440395
H    4.697499  2.801711  5.495986
H    3.520723  4.159008  4.117012
N    -0.522652  2.350779  4.738102
C    -0.588870  3.804963  4.722953
H    0.401008  1.940465  4.888889
H    0.272767  4.208588  4.174686
H    -0.578646  4.201806  5.747684
H    -1.520374  4.101141  4.230198
