35
Energy: -21190.0538697 eV PBE+vdW (tier 2 basis)
C    -0.207018  0.183517  -0.373325
C    0.042129  -0.201817  1.063802
O    1.121426  -0.659262  1.439105
H    -0.003417  1.255639  -0.528546
H    -1.226798  -0.047073  -0.696507
H    0.506140  -0.375501  -0.986954
N    -0.950324  -0.018314  2.014416
C    -2.299694  0.526220  1.968863
C    -3.317903  -0.417140  1.284912
O    -3.023450  -1.151839  0.349114
H    -0.636444  -0.348695  2.921217
H    -2.590659  0.611088  3.027209
C    -2.394354  1.949280  1.369878
C    -1.594449  2.972222  2.176872
C    -1.559662  4.377829  1.553232
N    -0.899743  4.479374  0.256578
C    0.422542  4.104360  0.041661
N    1.319514  4.483614  1.033214
N    0.717182  3.522442  -1.072474
H    -3.454904  2.245370  1.332199
H    -2.048922  1.921072  0.328174
H    -0.564369  2.605843  2.302737
H    -2.018336  3.055907  3.192149
H    -1.089898  5.080085  2.261251
H    -2.582716  4.757398  1.414146
H    -1.459174  4.191525  -0.541007
H    2.159887  3.923279  1.099488
H    0.951545  4.776002  1.930727
H    1.728773  3.423610  -1.190260
N    -4.602125  -0.363836  1.763970
C    -5.109044  0.337588  2.931875
H    -5.232134  -0.992386  1.275513
H    -4.650878  -0.015981  3.868690
H    -6.186684  0.155551  3.001939
H    -4.965677  1.425576  2.860864
