35
Energy: -21190.1728159 eV PBE+vdW (tier 2 basis)
C    -0.062453  0.654636  0.317766
C    0.123472  -0.288512  1.489343
O    1.224253  -0.524125  1.983772
H    0.925048  0.988766  -0.009602
H    -0.663137  1.530340  0.602962
H    -0.578143  0.167631  -0.521434
N    -1.009029  -0.879498  1.997926
C    -2.388946  -0.625692  1.625027
C    -3.015380  0.731671  2.039845
O    -3.970580  1.141299  1.379894
H    -0.822389  -1.473475  2.800529
H    -2.451918  -0.585540  0.528323
C    -3.308346  -1.778328  2.071946
C    -3.424387  -1.986631  3.584057
C    -4.449452  -3.079070  3.933276
N    -4.622631  -3.326672  5.352116
C    -5.337950  -2.457768  6.171182
N    -5.212903  -2.789518  7.525463
N    -6.054117  -1.441906  5.834189
H    -2.952915  -2.701712  1.587782
H    -4.303212  -1.563505  1.656275
H    -3.724068  -1.048441  4.074828
H    -2.454740  -2.276187  4.023279
H    -4.158089  -4.029288  3.460967
H    -5.431280  -2.818266  3.508969
H    -3.846493  -3.792159  5.812495
H    -5.301103  -3.782146  7.728048
H    -5.849987  -2.231426  8.087027
H    -5.970803  -1.220949  4.839709
N    -2.531985  1.457745  3.090817
C    -1.514694  1.167815  4.096001
H    -3.063590  2.314396  3.214766
H    -1.660329  0.186563  4.564036
H    -1.609586  1.919948  4.886782
H    -0.493737  1.219762  3.696505
