35
Energy: -21190.5595412 eV PBE+vdW (tier 2 basis)
C    0.916546  0.897686  0.363898
C    0.495864  0.121417  1.593070
O    1.043272  0.289181  2.690505
H    1.985618  0.728784  0.185725
H    0.782391  1.968194  0.563730
H    0.354397  0.631671  -0.539377
N    -0.523475  -0.765164  1.422339
C    -1.093104  -1.534554  2.528643
C    -0.241957  -2.810897  2.782421
O    -0.593393  -3.926794  2.402791
H    -0.911290  -0.905313  0.496251
H    -0.996692  -0.887420  3.413852
C    -2.557815  -1.862848  2.247029
C    -3.321544  -2.446838  3.442783
C    -3.401623  -1.533361  4.677549
N    -3.925709  -0.185873  4.435384
C    -5.183436  0.034935  3.884953
N    -6.179338  -0.807920  4.383470
N    -5.318082  0.947378  2.982206
H    -2.599177  -2.591932  1.424058
H    -3.057630  -0.944767  1.901766
H    -2.868142  -3.403274  3.742757
H    -4.344561  -2.678283  3.112597
H    -2.410567  -1.400475  5.134272
H    -4.009832  -2.030625  5.447397
H    -3.263133  0.451549  4.001229
H    -7.122151  -0.529321  4.137505
H    -6.090783  -1.065754  5.362339
H    -6.303834  1.119981  2.766644
N    0.911994  -2.548125  3.452162
C    1.920882  -3.562540  3.687261
H    1.154642  -1.559487  3.558613
H    2.313115  -3.481656  4.709155
H    2.760394  -3.475029  2.980529
H    1.456124  -4.545105  3.553983
