35
Energy: -21190.4657331 eV PBE+vdW (tier 2 basis)
C    0.171934  -0.601523  0.232521
C    -0.595029  -0.970590  1.489652
O    -0.998003  -2.110887  1.699180
H    1.152055  -1.096065  0.259992
H    0.319959  0.478923  0.112366
H    -0.364734  -0.993808  -0.638994
N    -0.808202  0.069984  2.363446
C    -1.399284  -0.142845  3.677396
C    -2.620546  0.767896  3.945965
O    -3.013916  0.989462  5.090141
H    -0.343908  0.960484  2.171341
H    -1.808282  -1.165795  3.632836
C    -0.381178  -0.097019  4.838367
C    0.681609  1.003438  4.736297
C    0.112435  2.421095  4.602525
N    1.099446  3.428820  4.181979
C    1.262278  3.773580  2.846194
N    1.169848  2.676305  1.958741
N    1.483561  4.941791  2.353793
H    0.128529  -1.068912  4.885221
H    -0.965310  0.010573  5.762614
H    1.335293  0.788315  3.877424
H    1.338443  0.958208  5.617347
H    -0.303605  2.741302  5.566543
H    -0.730726  2.438216  3.896208
H    1.166400  4.232119  4.796385
H    1.810762  1.922831  2.206914
H    1.371199  3.013553  1.018683
H    1.381090  5.674169  3.062561
N    -3.232600  1.251869  2.831225
C    -4.443839  2.044899  2.880283
H    -2.834973  0.989052  1.936273
H    -4.309751  3.002742  2.359007
H    -4.670811  2.238361  3.934201
H    -5.291822  1.510752  2.428046
