35
Energy: -21190.2459241 eV PBE+vdW (tier 2 basis)
C    0.987782  -1.008899  0.696181
C    0.597581  -0.699746  2.126529
O    1.411333  -0.764306  3.048198
H    1.786160  -0.320951  0.391460
H    0.156777  -0.933197  -0.016356
H    1.398977  -2.025089  0.657417
N    -0.714412  -0.356708  2.319383
C    -1.218010  0.011304  3.636861
C    -2.507745  -0.719454  4.051878
O    -2.567677  -1.268437  5.149425
H    -1.288414  -0.219534  1.497783
H    -0.467596  -0.384320  4.330715
C    -1.310391  1.540626  3.838153
C    -1.493317  1.961649  5.300375
C    -0.250798  1.724408  6.168161
N    0.899164  2.497664  5.697306
C    2.222790  2.045543  5.784584
N    2.390861  0.694363  5.533169
N    3.249154  2.781947  6.062236
H    -2.123420  1.958538  3.225171
H    -0.371446  1.973229  3.460979
H    -1.748568  3.033160  5.325277
H    -2.344055  1.433024  5.756624
H    0.032083  0.665597  6.169898
H    -0.492916  1.973922  7.216691
H    0.838015  3.488077  5.914264
H    3.376645  0.452703  5.524409
H    1.889152  0.292155  4.738436
H    2.959621  3.711960  6.379394
N    -3.605727  -0.700003  3.229264
C    -3.771919  -0.154578  1.894907
H    -4.380414  -1.231348  3.615609
H    -3.265587  0.813175  1.790030
H    -4.838123  0.027403  1.717381
H    -3.415049  -0.836228  1.103839
