35
Energy: -21190.2601167 eV PBE+vdW (tier 2 basis)
C    -0.755781  -1.537394  -0.324298
C    -0.417500  -1.216285  1.124648
O    0.728961  -1.280752  1.558260
H    -0.441036  -2.566195  -0.539343
H    -0.171113  -0.876356  -0.976157
H    -1.820678  -1.429979  -0.568145
N    -1.484748  -0.845815  1.894588
C    -1.409787  -0.506974  3.315296
C    -0.361165  0.589022  3.620688
O    0.469307  0.465591  4.514267
H    -2.397406  -0.810542  1.456934
H    -2.396462  -0.071791  3.551711
C    -1.180801  -1.717073  4.230363
C    -2.122658  -2.907186  4.019101
C    -3.637725  -2.639665  4.135941
N    -4.290860  -2.326639  2.869156
C    -4.767282  -1.088937  2.520152
N    -5.250236  -1.058029  1.195170
N    -4.689462  -0.079161  3.324410
H    -1.266005  -1.358082  5.265776
H    -0.141937  -2.051977  4.113889
H    -1.857509  -3.667476  4.768969
H    -1.921457  -3.380151  3.043203
H    -3.848132  -1.802232  4.812911
H    -4.130611  -3.530081  4.555628
H    -4.113782  -2.968196  2.104874
H    -5.768935  -0.212284  0.981065
H    -5.772705  -1.885069  0.913238
H    -5.178753  0.734894  2.947604
N    -0.442193  1.747088  2.891912
C    -1.430047  2.150573  1.909974
H    0.291632  2.406714  3.127662
H    -1.480158  3.246373  1.891769
H    -1.193259  1.799145  0.893177
H    -2.428257  1.782000  2.181276
