35
Energy: -21190.5863587 eV PBE+vdW (tier 2 basis)
C    1.589614  -0.890235  1.100910
C    0.657686  -0.403037  2.189235
O    0.365903  -1.120359  3.159245
H    1.196074  -1.829598  0.693691
H    2.567699  -1.110966  1.547006
H    1.722508  -0.170951  0.284380
N    0.169137  0.849940  2.033549
C    -0.727781  1.479026  2.988989
C    -1.400460  2.630358  2.229485
O    -0.778608  3.221391  1.341421
H    0.437492  1.441616  1.249322
H    -1.453796  0.719286  3.308953
C    0.047769  2.013711  4.228552
C    -0.731023  2.094240  5.546447
C    -1.342358  0.763711  6.018744
N    -0.418228  -0.342518  5.903820
C    -0.267131  -1.268935  6.909256
N    0.623183  -2.296448  6.564405
N    -0.846652  -1.118114  8.055688
H    0.475984  2.994353  3.975493
H    0.898659  1.335484  4.378148
H    -1.526156  2.854159  5.492349
H    -0.026478  2.445895  6.314816
H    -2.273209  0.546098  5.461489
H    -1.629110  0.830472  7.075541
H    -0.167044  -0.640807  4.958547
H    0.464017  -3.163609  7.064025
H    0.766094  -2.443183  5.567673
H    -0.559064  -1.851070  8.707289
N    -2.659009  3.010229  2.577415
C    -3.608101  2.382289  3.481572
H    -2.973641  3.827066  2.061067
H    -4.616329  2.463379  3.057402
H    -3.610308  2.846549  4.478241
H    -3.384099  1.317913  3.601791
