35
Energy: -21190.1469968 eV PBE+vdW (tier 2 basis)
C    -1.430030  0.976408  0.053129
C    -0.605699  0.509482  1.240830
O    0.613393  0.634115  1.283938
H    -1.160331  0.368244  -0.819923
H    -1.159883  2.013911  -0.176139
H    -2.514548  0.911869  0.206844
N    -1.323887  -0.047100  2.268204
C    -0.722442  -0.668632  3.447673
C    0.448869  0.160691  4.041326
O    1.544961  -0.349538  4.255667
H    -2.321840  -0.164601  2.141497
H    -1.515131  -0.676479  4.216147
C    -0.278411  -2.117592  3.193463
C    -0.035131  -2.918524  4.488539
C    1.348247  -3.588192  4.521780
N    1.686133  -4.219451  5.785870
C    2.055043  -3.459766  6.895659
N    2.110390  -4.240022  8.064294
N    2.328013  -2.205974  6.960042
H    0.635468  -2.082705  2.583937
H    -1.053999  -2.598960  2.581423
H    -0.815800  -3.684608  4.615729
H    -0.109728  -2.258288  5.364948
H    2.111521  -2.830968  4.297569
H    1.419544  -4.352692  3.733302
H    1.140353  -5.044228  6.018519
H    2.526886  -3.699406  8.817802
H    2.585803  -5.131454  7.942518
H    2.146582  -1.709458  6.082891
N    0.187812  1.444744  4.423776
C    -1.010818  2.239054  4.238098
H    1.016462  1.917054  4.771831
H    -1.002224  3.058657  4.966325
H    -1.913111  1.644179  4.426610
H    -1.084816  2.671589  3.227926
