35
Energy: -21190.2248832 eV PBE+vdW (tier 2 basis)
C    -0.723520  1.608710  2.652238
C    -0.414313  0.256427  2.042773
O    0.554858  -0.419140  2.380196
H    -0.889008  2.379224  1.886985
H    0.118907  1.896398  3.285985
H    -1.634955  1.567572  3.265477
N    -1.276729  -0.202623  1.072500
C    -2.544671  0.374967  0.656376
C    -3.645939  0.427704  1.741562
O    -4.329687  1.447625  1.847873
H    -1.024428  -1.118403  0.710377
H    -2.391629  1.438894  0.421836
C    -3.032721  -0.345321  -0.616581
C    -4.374743  0.129806  -1.182326
C    -4.420857  1.611131  -1.610207
N    -3.385036  2.033328  -2.537369
C    -3.361593  1.652517  -3.870488
N    -2.174298  2.029744  -4.512888
N    -4.262921  1.017031  -4.537734
H    -3.102350  -1.425543  -0.412284
H    -2.247253  -0.230923  -1.380171
H    -5.179061  -0.028641  -0.447961
H    -4.610241  -0.510883  -2.044306
H    -4.356243  2.254968  -0.723304
H    -5.400234  1.821113  -2.065644
H    -2.479293  2.247143  -2.135005
H    -2.248780  1.863258  -5.512760
H    -1.870354  2.979789  -4.314091
H    -5.025031  0.696275  -3.937277
N    -3.863287  -0.648769  2.551301
C    -3.204752  -1.947551  2.604868
H    -4.602209  -0.473923  3.225530
H    -2.198359  -1.895766  3.042384
H    -3.134161  -2.411530  1.613019
H    -3.816932  -2.609416  3.227268
