35
Energy: -21190.1922606 eV PBE+vdW (tier 2 basis)
C    -0.276258  -1.130288  -0.059004
C    -0.217903  0.088192  0.849011
O    0.546641  1.020391  0.634874
H    -1.248692  -1.200318  -0.568311
H    -0.114047  -2.067222  0.492849
H    0.506830  -1.021220  -0.813475
N    -1.053727  0.092839  1.947289
C    -2.139680  -0.832399  2.180014
C    -3.347202  -0.574693  1.245195
O    -3.622698  0.539270  0.794884
H    -1.059222  0.985669  2.438640
H    -1.767664  -1.837319  1.934436
C    -2.550380  -0.903389  3.675693
C    -2.732518  0.389722  4.487059
C    -3.822591  1.387253  4.042756
N    -3.416937  2.347236  3.019824
C    -2.383762  3.252676  3.237532
N    -2.307211  3.739426  4.548328
N    -1.513430  3.659441  2.376818
H    -1.776753  -1.498785  4.182542
H    -3.479008  -1.492712  3.737858
H    -1.779359  0.933291  4.574162
H    -2.965639  0.065558  5.513618
H    -4.175933  1.928826  4.931228
H    -4.700567  0.852200  3.650556
H    -3.422557  1.955166  2.074506
H    -1.642128  4.506261  4.595537
H    -3.201148  3.979214  4.968671
H    -1.575176  3.143429  1.494476
N    -4.110372  -1.659389  0.922318
C    -3.862412  -3.062132  1.220149
H    -4.879924  -1.434068  0.299246
H    -4.676362  -3.653261  0.788052
H    -3.846313  -3.262432  2.300182
H    -2.918791  -3.420233  0.781025
