35
Energy: -21190.2821901 eV PBE+vdW (tier 2 basis)
C    0.265436  0.176195  1.017340
C    -0.046169  0.432066  2.476929
O    0.825907  0.730984  3.290175
H    1.279123  0.537884  0.826534
H    -0.439111  0.666113  0.335564
H    0.231000  -0.900375  0.798966
N    -1.350267  0.297372  2.902646
C    -2.576165  -0.002087  2.154977
C    -2.436835  -1.327578  1.365140
O    -2.553615  -1.387162  0.138166
H    -1.453309  0.522918  3.887467
H    -3.330550  -0.196783  2.935863
C    -3.093774  1.167283  1.292999
C    -4.620856  1.315835  1.245226
C    -5.398610  0.186259  0.546313
N    -4.995233  -0.074400  -0.823991
C    -5.370752  0.779596  -1.837806
N    -4.717466  0.494715  -3.048384
N    -6.212206  1.738008  -1.626870
H    -2.695193  1.075139  0.273186
H    -2.667969  2.086495  1.717474
H    -4.862899  2.253278  0.725603
H    -5.012855  1.418362  2.272108
H    -6.463064  0.453046  0.535535
H    -5.303471  -0.761432  1.098867
H    -4.085947  -0.526643  -0.911056
H    -4.526103  -0.491194  -3.208943
H    -5.150039  0.929640  -3.856021
H    -6.454347  2.212264  -2.499697
N    -2.174727  -2.452066  2.087950
C    -1.995103  -2.603140  3.523173
H    -2.064853  -3.277999  1.507793
H    -2.115928  -3.662329  3.775690
H    -2.757779  -2.044176  4.081301
H    -1.003505  -2.269907  3.859912
