35
Energy: -21190.2554093 eV PBE+vdW (tier 2 basis)
C    -1.126640  -0.512003  -0.386252
C    -0.101841  -0.592020  0.731302
O    0.764021  -1.462080  0.762788
H    -1.032986  0.422940  -0.956925
H    -2.155364  -0.567876  -0.005293
H    -0.949083  -1.353207  -1.060919
N    -0.161240  0.368270  1.713879
C    -1.177660  1.398947  1.914384
C    -0.488305  2.690255  2.413870
O    -0.718334  3.183291  3.521523
H    0.507875  0.213334  2.464138
H    -1.594374  1.636292  0.923623
C    -2.338185  0.968016  2.822542
C    -1.925436  0.347384  4.159467
C    -3.091234  0.240980  5.153613
N    -3.861965  1.476536  5.344686
C    -3.477788  2.470222  6.249509
N    -2.130673  2.807334  6.196619
N    -4.382157  2.953094  7.036427
H    -2.959404  0.251989  2.261021
H    -2.972122  1.845240  3.015290
H    -1.116200  0.931342  4.616736
H    -1.527295  -0.667522  4.006500
H    -2.703221  -0.142436  6.113303
H    -3.809419  -0.502839  4.778941
H    -4.855040  1.308521  5.477535
H    -1.885107  3.594446  6.786343
H    -1.707487  2.869030  5.267442
H    -4.031395  3.773118  7.539730
N    0.402949  3.278764  1.568039
C    0.778472  2.891216  0.217556
H    0.841547  4.103602  1.965562
H    1.304789  3.731413  -0.247537
H    -0.105715  2.676965  -0.397967
H    1.435653  2.011063  0.201072
