35
Energy: -21190.1009515 eV PBE+vdW (tier 2 basis)
C    -1.647887  -0.472936  0.800074
C    -2.446310  -0.253563  2.068107
O    -2.741170  -1.180600  2.819970
H    -2.322255  -0.484879  -0.068170
H    -1.164514  -1.450571  0.875841
H    -0.897580  0.303018  0.611371
N    -2.886913  1.019897  2.357306
C    -2.620372  2.300357  1.697106
C    -2.908313  2.264346  0.175435
O    -2.048001  2.550131  -0.654265
H    -3.410507  1.048040  3.227058
H    -3.360508  2.995536  2.129003
C    -1.229658  2.886483  1.969566
C    -0.903966  3.017796  3.456911
C    0.473721  3.642401  3.738239
N    0.629548  5.041303  3.357038
C    0.740076  5.502317  2.048665
N    1.590053  4.770828  1.222352
N    0.139623  6.602228  1.737131
H    -1.191595  3.867951  1.478932
H    -0.469990  2.270119  1.467056
H    -0.932989  2.027346  3.939224
H    -1.673667  3.629912  3.958564
H    1.260624  3.040719  3.256432
H    0.684675  3.578015  4.815471
H    0.042315  5.686478  3.880199
H    1.357684  4.807136  0.236933
H    1.852085  3.840419  1.528059
H    0.421120  6.927233  0.808471
N    -4.171575  1.911641  -0.206578
C    -5.324260  1.585373  0.617500
H    -4.288583  1.896996  -1.214810
H    -5.287403  0.558898  1.009164
H    -6.227783  1.695318  0.007507
H    -5.417360  2.275846  1.466424
