35
Energy: -21190.1448837 eV PBE+vdW (tier 2 basis)
C    -0.187950  -0.233893  -0.098711
C    -0.135441  -0.546442  1.389569
O    0.661025  -1.367713  1.839722
H    -0.873570  0.579333  -0.367711
H    -0.492659  -1.142763  -0.633176
H    0.822879  0.021162  -0.438408
N    -1.033940  0.160117  2.146219
C    -1.364224  0.062743  3.575300
C    -0.846801  1.255682  4.420069
O    -1.666883  1.923274  5.058101
H    -1.607307  0.821019  1.635621
H    -2.448798  0.228647  3.617829
C    -1.087793  -1.306043  4.229943
C    -1.566287  -1.393385  5.685224
C    -3.081373  -1.226682  5.874018
N    -3.529926  -1.421862  7.245828
C    -3.653918  -2.691659  7.775664
N    -3.943327  -2.666483  9.152006
N    -3.484800  -3.737865  7.039719
H    -0.022075  -1.550188  4.182097
H    -1.596582  -2.072525  3.625279
H    -1.040459  -0.645699  6.301210
H    -1.284853  -2.382060  6.072399
H    -3.612447  -1.962884  5.255175
H    -3.404220  -0.221094  5.572192
H    -3.249938  -0.703676  7.905583
H    -4.211407  -3.571860  9.522935
H    -4.599888  -1.941466  9.432161
H    -3.728805  -4.590017  7.549307
N    0.482402  1.541054  4.486298
C    1.616998  0.947636  3.799364
H    0.662495  2.358550  5.062938
H    2.467427  0.885469  4.490480
H    1.921975  1.545436  2.925790
H    1.389506  -0.063276  3.448170
