35
Energy: -21190.1841633 eV PBE+vdW (tier 2 basis)
C    -0.031135  0.288280  0.010843
C    0.048131  0.206099  1.522668
O    1.108288  0.316312  2.137010
H    0.985806  0.379969  -0.378309
H    -0.620483  1.158890  -0.311022
H    -0.507898  -0.602109  -0.421790
N    -1.132696  0.010942  2.195841
C    -2.476561  -0.044749  1.645985
C    -3.080763  1.275628  1.106211
O    -3.968492  1.198418  0.256159
H    -1.018729  -0.031118  3.204402
H    -2.462934  -0.680582  0.748998
C    -3.456036  -0.708701  2.631546
C    -3.723391  0.056469  3.930319
C    -4.781955  -0.630654  4.805702
N    -6.084530  -0.712758  4.161625
C    -6.599249  -1.918963  3.722633
N    -7.912185  -1.786932  3.241958
N    -5.907133  -3.002874  3.806871
H    -3.085540  -1.719020  2.859775
H    -4.404615  -0.840017  2.095444
H    -4.059103  1.080935  3.700282
H    -2.807134  0.151625  4.538051
H    -4.885852  -0.085075  5.755168
H    -4.472348  -1.657991  5.041955
H    -6.769692  -0.012941  4.417315
H    -8.248986  -2.612764  2.758610
H    -8.079507  -0.945429  2.694778
H    -6.390831  -3.787472  3.366010
N    -2.650073  2.497189  1.545770
C    -1.707803  2.888191  2.588412
H    -3.143431  3.247461  1.071383
H    -1.848339  3.958804  2.775986
H    -0.660384  2.726915  2.301497
H    -1.894917  2.364023  3.533048
