35
Energy: -21190.1560811 eV PBE+vdW (tier 2 basis)
C    1.013437  0.298599  0.227614
C    0.682124  0.247330  1.710905
O    1.568310  0.341080  2.560065
H    1.726103  -0.504196  0.001861
H    1.518079  1.249691  0.016807
H    0.144920  0.201004  -0.435358
N    -0.649979  0.097722  1.988242
C    -1.359928  -0.019006  3.271168
C    -2.211452  1.228434  3.617755
O    -3.411262  1.074478  3.855020
H    -1.256986  0.043624  1.178804
H    -2.136061  -0.780753  3.105734
C    -0.521062  -0.467917  4.475853
C    0.091752  -1.874104  4.325013
C    1.510896  -1.999682  4.901661
N    1.666663  -1.535731  6.269205
C    2.111050  -0.260064  6.598696
N    2.025288  -0.022044  7.979700
N    2.552109  0.672955  5.828899
H    -1.203859  -0.447722  5.336739
H    0.260140  0.265108  4.692565
H    0.149811  -2.159842  3.263215
H    -0.570553  -2.615750  4.799340
H    2.206923  -1.428009  4.275496
H    1.832461  -3.051806  4.847017
H    1.057097  -1.963419  6.959077
H    2.485136  0.854598  8.209622
H    2.366102  -0.785874  8.558637
H    2.455072  0.447174  4.835720
N    -1.632833  2.459666  3.684904
C    -0.262079  2.881658  3.442446
H    -2.309589  3.182346  3.912586
H    0.456160  2.093315  3.684730
H    -0.038089  3.739884  4.086599
H    -0.101429  3.180924  2.394492
