35
Energy: -21190.2498601 eV PBE+vdW (tier 2 basis)
C    0.846196  0.548490  0.572275
C    0.022150  -0.454793  1.364979
O    0.298102  -1.651900  1.370301
H    1.622339  -0.008494  0.041239
H    1.330469  1.281475  1.233702
H    0.241358  1.103445  -0.156754
N    -1.049476  0.021533  2.076717
C    -1.481804  1.391598  2.278216
C    -1.694157  1.602343  3.791141
O    -2.125518  0.696210  4.499821
H    -1.493000  -0.659669  2.692648
H    -0.693961  2.067409  1.915386
C    -2.806541  1.714309  1.549263
C    -2.724853  1.575255  0.029053
C    -4.049094  1.873831  -0.677058
N    -4.425723  3.266452  -0.498894
C    -5.641545  3.820099  -0.870563
N    -6.719130  2.933388  -0.890538
N    -5.691588  5.095107  -1.067466
H    -3.123621  2.733469  1.816194
H    -3.581493  1.037004  1.942021
H    -2.415324  0.553797  -0.235363
H    -1.947434  2.248053  -0.373608
H    -4.826711  1.232568  -0.232031
H    -3.961630  1.592917  -1.745166
H    -3.682194  3.945091  -0.639245
H    -6.525393  1.963702  -1.117068
H    -7.536744  3.288978  -1.371110
H    -6.644525  5.408467  -1.264586
N    -1.413601  2.854394  4.246946
C    -1.650387  3.265453  5.619443
H    -1.061659  3.537922  3.587547
H    -2.001521  2.386493  6.169674
H    -2.416709  4.051213  5.674430
H    -0.726301  3.633204  6.085067
