35
Energy: -21190.4713361 eV PBE+vdW (tier 2 basis)
C    -0.306322  1.299103  -0.241653
C    0.094003  1.033738  1.188684
O    1.184033  1.350824  1.660494
H    0.496416  1.866168  -0.719789
H    -1.243332  1.869826  -0.304262
H    -0.455409  0.343415  -0.773674
N    -0.823763  0.362265  1.983758
C    -2.220450  0.051676  1.697249
C    -3.183857  1.264232  1.783800
O    -4.349854  1.147865  1.413158
H    -0.500064  0.229515  2.939805
H    -2.301376  -0.300594  0.657565
C    -2.740772  -1.052691  2.642385
C    -2.491373  -2.514300  2.246556
C    -1.037393  -3.008657  2.161091
N    -0.287992  -2.588685  0.974928
C    -0.728999  -2.878495  -0.307743
N    -1.218286  -4.174712  -0.465506
N    -0.681833  -1.958546  -1.215034
H    -3.827734  -0.913774  2.712676
H    -2.340626  -0.859557  3.653906
H    -2.988939  -2.722776  1.286816
H    -3.007798  -3.141017  2.991439
H    -1.037110  -4.107071  2.215307
H    -0.459562  -2.669550  3.033600
H    0.032837  -1.625297  1.021787
H    -1.380056  -4.450337  -1.427060
H    -0.752510  -4.894941  0.078760
H    -0.886191  -2.334593  -2.144568
N    -2.658648  2.408337  2.297650
C    -3.422798  3.633942  2.420922
H    -1.674332  2.407692  2.540225
H    -3.419666  3.996857  3.457701
H    -4.452842  3.413807  2.120464
H    -3.021544  4.422648  1.768724
