35
Energy: -21190.4404402 eV PBE+vdW (tier 2 basis)
C    0.542281  0.341005  0.252193
C    0.152477  -0.094992  1.651214
O    0.899585  -0.768059  2.361081
H    1.469336  0.924787  0.310038
H    -0.225835  0.938778  -0.253111
H    0.756136  -0.552568  -0.347298
N    -1.077439  0.331733  2.073739
C    -1.667118  -0.122667  3.317160
C    -3.137844  -0.463277  3.026412
O    -3.762427  0.116461  2.137530
H    -1.739017  0.738680  1.415885
H    -1.105861  -1.018755  3.627012
C    -1.589289  0.935452  4.441830
C    -0.157428  1.332309  4.800593
C    -0.104090  2.329287  5.956503
N    1.271134  2.695007  6.248741
C    1.676664  3.731000  7.073660
N    0.640754  4.545464  7.535199
N    2.893572  4.037708  7.378701
H    -2.101523  0.533757  5.331453
H    -2.161433  1.821849  4.124217
H    0.338942  1.774855  3.925254
H    0.420106  0.429918  5.058784
H    -0.614634  1.888483  6.838394
H    -0.658481  3.241032  5.684999
H    1.973083  1.985099  6.078405
H    0.995924  5.216503  8.209768
H    -0.196494  4.070699  7.859150
H    3.563717  3.453715  6.871192
N    -3.684191  -1.403406  3.843314
C    -5.077586  -1.803682  3.769221
H    -3.077399  -1.864608  4.510689
H    -5.552537  -1.201303  2.988173
H    -5.592326  -1.625225  4.723255
H    -5.172149  -2.866034  3.505641
