35
Energy: -21190.6659981 eV PBE+vdW (tier 2 basis)
C    -0.134818  -1.896229  0.931007
C    -0.425839  -1.404197  2.332285
O    0.349317  -1.611081  3.272838
H    -0.910557  -1.634951  0.201150
H    -0.016787  -2.986551  0.955429
H    0.821753  -1.471310  0.602297
N    -1.588807  -0.709302  2.494240
C    -1.985302  -0.146330  3.784701
C    -2.654068  -1.252242  4.647757
O    -3.880569  -1.385998  4.718666
H    -2.238912  -0.640352  1.719465
H    -1.052185  0.162105  4.279197
C    -2.916400  1.048980  3.614414
C    -3.043134  1.892211  4.898138
C    -4.455892  2.457793  5.120159
N    -5.428079  1.451960  5.520810
C    -5.405140  0.929671  6.819267
N    -5.798233  -0.404138  6.864163
N    -5.137938  1.562540  7.912484
H    -3.902852  0.661953  3.314085
H    -2.546470  1.675175  2.789654
H    -2.312544  2.714861  4.871087
H    -2.790988  1.288132  5.783647
H    -4.824569  2.948260  4.206092
H    -4.426923  3.239333  5.891206
H    -5.602505  0.738619  4.817722
H    -5.758114  -0.763265  7.813046
H    -5.326091  -1.003920  6.185548
H    -5.005485  2.562518  7.741152
N    -1.769985  -2.054306  5.280371
C    -2.193282  -3.211935  6.048119
H    -0.794183  -1.969273  4.987272
H    -2.980492  -2.923442  6.754705
H    -1.335858  -3.597988  6.608409
H    -2.591070  -4.010300  5.403415
