35
Energy: -21190.3895857 eV PBE+vdW (tier 2 basis)
C    -0.978034  -0.664888  -0.610405
C    -1.085693  0.231411  0.608447
O    -0.864788  1.441708  0.552716
H    -1.666805  -0.296988  -1.381090
H    -1.203198  -1.717986  -0.403301
H    0.038315  -0.586041  -1.015791
N    -1.467325  -0.397842  1.761196
C    -1.458709  0.275976  3.044241
C    -0.818021  -0.687222  4.054480
O    -0.834168  -1.904776  3.859170
H    -1.457293  -1.414326  1.822812
H    -0.857722  1.188764  2.913987
C    -2.874598  0.670174  3.524232
C    -3.578154  1.652891  2.588305
C    -4.934209  2.091527  3.132647
N    -5.585795  2.996366  2.198077
C    -6.877295  3.425850  2.434432
N    -7.367423  4.303746  1.457160
N    -7.546929  2.954086  3.431514
H    -2.800102  1.109277  4.531746
H    -3.472115  -0.249167  3.629932
H    -3.713415  1.193278  1.598571
H    -2.930159  2.531573  2.432060
H    -4.819618  2.559273  4.128313
H    -5.600380  1.229941  3.279178
H    -4.970419  3.649360  1.724679
H    -8.060160  4.962645  1.792650
H    -6.689709  4.730352  0.833037
H    -8.519681  3.268607  3.397677
N    -0.264041  -0.156691  5.180172
C    -0.166243  1.237461  5.576107
H    0.065808  -0.861284  5.833319
H    0.722269  1.369776  6.204500
H    -1.046030  1.578698  6.143854
H    -0.049198  1.883523  4.698918
