35
Energy: -21190.1218535 eV PBE+vdW (tier 2 basis)
C    -3.128612  0.670658  2.181111
C    -1.875385  0.379342  2.992702
O    -0.759217  0.734402  2.624814
H    -3.020294  0.213739  1.189490
H    -3.207433  1.754698  2.032089
H    -4.054277  0.305438  2.644155
N    -2.088279  -0.297662  4.160272
C    -1.025027  -0.724192  5.066801
C    -0.120784  0.451043  5.528089
O    1.101767  0.392242  5.476345
H    -3.027248  -0.604300  4.396501
H    -1.548659  -1.066539  5.972699
C    -0.146150  -1.881658  4.549912
C    -0.784122  -2.888358  3.582232
C    -2.158837  -3.493666  3.936341
N    -2.352708  -3.837769  5.343116
C    -3.072520  -3.083592  6.244183
N    -4.160698  -2.376189  5.679934
N    -2.702804  -3.044522  7.480022
H    0.240575  -2.404166  5.436590
H    0.732053  -1.445565  4.058668
H    -0.059652  -3.707994  3.456286
H    -0.884479  -2.431840  2.585482
H    -2.315295  -4.393637  3.320879
H    -2.949800  -2.789738  3.657046
H    -1.572720  -4.296250  5.806291
H    -4.781943  -2.011305  6.395963
H    -4.687174  -2.908776  4.988877
H    -3.398994  -2.583677  8.071029
N    -0.748717  1.542752  6.067509
C    -2.156648  1.764793  6.333570
H    -0.096366  2.275372  6.326246
H    -2.709085  2.124389  5.451648
H    -2.247596  2.515907  7.127543
H    -2.642261  0.848550  6.695610
