35
Energy: -21190.438696 eV PBE+vdW (tier 2 basis)
C    -0.294071  0.187980  -0.205829
C    -0.330810  -0.039162  1.293083
O    0.646735  -0.449188  1.918143
H    0.403943  1.008468  -0.417225
H    -1.271422  0.437080  -0.636913
H    0.099976  -0.712924  -0.690392
N    -1.515862  0.277574  1.899869
C    -1.747747  0.027169  3.306806
C    -3.102283  -0.680064  3.439212
O    -4.009011  -0.469059  2.631176
H    -2.351715  0.443549  1.345399
H    -0.917882  -0.609824  3.646019
C    -1.766710  1.327673  4.145012
C    -0.445047  2.094001  4.104792
C    -0.450769  3.375227  4.951123
N    -1.419307  4.389436  4.551829
C    -1.192253  5.186132  3.444126
N    -2.303648  5.992062  3.137711
N    -0.077810  5.123633  2.799338
H    -2.024132  1.072842  5.187403
H    -2.589308  1.954204  3.763466
H    -0.193439  2.361543  3.070139
H    0.370189  1.446951  4.464313
H    0.539826  3.842963  4.894615
H    -0.648381  3.135792  6.007994
H    -2.394582  4.173319  4.726142
H    -2.107879  6.696707  2.434606
H    -2.770408  6.395005  3.946985
H    -0.020446  5.857059  2.089213
N    -3.273294  -1.507035  4.508801
C    -2.276146  -1.918292  5.485372
H    -4.201908  -1.912526  4.566927
H    -2.724583  -2.675911  6.136291
H    -1.944299  -1.084200  6.121022
H    -1.393595  -2.365602  5.007470
