35
Energy: -21190.2769017 eV PBE+vdW (tier 2 basis)
C    0.044060  -0.760334  0.240352
C    0.091471  -0.631715  1.751998
O    1.083530  -0.973759  2.394797
H    0.241483  -1.805063  -0.028588
H    0.855239  -0.156006  -0.185619
H    -0.905959  -0.445830  -0.208896
N    -1.024313  -0.073103  2.320640
C    -1.323613  -0.015291  3.760769
C    -2.644551  0.736982  3.997057
O    -3.360469  0.460093  4.952937
H    -1.838243  -0.022560  1.716243
H    -1.511396  -1.035699  4.130547
C    -0.225271  0.581954  4.676967
C    0.199504  2.041579  4.462247
C    1.132323  2.307933  3.269173
N    2.376177  1.554017  3.331265
C    3.644500  2.104756  3.344715
N    3.709187  3.416750  3.834199
N    4.735031  1.534431  2.953392
H    0.653903  -0.071293  4.632043
H    -0.637593  0.481288  5.691216
H    0.725675  2.361430  5.375273
H    -0.681990  2.698918  4.380986
H    1.382193  3.375827  3.231947
H    0.614142  2.082181  2.322099
H    2.322775  0.599108  2.984407
H    4.682012  3.696841  3.924385
H    3.190678  3.576075  4.694708
H    4.535824  0.644883  2.486818
N    -2.944168  1.722480  3.093895
C    -4.091508  2.596041  3.270030
H    -2.213264  2.008614  2.450853
H    -4.519922  2.858144  2.295284
H    -3.826136  3.520259  3.805673
H    -4.837529  2.059351  3.864746
