35
Energy: -21190.1968513 eV PBE+vdW (tier 2 basis)
C    -0.108194  0.496819  -0.076127
C    0.000879  0.216783  1.412254
O    1.077681  0.234643  2.003113
H    0.903073  0.653468  -0.459770
H    -0.704774  1.398038  -0.278237
H    -0.572469  -0.339320  -0.616105
N    -1.163705  -0.046532  2.091661
C    -2.520596  -0.158427  1.566317
C    -3.510800  0.474804  2.574559
O    -4.414609  -0.171031  3.101392
H    -1.011733  -0.294034  3.066167
H    -2.566828  0.460301  0.656615
C    -2.929566  -1.590785  1.181960
C    -2.633769  -2.661614  2.233902
C    -3.210642  -4.020758  1.818980
N    -2.879073  -5.115193  2.720508
C    -1.636343  -5.721209  2.645684
N    -1.424585  -6.624761  3.701007
N    -0.808557  -5.421552  1.703642
H    -2.404826  -1.852654  0.249609
H    -4.005466  -1.576782  0.950903
H    -3.066500  -2.362640  3.200258
H    -1.547902  -2.774790  2.361910
H    -2.826218  -4.301629  0.829576
H    -4.307455  -3.960216  1.750811
H    -3.253289  -5.035836  3.660946
H    -0.600899  -7.204032  3.578615
H    -2.238355  -7.181151  3.952289
H    0.008950  -6.035288  1.720509
N    -3.337054  1.801798  2.855902
C    -2.380334  2.743944  2.297893
H    -3.998870  2.147691  3.543337
H    -1.374266  2.629790  2.725118
H    -2.735556  3.759686  2.504046
H    -2.305491  2.639557  1.207094
