35
Energy: -21190.5838369 eV PBE+vdW (tier 2 basis)
C    0.022887  -1.390345  -0.216848
C    0.051340  -0.441282  0.964629
O    1.088352  0.066780  1.375907
H    -0.951845  -1.867356  -0.378706
H    0.783837  -2.165196  -0.067887
H    0.298942  -0.832437  -1.121214
N    -1.173516  -0.198845  1.557006
C    -1.340485  0.862769  2.541250
C    -1.683098  0.381331  3.963451
O    -1.880996  1.200205  4.865490
H    -2.001472  -0.489569  1.045976
H    -0.332475  1.294822  2.645254
C    -2.327939  1.938259  2.060137
C    -1.720241  2.978914  1.115993
C    -0.517766  3.747003  1.720829
N    -0.630045  4.075660  3.133798
C    -1.721767  4.760287  3.658123
N    -1.989009  4.404624  4.976008
N    -2.425108  5.669644  3.067781
H    -2.737359  2.442393  2.943018
H    -3.184872  1.445411  1.571358
H    -2.515373  3.688285  0.848256
H    -1.385982  2.513846  0.174364
H    -0.346872  4.661447  1.130905
H    0.400443  3.153426  1.615305
H    -0.211715  3.409949  3.774323
H    -2.813614  4.878415  5.330216
H    -1.983963  3.400074  5.160753
H    -2.013799  5.920845  2.164875
N    -1.714233  -0.960923  4.143902
C    -1.915336  -1.580279  5.439481
H    -1.462890  -1.530464  3.342698
H    -0.995918  -2.063947  5.799159
H    -2.716876  -2.329155  5.393448
H    -2.198513  -0.792926  6.145769
