35
Energy: -21189.9723523 eV PBE+vdW (tier 2 basis)
C    -0.213566  0.934764  0.653853
C    -0.279321  0.270000  2.013979
O    0.743989  0.107119  2.678023
H    0.844637  1.052574  0.406215
H    -0.680243  1.927901  0.681363
H    -0.707860  0.359338  -0.136251
N    -1.483848  -0.134046  2.556857
C    -2.886242  -0.253540  2.128228
C    -3.311586  -1.743178  2.110711
O    -4.232763  -2.116227  2.838032
H    -1.317559  -0.522443  3.483490
H    -3.486729  0.136937  2.964031
C    -3.295980  0.559416  0.890549
C    -4.809317  0.722797  0.684499
C    -5.593092  -0.520666  0.192802
N    -4.912633  -1.370250  -0.771100
C    -4.545101  -0.949182  -2.035712
N    -3.681393  -1.859283  -2.671480
N    -4.870820  0.135585  -2.651025
H    -2.854706  0.157537  -0.030304
H    -2.876414  1.566406  1.017950
H    -4.934309  1.539260  -0.040457
H    -5.283660  1.068972  1.615951
H    -6.549678  -0.185420  -0.237049
H    -5.844387  -1.163391  1.043797
H    -4.321491  -2.088025  -0.363741
H    -3.973668  -2.830722  -2.590089
H    -3.561119  -1.594709  -3.646061
H    -5.411420  0.761761  -2.051175
N    -2.670731  -2.642519  1.296332
C    -1.501323  -2.473683  0.441087
H    -2.966754  -3.594941  1.491502
H    -1.345081  -3.411455  -0.102478
H    -0.590366  -2.247456  1.011094
H    -1.663790  -1.694360  -0.313130
