35
Energy: -21190.3874878 eV PBE+vdW (tier 2 basis)
C    -0.100063  -2.996805  0.964425
C    0.168601  -1.518462  1.183039
O    1.231324  -1.003598  0.843028
H    0.856843  -3.524993  1.021481
H    -0.502292  -3.144417  -0.047397
H    -0.808025  -3.435326  1.676979
N    -0.806263  -0.763642  1.802171
C    -2.226121  -1.086976  1.952410
C    -2.524522  -2.086372  3.097753
O    -3.572404  -2.730437  3.124127
H    -0.603722  0.241330  1.789738
H    -2.665868  -0.147847  2.322255
C    -2.974829  -1.480977  0.652807
C    -4.326253  -0.773567  0.442968
C    -4.275704  0.575893  -0.294653
N    -3.592341  1.676126  0.395425
C    -2.212183  1.816057  0.465225
N    -1.521294  1.392473  -0.658537
N    -1.537252  2.268340  1.476803
H    -3.152797  -2.562971  0.672493
H    -2.317522  -1.262664  -0.199521
H    -4.839628  -0.657035  1.411022
H    -4.980640  -1.428497  -0.153641
H    -5.303073  0.913170  -0.496559
H    -3.803892  0.437065  -1.276675
H    -4.049345  1.967390  1.254193
H    -0.532920  1.619633  -0.611124
H    -1.945839  1.589347  -1.557979
H    -2.146254  2.433138  2.283619
N    -1.578636  -2.125233  4.072409
C    -1.695934  -2.954566  5.253636
H    -0.736123  -1.583200  3.906316
H    -1.645205  -2.349271  6.169448
H    -0.902204  -3.714499  5.289322
H    -2.667859  -3.458206  5.211900
