35
Energy: -21189.9155529 eV PBE+vdW (tier 2 basis)
C    -0.002230  0.288197  0.130017
C    -0.036928  0.170216  1.641521
O    1.012738  0.138988  2.285646
H    -0.519239  -0.540806  -0.367681
H    1.049822  0.282825  -0.166798
H    -0.466712  1.221571  -0.211163
N    -1.233065  0.115376  2.322168
C    -2.666644  0.043567  2.001102
C    -3.302782  -1.250538  2.568568
O    -4.272431  -1.167393  3.321599
H    -1.047548  0.068526  3.322365
H    -3.155544  0.822303  2.605953
C    -3.082777  0.304708  0.547859
C    -4.599763  0.434025  0.390920
C    -5.016286  0.794429  -1.038963
N    -4.443100  2.055417  -1.510992
C    -5.071956  3.254612  -1.208234
N    -4.494603  4.340535  -1.886820
N    -6.085299  3.279856  -0.414876
H    -2.712950  -0.483964  -0.124157
H    -2.623153  1.245769  0.216194
H    -4.988182  1.201537  1.074773
H    -5.103072  -0.504785  0.665966
H    -6.114316  0.846562  -1.086748
H    -4.681184  0.011679  -1.735582
H    -4.031274  2.027518  -2.436384
H    -4.810834  5.244270  -1.551772
H    -3.481081  4.305396  -1.964611
H    -6.385943  4.237693  -0.221921
N    -2.793473  -2.471947  2.221611
C    -1.640549  -2.820725  1.406446
H    -3.281018  -3.230423  2.688244
H    -0.686340  -2.565821  1.888145
H    -1.675366  -2.336602  0.422371
H    -1.661477  -3.902525  1.234975
