35
Energy: -21190.4905721 eV PBE+vdW (tier 2 basis)
C    -0.437027  -0.759723  0.793324
C    -0.538662  -0.523903  2.288922
O    0.466523  -0.313435  2.973908
H    0.560730  -0.449394  0.471760
H    -1.197350  -0.209425  0.224061
H    -0.554221  -1.828610  0.561177
N    -1.788692  -0.536317  2.855120
C    -2.988243  -1.140494  2.284297
C    -4.123324  -0.135431  1.985489
O    -5.197429  -0.525534  1.529740
H    -1.774566  -0.414691  3.883521
H    -2.727237  -1.569647  1.306364
C    -3.523714  -2.280853  3.177261
C    -2.509915  -3.423694  3.367382
C    -2.429568  -3.999079  4.796855
N    -2.273170  -3.008323  5.876414
C    -1.428673  -1.900754  5.712963
N    -0.154811  -2.186799  5.304482
N    -1.762276  -0.660980  5.927464
H    -4.458590  -2.638501  2.729692
H    -3.796028  -1.842040  4.149006
H    -1.506732  -3.069220  3.089855
H    -2.736615  -4.252855  2.680487
H    -1.609671  -4.734294  4.841097
H    -3.342484  -4.561385  5.036598
H    -3.162704  -2.719433  6.269397
H    0.078816  -3.135421  5.048136
H    0.337444  -1.443043  4.807827
H    -2.748753  -0.595985  6.192968
N    -3.828603  1.162330  2.254485
C    -4.765420  2.244601  2.032253
H    -2.900041  1.353421  2.618138
H    -4.380999  2.958572  1.290281
H    -4.974461  2.784381  2.966159
H    -5.696089  1.806391  1.655496
