35
Energy: -21190.3807848 eV PBE+vdW (tier 2 basis)
C    -0.604515  1.432577  -0.354119
C    -0.249147  0.888058  1.016178
O    0.852378  1.057436  1.529409
H    0.235544  2.036745  -0.705442
H    -1.514609  2.047441  -0.333017
H    -0.776667  0.615394  -1.069412
N    -1.234560  0.190417  1.685771
C    -2.564320  -0.159106  1.204221
C    -3.637231  0.940436  1.397966
O    -4.751463  0.807734  0.894699
H    -0.909783  -0.231325  2.552745
H    -2.522333  -0.319779  0.117177
C    -3.059482  -1.470528  1.841588
C    -3.303098  -1.393239  3.351353
C    -3.809778  -2.713811  3.952180
N    -2.924122  -3.868056  3.778500
C    -1.605852  -3.891104  4.235340
N    -1.402237  -3.194773  5.426844
N    -0.604511  -4.476168  3.672568
H    -2.321550  -2.253436  1.610338
H    -3.996362  -1.737671  1.332027
H    -4.051692  -0.614653  3.566802
H    -2.387143  -1.105580  3.890707
H    -4.772119  -2.988992  3.496662
H    -4.015866  -2.567752  5.022517
H    -3.024193  -4.339673  2.886304
H    -0.474956  -3.382408  5.796624
H    -2.131464  -3.301505  6.126194
H    -0.849870  -4.828498  2.743150
N    -3.255963  2.004480  2.150554
C    -4.134189  3.120559  2.438025
H    -2.305680  1.997859  2.506681
H    -3.715394  4.063024  2.059068
H    -4.308770  3.221258  3.518341
H    -5.090019  2.927502  1.938932
