35
Energy: -21190.0404834 eV PBE+vdW (tier 2 basis)
C    -0.450016  0.217260  -0.040718
C    -0.349526  0.389402  1.465276
O    0.633314  0.883917  2.006786
H    0.308656  -0.508502  -0.360835
H    -0.209856  1.173193  -0.520735
H    -1.433285  -0.123748  -0.388359
N    -1.443247  -0.033778  2.176098
C    -1.508080  -0.060599  3.637156
C    -0.974323  1.242536  4.293145
O    -0.140205  1.208155  5.191351
H    -2.201518  -0.473275  1.668666
H    -2.583339  -0.104609  3.880051
C    -0.803850  -1.297470  4.225563
C    -1.235865  -1.673581  5.647810
C    -2.641599  -2.266001  5.730043
N    -2.988594  -2.545484  7.123173
C    -4.272431  -2.897940  7.528113
N    -5.011784  -3.573320  6.556146
N    -4.815567  -2.660208  8.673737
H    0.276005  -1.104856  4.209835
H    -0.995306  -2.142564  3.545287
H    -1.162143  -0.784070  6.291649
H    -0.521860  -2.406709  6.052026
H    -2.668350  -3.200470  5.145185
H    -3.385091  -1.587424  5.271702
H    -2.523733  -1.936146  7.789107
H    -5.857418  -3.964699  6.960423
H    -4.494709  -4.248495  6.000618
H    -4.226992  -2.049303  9.246546
N    -1.552253  2.423786  3.916084
C    -2.527086  2.691611  2.876214
H    -1.111835  3.222399  4.361983
H    -3.014035  3.649625  3.094176
H    -3.311087  1.924353  2.860332
H    -2.078507  2.750547  1.872050
