35
Energy: -21189.9917039 eV PBE+vdW (tier 2 basis)
C    -1.645287  0.899650  0.262020
C    -1.318879  0.888098  1.746060
O    -0.697980  1.800105  2.283989
H    -0.707975  0.823466  -0.304404
H    -2.101678  1.864057  0.010604
H    -2.317365  0.091694  -0.053510
N    -1.784467  -0.208065  2.431688
C    -1.402417  -0.512081  3.814627
C    -1.845959  -1.919014  4.252353
O    -1.114931  -2.555590  5.007017
H    -2.094170  -0.991661  1.868225
H    -0.304688  -0.573440  3.870359
C    -1.808679  0.565910  4.847908
C    -3.288208  0.939768  4.912223
C    -3.520791  2.152279  5.810548
N    -4.940823  2.496728  5.837430
C    -5.437768  3.569074  6.570432
N    -4.598498  4.683673  6.605523
N    -6.581703  3.440578  7.152965
H    -1.218260  1.460799  4.613423
H    -1.463075  0.197018  5.825066
H    -3.885592  0.094655  5.292826
H    -3.668375  1.178072  3.907165
H    -2.944277  2.998150  5.408165
H    -3.125085  1.955110  6.825324
H    -5.557061  1.698554  5.976053
H    -5.046778  5.528956  6.939618
H    -4.029635  4.844698  5.779339
H    -6.902346  4.327076  7.550995
N    -3.004922  -2.488851  3.775000
C    -4.224655  -1.893110  3.242222
H    -3.106874  -3.429099  4.151511
H    -4.593515  -2.485704  2.393378
H    -4.040977  -0.873429  2.897679
H    -5.016690  -1.852679  4.005169
