35
Energy: -21190.4853355 eV PBE+vdW (tier 2 basis)
C    -3.495002  0.354786  -1.274781
C    -2.696560  0.237553  0.010717
O    -1.724556  0.956847  0.243205
H    -2.827949  0.150911  -2.121910
H    -3.848224  1.388040  -1.379100
H    -4.354050  -0.325397  -1.322633
N    -3.149769  -0.704946  0.891293
C    -2.402196  -1.077023  2.077786
C    -2.416338  -2.611281  2.149905
O    -3.294071  -3.261218  1.575156
H    -3.816631  -1.412904  0.587240
H    -1.380925  -0.688791  1.941926
C    -3.000713  -0.490619  3.375808
C    -2.979199  1.038209  3.414044
C    -3.449737  1.632136  4.747860
N    -4.825015  1.314084  5.108757
C    -5.131340  0.283542  5.975572
N    -6.517859  0.071943  6.070162
N    -4.207537  -0.390934  6.573694
H    -2.454178  -0.882415  4.245262
H    -4.030345  -0.865611  3.477941
H    -3.592709  1.440224  2.591648
H    -1.958058  1.402411  3.220400
H    -3.344415  2.727435  4.710040
H    -2.827358  1.264260  5.573171
H    -5.530553  1.511263  4.406827
H    -6.780057  -0.562554  6.816824
H    -7.077381  0.921397  6.089546
H    -4.609647  -1.031918  7.260824
N    -1.450748  -3.224375  2.888467
C    -0.371290  -2.622418  3.652184
H    -1.580239  -4.229284  2.959188
H    -0.008073  -1.713310  3.159885
H    0.466543  -3.327713  3.702755
H    -0.673486  -2.364272  4.678901
