35
Energy: -21190.1377411 eV PBE+vdW (tier 2 basis)
C    -0.541903  -1.182220  -0.180507
C    -0.468133  -0.289119  1.049255
O    0.377463  0.599726  1.140603
H    0.428983  -1.676133  -0.309729
H    -0.705858  -0.549019  -1.061371
H    -1.327449  -1.947006  -0.139855
N    -1.410636  -0.563604  2.003472
C    -1.632709  0.034550  3.327736
C    -2.917199  0.904123  3.391227
O    -3.806875  0.567806  4.180320
H    -2.072074  -1.294636  1.769150
H    -1.919316  -0.808119  3.973437
C    -0.390835  0.671352  3.980457
C    -0.632376  1.054249  5.452880
C    -1.145404  2.477885  5.693763
N    -0.140100  3.477277  5.364095
C    -0.418173  4.641481  4.692007
N    0.729403  5.428649  4.490136
N    -1.612463  4.908133  4.272991
H    -0.034087  1.538345  3.414083
H    0.415701  -0.072640  3.920203
H    0.312075  0.928969  6.008694
H    -1.342950  0.355390  5.919524
H    -1.443650  2.575840  6.751253
H    -2.035265  2.704418  5.095433
H    0.832453  3.200488  5.415495
H    0.523924  6.357164  4.137620
H    1.369173  5.465436  5.280104
H    -1.654479  5.849012  3.875624
N    -3.052468  1.997563  2.598770
C    -2.095489  2.665329  1.730717
H    -3.909760  2.504986  2.803102
H    -1.177721  2.081152  1.625194
H    -1.835927  3.645251  2.156458
H    -2.525717  2.801408  0.727908
