35
Energy: -21190.2226686 eV PBE+vdW (tier 2 basis)
C    -1.261480  0.141333  -0.067813
C    -0.591629  -0.114242  1.268253
O    0.626546  -0.268837  1.355843
H    -0.721481  -0.402410  -0.849335
H    -1.184199  1.216166  -0.284271
H    -2.322024  -0.140258  -0.089726
N    -1.460498  -0.190964  2.331942
C    -1.138280  0.013173  3.742999
C    -0.956984  1.532364  4.006480
O    -0.646334  2.312901  3.113826
H    -2.415267  0.057308  2.096658
H    -2.030874  -0.325057  4.295488
C    0.069459  -0.782617  4.287751
C    -0.152465  -2.287820  4.483778
C    -0.160751  -3.143624  3.200873
N    1.027168  -3.015684  2.379056
C    2.261042  -3.499358  2.786001
N    3.322317  -2.924425  2.087890
N    2.509946  -4.431736  3.646724
H    0.325977  -0.344792  5.262622
H    0.934253  -0.595840  3.641244
H    -1.096293  -2.462806  5.028943
H    0.652974  -2.660357  5.134177
H    -1.020073  -2.882931  2.569295
H    -0.299730  -4.200210  3.478010
H    1.051852  -2.168699  1.811930
H    4.218411  -3.176105  2.490879
H    3.234966  -1.936436  1.869366
H    1.646972  -4.849305  4.002059
N    -1.151006  1.957129  5.294109
C    -1.721237  1.221998  6.412547
H    -1.024038  2.958488  5.401627
H    -2.761860  0.912186  6.227463
H    -1.719893  1.876449  7.290349
H    -1.132684  0.330433  6.667955
