35
Energy: -21190.377812 eV PBE+vdW (tier 2 basis)
C    0.539207  0.559470  1.781584
C    -0.162701  -0.774128  1.941156
O    0.390300  -1.760428  2.421462
H    0.559914  0.878790  0.729621
H    1.565658  0.441446  2.137867
H    0.033218  1.345882  2.357655
N    -1.464095  -0.864095  1.493841
C    -2.355834  0.219218  1.077760
C    -2.996942  0.836370  2.347212
O    -2.514955  1.853722  2.850328
H    -1.892835  -1.760408  1.715168
H    -1.731542  1.024780  0.670930
C    -3.294398  -0.289141  -0.029073
C    -3.951401  0.767960  -0.931631
C    -4.918392  1.776805  -0.282834
N    -5.900016  1.224440  0.662375
C    -6.567956  0.029041  0.446087
N    -7.134747  -0.092657  -0.814856
N    -6.576519  -0.858059  1.392830
H    -4.066462  -0.952310  0.391508
H    -2.679559  -0.931094  -0.677309
H    -4.490878  0.224761  -1.720544
H    -3.169059  1.350655  -1.445221
H    -5.432150  2.331126  -1.084141
H    -4.360344  2.530278  0.288860
H    -5.553770  1.231470  1.617369
H    -7.747318  -0.888111  -0.948387
H    -7.477193  0.763726  -1.238948
H    -7.223170  -1.625165  1.193111
N    -4.030998  0.150989  2.908434
C    -4.625136  0.555874  4.172550
H    -4.527918  -0.575275  2.389319
H    -4.544532  1.643451  4.287355
H    -4.113689  0.086579  5.025798
H    -5.678642  0.253812  4.176866
