35
Energy: -21190.0886393 eV PBE+vdW (tier 2 basis)
C    -0.993332  -0.645430  0.494636
C    -0.844445  -0.123230  1.911746
O    0.139525  0.521465  2.271847
H    -0.213871  -1.398257  0.315578
H    -0.814209  0.180330  -0.203749
H    -1.971965  -1.093659  0.281921
N    -1.863093  -0.443390  2.764953
C    -1.913329  -0.061353  4.179381
C    -1.932035  1.482534  4.375597
O    -1.200222  2.033462  5.187877
H    -2.619705  -1.008809  2.402362
H    -2.891082  -0.431926  4.531771
C    -0.820434  -0.674135  5.069657
C    -0.617973  -2.191293  4.966832
C    0.254270  -2.678923  3.786194
N    1.512153  -1.977323  3.621340
C    2.742402  -2.364103  4.113266
N    2.723657  -3.511935  4.918714
N    3.880064  -1.809488  3.856342
H    -1.088562  -0.412304  6.101468
H    0.125985  -0.153748  4.880241
H    -1.585185  -2.722070  4.926739
H    -0.140082  -2.518439  5.904030
H    -0.308165  -2.595333  2.846028
H    0.471235  -3.748548  3.911862
H    1.481900  -1.079851  3.147030
H    3.652999  -3.665811  5.300692
H    2.014758  -3.519117  5.647594
H    3.781012  -1.072845  3.152157
N    -2.832820  2.206732  3.638713
C    -3.877996  1.763262  2.735542
H    -2.757706  3.203066  3.816788
H    -4.639472  2.549580  2.672388
H    -4.379921  0.860921  3.111124
H    -3.509069  1.560110  1.718603
