35
Energy: -21190.6154673 eV PBE+vdW (tier 2 basis)
C    -2.912759  -0.127162  1.265479
C    -1.979281  -0.373998  2.436794
O    -0.756623  -0.365497  2.311942
H    -2.599915  -0.762984  0.428880
H    -2.797461  0.914439  0.935197
H    -3.968176  -0.314440  1.495776
N    -2.602411  -0.618799  3.638851
C    -1.842562  -0.765451  4.871471
C    -1.680590  -2.235691  5.336849
O    -1.128160  -2.495751  6.404856
H    -3.612633  -0.452332  3.698201
H    -0.817227  -0.439686  4.629058
C    -2.383648  0.072803  6.038717
C    -2.167762  1.590696  5.949989
C    -3.158770  2.389146  5.086263
N    -4.552778  2.198776  5.484489
C    -5.377749  1.278050  4.859419
N    -6.340303  0.714221  5.686229
N    -5.315092  0.881960  3.626076
H    -1.864141  -0.304850  6.928822
H    -3.450268  -0.158830  6.195826
H    -1.148791  1.804041  5.589296
H    -2.211832  2.001403  6.972641
H    -3.065129  2.114806  4.028831
H    -2.915457  3.460192  5.146831
H    -4.699861  2.287691  6.486157
H    -6.618654  1.240370  6.506587
H    -7.121044  0.322958  5.170111
H    -4.615244  1.423029  3.114593
N    -2.166798  -3.173349  4.484573
C    -2.022371  -4.595215  4.716245
H    -2.572530  -2.835920  3.618650
H    -1.356185  -5.057139  3.973210
H    -2.996847  -5.101537  4.682019
H    -1.584946  -4.725949  5.712073
