35
Energy: -21190.2634383 eV PBE+vdW (tier 2 basis)
C    -0.549885  0.632770  -0.391004
C    -0.297333  1.100888  1.029445
O    0.431213  2.062885  1.257161
H    -1.422338  -0.011733  -0.527163
H    0.338090  0.081162  -0.730059
H    -0.646564  1.520614  -1.024396
N    -0.821657  0.378751  2.089036
C    -1.941454  -0.569236  2.148035
C    -1.782746  -1.776048  1.190653
O    -2.745731  -2.287127  0.624783
H    -0.586288  0.827291  2.971862
H    -1.855200  -1.027408  3.147985
C    -3.344240  0.064119  2.108173
C    -3.715136  0.872684  0.865851
C    -5.099535  1.535756  0.953634
N    -5.237206  2.537704  1.995666
C    -5.770115  2.291400  3.253270
N    -5.650665  3.403636  4.098485
N    -6.317829  1.217934  3.709508
H    -3.434695  0.701500  3.000392
H    -4.063111  -0.758052  2.235766
H    -3.708822  0.223723  -0.022324
H    -2.970578  1.665918  0.689159
H    -5.879897  0.777206  1.109500
H    -5.327173  2.009197  -0.013904
H    -4.578507  3.308958  1.955112
H    -6.167931  3.247098  4.959080
H    -5.897820  4.290912  3.667170
H    -6.234007  0.436121  3.056938
N    -0.511445  -2.257061  1.107772
C    -0.150607  -3.379869  0.265765
H    0.218214  -1.716537  1.559784
H    0.422102  -3.057605  -0.617058
H    -1.077248  -3.855491  -0.072117
H    0.446011  -4.111013  0.826684
