35
Energy: -21190.1539094 eV PBE+vdW (tier 2 basis)
C    -0.021734  0.194677  0.077712
C    -0.004973  -0.077492  1.568585
O    1.037744  -0.193284  2.210670
H    1.010799  0.194760  -0.279860
H    -0.481132  1.168388  -0.145453
H    -0.596027  -0.566162  -0.468874
N    -1.223595  -0.181711  2.193978
C    -2.543892  0.009035  1.619169
C    -2.957140  1.450261  1.229323
O    -3.828505  1.583727  0.370160
H    -1.148777  -0.361191  3.191120
H    -2.588594  -0.518134  0.655355
C    -3.627549  -0.628061  2.510997
C    -3.846640  0.044361  3.869225
C    -4.867429  -0.687140  4.753057
N    -4.436203  -2.011977  5.171789
C    -4.902793  -3.190191  4.593280
N    -4.434781  -4.321081  5.271220
N    -5.677847  -3.339007  3.577004
H    -3.364758  -1.686846  2.649135
H    -4.565295  -0.606367  1.938691
H    -4.197610  1.078624  3.722393
H    -2.903386  0.108334  4.437023
H    -5.835183  -0.757475  4.229299
H    -5.055831  -0.088976  5.655605
H    -4.189990  -2.102616  6.150875
H    -4.680699  -5.167986  4.766857
H    -3.447971  -4.294665  5.514531
H    -6.056105  -2.449782  3.244268
N    -2.383730  2.547313  1.810392
C    -1.420656  2.692443  2.896148
H    -2.767120  3.404170  1.422589
H    -1.418476  3.746310  3.196501
H    -0.398777  2.420106  2.601511
H    -1.698010  2.102581  3.777834
