35
Energy: -21190.2454681 eV PBE+vdW (tier 2 basis)
C    -0.070641  0.904695  -0.398114
C    0.154889  0.393523  1.010566
O    1.271962  0.326650  1.520862
H    0.903282  1.002412  -0.884204
H    -0.562231  1.887929  -0.383559
H    -0.714093  0.236738  -0.986188
N    -0.957362  0.000939  1.716495
C    -2.356778  0.121924  1.332144
C    -2.861008  1.569544  1.130351
O    -3.571789  1.829766  0.158322
H    -0.747590  -0.322739  2.657065
H    -2.505339  -0.331128  0.340040
C    -3.223119  -0.645194  2.346086
C    -4.706300  -0.710258  1.979730
C    -5.568357  -1.421834  3.031233
N    -5.228506  -2.817001  3.269151
C    -4.411250  -3.205921  4.312133
N    -4.147095  -4.585404  4.286990
N    -3.947536  -2.347111  5.156978
H    -3.114260  -0.208085  3.350064
H    -2.811869  -1.663448  2.419125
H    -4.825292  -1.205879  1.001462
H    -5.112897  0.303681  1.844978
H    -6.623546  -1.369489  2.722608
H    -5.478188  -0.917199  4.001404
H    -5.231909  -3.431820  2.462637
H    -3.677732  -4.924066  5.119909
H    -4.943627  -5.169275  4.043184
H    -3.465392  -2.814207  5.927669
N    -2.533112  2.538445  2.036061
C    -1.732945  2.474667  3.252289
H    -2.915672  3.442731  1.777925
H    -2.031613  1.637386  3.895102
H    -1.908951  3.395786  3.819030
H    -0.656202  2.395231  3.048162
