35
Energy: -21190.4807096 eV PBE+vdW (tier 2 basis)
C    -0.951191  2.452660  1.395476
C    -0.785603  1.481316  2.541766
O    0.223296  0.756646  2.617465
H    0.006868  2.949001  1.206954
H    -1.726646  3.209174  1.566856
H    -1.217010  1.880797  0.492752
N    -1.800898  1.460307  3.444028
C    -2.129583  0.503524  4.525706
C    -1.101701  0.266514  5.658923
O    -1.539435  -0.038144  6.770785
H    -2.548945  2.114699  3.247289
H    -2.950288  0.994369  5.064958
C    -2.696884  -0.831669  3.992725
C    -1.696978  -1.789925  3.315463
C    -2.197434  -2.343548  1.972398
N    -2.525211  -1.308950  0.990048
C    -1.685552  -0.856590  -0.018501
N    -0.330994  -1.090759  0.197259
N    -2.061563  -0.258086  -1.104312
H    -3.495081  -0.566139  3.282708
H    -3.184046  -1.326032  4.844226
H    -1.479162  -2.638700  3.979965
H    -0.737247  -1.287283  3.151006
H    -3.107541  -2.940890  2.132376
H    -1.440783  -3.018737  1.547491
H    -3.506001  -1.200317  0.767687
H    0.209356  -0.679902  -0.559059
H    0.023819  -0.792533  1.106487
H    -3.079438  -0.290420  -1.215470
N    0.210561  0.382708  5.365211
C    1.229977  0.120524  6.363714
H    0.467495  0.498532  4.376612
H    2.173893  0.569942  6.036482
H    1.384547  -0.958244  6.521565
H    0.930849  0.558030  7.323345
