35
Energy: -21190.5432961 eV PBE+vdW (tier 2 basis)
C    -0.126061  -0.280090  0.257787
C    -0.037682  -0.128027  1.766255
O    0.961912  0.320952  2.322648
H    0.101015  0.685766  -0.209066
H    -1.103296  -0.630798  -0.097224
H    0.644242  -0.991200  -0.066596
N    -1.146970  -0.528624  2.460697
C    -1.200243  -0.515331  3.921474
C    -2.092912  -1.685602  4.387822
O    -1.595478  -2.728955  4.812405
H    -1.940938  -0.902637  1.954821
H    -0.190517  -0.759432  4.277237
C    -1.610147  0.864629  4.461580
C    -1.669232  0.927656  5.997275
C    -2.759927  1.866887  6.527002
N    -4.110092  1.400118  6.172123
C    -4.753731  1.787407  5.008528
N    -4.748571  3.153709  4.778468
N    -5.268846  0.877579  4.237245
H    -2.581710  1.133555  4.024271
H    -0.890194  1.600095  4.077614
H    -0.695752  1.235942  6.407143
H    -1.857568  -0.076866  6.412719
H    -2.628738  2.879174  6.123041
H    -2.692793  1.943697  7.622052
H    -4.225932  0.396805  6.302465
H    -4.805451  3.755545  5.593360
H    -5.293298  3.472864  3.987146
H    -5.868170  1.285234  3.515517
N    -3.437797  -1.511752  4.264094
C    -4.357358  -2.558357  4.676633
H    -3.872309  -0.604004  4.050755
H    -4.127616  -2.908791  5.692908
H    -4.299455  -3.429946  4.009475
H    -5.371716  -2.146292  4.648886
