35
Energy: -21189.9907006 eV PBE+vdW (tier 2 basis)
C    0.157483  0.875624  0.455502
C    0.193474  -0.398563  1.277818
O    1.269563  -0.857959  1.661027
H    -0.312269  1.695270  1.013993
H    -0.385564  0.758845  -0.489174
H    1.195044  1.145569  0.241930
N    -0.967475  -1.050934  1.637447
C    -2.405364  -0.959771  1.344556
C    -2.917109  -2.200197  0.572241
O    -3.891377  -2.813813  1.022972
H    -0.729434  -1.872191  2.190473
H    -2.915062  -1.071016  2.314078
C    -2.894749  0.372294  0.751224
C    -4.419729  0.580966  0.757869
C    -5.244637  -0.174174  -0.297534
N    -4.751096  0.031686  -1.644916
C    -4.567508  -0.956117  -2.591671
N    -3.971888  -0.469035  -3.768703
N    -4.812119  -2.218639  -2.501008
H    -2.519431  0.511464  -0.270703
H    -2.454476  1.175136  1.358130
H    -4.596772  1.661294  0.627724
H    -4.832853  0.327715  1.746042
H    -6.296869  0.147170  -0.209194
H    -5.227741  -1.248208  -0.081999
H    -4.439569  0.964104  -1.889773
H    -4.355048  0.411354  -4.105113
H    -4.011826  -1.182297  -4.492086
H    -5.173687  -2.475449  -1.579835
N    -2.309740  -2.601603  -0.575211
C    -1.306743  -1.932446  -1.389497
H    -2.830827  -3.343020  -1.035948
H    -1.621693  -0.927647  -1.705838
H    -1.171007  -2.525315  -2.299154
H    -0.340134  -1.870498  -0.875848
