35
Energy: -21190.0977232 eV PBE+vdW (tier 2 basis)
C    -2.416240  0.787170  0.242345
C    -1.589425  0.717990  1.514736
O    -0.371151  0.856499  1.515759
H    -3.499961  0.807321  0.413145
H    -2.174354  -0.085396  -0.378428
H    -2.122636  1.680611  -0.320590
N    -2.306139  0.505935  2.665138
C    -1.701437  0.250911  3.974559
C    -0.496228  1.181750  4.277598
O    0.586400  0.728836  4.630839
H    -3.301219  0.338345  2.575986
H    -2.479035  0.520720  4.710792
C    -1.326364  -1.232119  4.142447
C    -1.053231  -1.707282  5.575208
C    -2.213966  -1.527139  6.569520
N    -3.486267  -2.129714  6.195318
C    -3.708228  -3.499851  6.248391
N    -4.935300  -3.856361  5.666912
N    -2.954810  -4.419322  6.742756
H    -0.437471  -1.423662  3.527264
H    -2.146172  -1.827091  3.709143
H    -0.174423  -1.182420  5.973013
H    -0.786103  -2.772998  5.522497
H    -2.405715  -0.458696  6.750059
H    -1.921554  -1.937715  7.547316
H    -3.998961  -1.658696  5.457344
H    -5.122193  -4.842439  5.829264
H    -5.718292  -3.277685  5.962370
H    -2.037831  -4.057296  7.012507
N    -0.721803  2.532712  4.265028
C    -1.884029  3.272165  3.811379
H    0.132487  3.058861  4.421408
H    -1.848925  4.277926  4.247054
H    -2.812316  2.799628  4.155420
H    -1.930584  3.369142  2.715109
