35
Energy: -21190.7131536 eV PBE+vdW (tier 2 basis)
C    0.329158  -0.618552  0.050908
C    0.240599  -0.143169  1.488919
O    1.188564  0.471590  2.009103
H    -0.457416  -1.334366  -0.215513
H    1.314086  -1.073666  -0.106564
H    0.261314  0.252384  -0.615045
N    -0.933698  -0.418535  2.108226
C    -1.244792  -0.289645  3.541172
C    -1.261258  1.130759  4.156007
O    -2.166105  1.418008  4.945837
H    -1.527931  -1.124714  1.644584
H    -2.299304  -0.586750  3.612956
C    -0.441359  -1.264483  4.436121
C    -0.858041  -2.732508  4.251978
C    -0.262213  -3.441557  3.015748
N    -1.163883  -4.436930  2.444110
C    -2.176377  -4.089139  1.586160
N    -2.884067  -5.193765  1.101481
N    -2.392736  -2.851275  1.258800
H    -0.635486  -0.973156  5.478081
H    0.636870  -1.124924  4.265201
H    -1.954398  -2.775690  4.176523
H    -0.593277  -3.306752  5.151978
H    0.663731  -3.963622  3.288623
H    0.003910  -2.714334  2.240153
H    -0.824947  -5.386893  2.367956
H    -3.728897  -4.957957  0.593029
H    -3.040787  -5.939895  1.773419
H    -3.239904  -2.766910  0.694046
N    -0.242100  1.952873  3.822326
C    -0.122922  3.291541  4.360831
H    0.479004  1.566993  3.193064
H    0.700365  3.363114  5.088218
H    -1.059199  3.544882  4.870024
H    0.062044  4.015229  3.555390
