35
Energy: -21190.0530854 eV PBE+vdW (tier 2 basis)
C    0.752632  -0.140400  0.056176
C    0.369746  -0.277756  1.518258
O    1.203440  -0.293015  2.418691
H    1.365904  -1.004818  -0.228347
H    1.374435  0.754951  -0.062250
H    -0.105487  -0.072294  -0.624047
N    -0.979836  -0.368404  1.766553
C    -1.481438  -0.695317  3.105782
C    -2.882419  -1.322798  3.024732
O    -3.096516  -2.425021  3.521197
H    -1.587331  -0.555290  0.977018
H    -0.849661  -1.496350  3.515574
C    -1.399645  0.497426  4.082255
C    -1.811557  0.127762  5.507528
C    -1.640858  1.307305  6.478620
N    -1.975889  1.016923  7.859802
C    -1.121750  0.514830  8.828104
N    0.194960  0.319963  8.407335
N    -1.419472  0.288678  10.064443
H    -0.354375  0.837282  4.072641
H    -2.007630  1.337800  3.716256
H    -2.858512  -0.214291  5.537544
H    -1.212914  -0.729646  5.855241
H    -2.271199  2.147532  6.145677
H    -0.605566  1.677455  6.448803
H    -2.954862  1.016408  8.114199
H    0.320846  -0.138682  7.509755
H    0.732314  -0.124941  9.145591
H    -2.366850  0.607745  10.285243
N    -3.884910  -0.649972  2.365458
C    -3.972136  0.746828  1.961810
H    -4.761624  -1.163555  2.410364
H    -4.371410  1.389720  2.762603
H    -2.990384  1.133004  1.671517
H    -4.635736  0.828829  1.091837
