35
Energy: -21190.188889 eV PBE+vdW (tier 2 basis)
C    0.119383  -0.320807  0.464131
C    0.035970  -0.134158  1.972369
O    1.047203  -0.038577  2.663208
H    1.178014  -0.379706  0.198512
H    -0.330192  0.527454  -0.072559
H    -0.386644  -1.236022  0.130623
N    -1.211473  -0.079029  2.538235
C    -2.505220  -0.062858  1.886671
C    -3.316299  1.108972  2.471070
O    -3.175573  1.449714  3.643244
H    -1.224886  0.154667  3.530451
H    -2.350721  0.081354  0.809604
C    -3.308845  -1.368128  2.109954
C    -2.656381  -2.607126  1.501212
C    -3.480858  -3.877282  1.754157
N    -2.861999  -5.099478  1.268617
C    -1.877646  -5.724876  2.015705
N    -1.331981  -6.854919  1.393742
N    -1.604029  -5.307273  3.204007
H    -4.324100  -1.233444  1.699819
H    -3.431232  -1.504390  3.195795
H    -1.658135  -2.753112  1.937179
H    -2.527212  -2.467565  0.413593
H    -4.474897  -3.790812  1.288111
H    -3.625874  -4.008615  2.834288
H    -2.807164  -5.207710  0.262537
H    -0.388620  -7.078962  1.688306
H    -1.454955  -6.939130  0.389323
H    -0.943360  -5.929298  3.674066
N    -4.228769  1.709146  1.651647
C    -4.457919  1.464054  0.237346
H    -4.756531  2.448737  2.104334
H    -3.570732  1.686306  -0.374580
H    -5.265754  2.121835  -0.099585
H    -4.770967  0.428533  0.039484
