35
Energy: -21190.2818048 eV PBE+vdW (tier 2 basis)
C    -1.610311  -4.175085  0.241725
C    -0.762150  -3.287342  1.130049
O    0.431876  -3.517792  1.295864
H    -1.713073  -5.147880  0.741802
H    -1.061024  -4.345104  -0.690623
H    -2.609000  -3.797962  0.009014
N    -1.357358  -2.254613  1.838769
C    -2.618226  -1.530374  1.625629
C    -3.870004  -2.439228  1.685506
O    -4.875006  -2.213010  1.008795
H    -0.652351  -1.743759  2.365862
H    -2.720882  -0.906243  2.529976
C    -2.637334  -0.550315  0.442782
C    -2.558053  -1.142361  -0.963412
C    -2.881798  -0.115240  -2.058745
N    -4.123207  0.646912  -1.854170
C    -5.390960  0.152044  -2.197706
N    -5.614748  -1.162729  -1.818346
N    -6.319374  0.813719  -2.805586
H    -1.811352  0.163435  0.593841
H    -3.564366  0.034836  0.521809
H    -3.251676  -1.985666  -1.063449
H    -1.551329  -1.536836  -1.170220
H    -2.889209  -0.632386  -3.033663
H    -2.075969  0.632344  -2.097083
H    -4.032899  1.617549  -2.132602
H    -5.321322  -1.422771  -0.874443
H    -6.573419  -1.432379  -2.017109
H    -5.963258  1.703885  -3.165620
N    -3.792298  -3.440797  2.597823
C    -4.858213  -4.399470  2.813672
H    -2.895833  -3.576882  3.053343
H    -4.592181  -5.392042  2.421082
H    -5.747304  -4.039084  2.286364
H    -5.086007  -4.490978  3.883499
