35
Energy: -21190.1864757 eV PBE+vdW (tier 2 basis)
C    -0.062150  -0.003783  -0.071199
C    0.080466  -0.014940  1.441892
O    1.180854  -0.087496  1.984784
H    0.945345  0.002151  -0.494967
H    -0.606777  0.876684  -0.436522
H    -0.593843  -0.894871  -0.429770
N    -1.064264  0.059739  2.197667
C    -2.466529  0.078309  1.779096
C    -3.162603  1.203496  2.580664
O    -3.787462  0.968929  3.611606
H    -0.890468  -0.006235  3.198804
H    -2.484232  0.330271  0.709709
C    -3.184586  -1.258700  1.997115
C    -2.623728  -2.400119  1.149844
C    -3.332167  -3.737559  1.395858
N    -4.751358  -3.711072  1.054997
C    -5.720253  -3.784332  2.043076
N    -7.013595  -3.890987  1.502467
N    -5.397538  -3.782272  3.288960
H    -4.250823  -1.114794  1.768163
H    -3.149418  -1.517193  3.064674
H    -1.553471  -2.544912  1.368259
H    -2.696698  -2.144999  0.078049
H    -3.259308  -4.013548  2.456726
H    -2.841063  -4.528174  0.809445
H    -5.010676  -4.140858  0.175141
H    -7.748719  -3.769233  2.190914
H    -7.176985  -3.313689  0.680702
H    -6.222754  -3.742068  3.890043
N    -3.027895  2.481199  2.108679
C    -2.207551  2.954999  1.007390
H    -3.430960  3.174831  2.731114
H    -2.464241  2.451386  0.064877
H    -1.131369  2.824137  1.196132
H    -2.402600  4.023395  0.866351
