35
Energy: -21190.5828658 eV PBE+vdW (tier 2 basis)
C    0.621613  -0.980140  0.526304
C    0.265889  -0.990621  1.997525
O    0.927524  -1.628296  2.825211
H    1.639830  -0.586635  0.415356
H    -0.060444  -0.380991  -0.089036
H    0.627979  -2.012467  0.155505
N    -0.819466  -0.247669  2.355951
C    -1.266476  -0.121889  3.743840
C    -2.160151  -1.336745  4.124522
O    -3.386757  -1.258387  4.184794
H    -1.384387  0.183827  1.633073
H    -0.353901  -0.159924  4.358191
C    -1.989205  1.205365  3.954812
C    -2.244659  1.517006  5.430822
C    -2.969876  2.847187  5.619538
N    -3.197518  3.112167  7.029457
C    -3.729973  4.325403  7.453421
N    -4.004563  4.330835  8.825536
N    -3.981863  5.374690  6.749655
H    -2.950139  1.174890  3.417359
H    -1.377024  2.003940  3.506789
H    -1.291690  1.547016  5.982248
H    -2.849644  0.707416  5.867523
H    -3.915507  2.838368  5.042564
H    -2.354462  3.665756  5.213527
H    -3.517846  2.309966  7.565496
H    -4.268961  5.261960  9.134189
H    -3.272722  3.928296  9.405056
H    -3.875774  5.191228  5.749531
N    -1.442589  -2.464726  4.364416
C    -2.069992  -3.747286  4.617622
H    -0.446999  -2.425269  4.132210
H    -1.563760  -4.263448  5.443298
H    -2.044513  -4.395960  3.728751
H    -3.115995  -3.569505  4.888242
