35
Energy: -21190.2117229 eV PBE+vdW (tier 2 basis)
C    -0.776751  -0.764632  -1.111124
C    -0.382514  -0.467980  0.323821
O    0.591216  -0.987921  0.861363
H    0.088245  -0.582384  -1.759847
H    -1.626718  -0.171443  -1.470814
H    -1.027908  -1.829941  -1.190873
N    -1.187257  0.427720  0.982403
C    -1.008598  0.713960  2.406450
C    -2.361101  1.133759  3.010997
O    -2.973726  0.414679  3.792024
H    -2.031239  0.754684  0.527252
H    -0.745072  -0.230013  2.902669
C    0.125879  1.725200  2.656414
C    0.353537  2.001902  4.142496
C    1.532899  2.941474  4.387741
N    1.696422  3.201419  5.808108
C    2.466493  4.213800  6.360410
N    2.995916  5.114453  5.433383
N    2.660981  4.427680  7.618546
H    -0.080579  2.666690  2.118249
H    1.035008  1.305643  2.202329
H    0.531807  1.045435  4.661962
H    -0.548257  2.439107  4.598993
H    1.348468  3.902045  3.883126
H    2.443471  2.502158  3.931637
H    1.515796  2.422903  6.430695
H    3.614720  5.770693  5.900833
H    3.418495  4.707306  4.604107
H    2.109029  3.787561  8.195990
N    -2.830999  2.347173  2.581333
C    -4.067450  2.923054  3.080594
H    -2.202416  2.942744  2.053911
H    -4.645485  3.364358  2.258915
H    -3.880092  3.695885  3.840822
H    -4.647540  2.117342  3.541899
