35
Energy: -21190.4306578 eV PBE+vdW (tier 2 basis)
C    -2.089802  -0.531949  3.902308
C    -0.929656  -0.474381  2.926168
O    -1.026941  -0.862898  1.767401
H    -1.839146  -0.188101  4.913556
H    -2.457658  -1.563930  3.955001
H    -2.909262  0.083261  3.509595
N    0.247083  0.025960  3.443424
C    1.401410  0.332325  2.607243
C    2.658588  -0.500188  2.947459
O    3.761315  -0.181634  2.508170
H    0.207488  0.466998  4.357212
H    1.107419  0.019505  1.591051
C    1.722039  1.832004  2.618015
C    0.666980  2.686187  1.917615
C    0.852165  4.192143  2.158384
N    0.711629  4.587940  3.557054
C    -0.450009  5.060181  4.148437
N    -1.612758  4.830566  3.413382
N    -0.539389  5.693169  5.270735
H    2.705342  1.962375  2.145921
H    1.830982  2.160928  3.665889
H    -0.340022  2.387324  2.254296
H    0.690026  2.495432  0.833175
H    0.135417  4.760968  1.548153
H    1.856693  4.493327  1.826251
H    1.557427  4.843531  4.048571
H    -2.433990  5.074619  3.958054
H    -1.693174  3.928106  2.955426
H    0.384307  5.928248  5.643964
N    2.437411  -1.596868  3.720784
C    3.480305  -2.548896  4.046527
H    1.477890  -1.786197  3.987555
H    3.312000  -3.515145  3.549391
H    3.538381  -2.713059  5.131008
H    4.430509  -2.132849  3.694825
