35
Energy: -21190.4496836 eV PBE+vdW (tier 2 basis)
C    0.505654  0.742781  3.048918
C    0.697969  -0.660079  2.508098
O    1.720391  -1.312519  2.709289
H    0.335746  1.465394  2.237597
H    1.414293  1.020904  3.588947
H    -0.360437  0.790108  3.722507
N    -0.318407  -1.188189  1.743439
C    -1.664729  -0.664399  1.533685
C    -2.589245  -1.102007  2.700298
O    -2.706829  -0.387039  3.698449
H    -0.155185  -2.158191  1.482484
H    -1.618076  0.429234  1.616528
C    -2.159311  -1.056153  0.138471
C    -3.544754  -0.488631  -0.213830
C    -4.334901  -1.354465  -1.220838
N    -5.336591  -2.248514  -0.651681
C    -5.075173  -3.483625  -0.118158
N    -6.240253  -4.175663  0.225647
N    -3.859644  -3.897378  0.073250
H    -2.186645  -2.152866  0.046825
H    -1.414425  -0.709206  -0.592839
H    -3.429907  0.524655  -0.626119
H    -4.157585  -0.375330  0.693297
H    -3.644051  -1.970144  -1.813303
H    -4.873984  -0.707058  -1.925939
H    -6.230105  -1.838984  -0.407472
H    -6.087276  -5.120654  0.558651
H    -7.008317  -4.113185  -0.436547
H    -3.844511  -4.891354  0.312235
N    -3.185028  -2.314869  2.561613
C    -4.055157  -2.865603  3.581825
H    -3.153782  -2.809717  1.663017
H    -3.606614  -3.748975  4.060712
H    -5.020754  -3.156248  3.144414
H    -4.217061  -2.098486  4.346914
