35
Energy: -21190.2281776 eV PBE+vdW (tier 2 basis)
C    0.634858  1.409482  2.043601
C    -0.085189  0.074067  1.973255
O    0.502919  -0.975687  1.738174
H    1.577723  1.274662  2.584602
H    0.051181  2.206686  2.520861
H    0.884502  1.724846  1.021307
N    -1.441704  0.135314  2.207894
C    -2.389899  -0.966626  2.007379
C    -1.961904  -2.292528  2.690903
O    -2.263419  -3.378463  2.205797
H    -1.844081  1.058607  2.320899
H    -3.292714  -0.662411  2.562905
C    -2.827929  -1.182326  0.549489
C    -1.723594  -1.516748  -0.454099
C    -2.299435  -1.886204  -1.819691
N    -1.227187  -2.154164  -2.764822
C    -1.377384  -2.305631  -4.133124
N    -2.652661  -2.003603  -4.616324
N    -0.449881  -2.615590  -4.977580
H    -3.364650  -0.276787  0.222067
H    -3.563236  -1.999829  0.568702
H    -1.121408  -2.352002  -0.069475
H    -1.041073  -0.663985  -0.581477
H    -2.904518  -1.052624  -2.209545
H    -2.976916  -2.755893  -1.697467
H    -0.396192  -2.588268  -2.380519
H    -2.715730  -2.235486  -5.603187
H    -3.433076  -2.369681  -4.079103
H    0.462828  -2.680278  -4.518593
N    -1.370193  -2.148436  3.908797
C    -0.824858  -3.286962  4.624698
H    -1.017655  -1.226806  4.139531
H    -0.862178  -3.100770  5.704676
H    0.215263  -3.494848  4.329232
H    -1.432229  -4.166503  4.388234
