35
Energy: -21190.3071759 eV PBE+vdW (tier 2 basis)
C    0.601356  -0.914454  1.125841
C    -0.051817  0.317538  1.724781
O    0.587073  1.318289  2.029187
H    0.354671  -1.827496  1.685828
H    1.683779  -0.764932  1.140824
H    0.278171  -1.060242  0.085010
N    -1.411913  0.259371  1.942454
C    -2.331762  -0.754300  1.472003
C    -2.492326  -0.725141  -0.066468
O    -2.406722  0.317234  -0.716450
H    -1.804768  1.155206  2.219028
H    -1.932959  -1.742733  1.754561
C    -3.697143  -0.602363  2.185728
C    -4.499953  0.671500  1.866494
C    -5.447155  0.532638  0.656213
N    -6.142928  1.745866  0.278939
C    -5.519285  2.871544  -0.256266
N    -4.399701  2.626771  -1.037781
N    -6.089096  4.015198  -0.055901
H    -3.485092  -0.651560  3.263400
H    -4.309252  -1.488828  1.954658
H    -3.830646  1.528198  1.692779
H    -5.103536  0.942014  2.745019
H    -6.211310  -0.226563  0.883460
H    -4.905778  0.149777  -0.220033
H    -6.901315  2.036945  0.888689
H    -3.844405  3.448785  -1.238981
H    -3.827751  1.797565  -0.880956
H    -5.612176  4.761202  -0.567851
N    -2.764885  -1.934052  -0.626679
C    -3.048762  -2.108236  -2.040375
H    -2.790525  -2.746717  -0.021633
H    -4.073164  -2.472932  -2.197986
H    -2.343459  -2.813377  -2.499761
H    -2.940678  -1.131000  -2.521858
