35
Energy: -21189.8228317 eV PBE+vdW (tier 2 basis)
C    -1.456380  1.573259  1.201144
C    -0.374451  0.987009  2.086434
O    0.731269  1.522814  2.155736
H    -1.809832  0.863574  0.443519
H    -1.022420  2.441352  0.698359
H    -2.325593  1.897880  1.786296
N    -0.609552  -0.139705  2.847460
C    -1.673485  -1.137327  3.015969
C    -1.189782  -2.562093  2.640726
O    -1.317696  -3.472632  3.459617
H    0.223261  -0.353018  3.393304
H    -1.835762  -1.232993  4.100541
C    -3.044202  -0.820951  2.399545
C    -4.107585  -1.847240  2.801400
C    -5.471821  -1.517223  2.202161
N    -6.454578  -2.518221  2.614693
C    -7.739795  -2.581244  2.078950
N    -8.248726  -1.349390  1.670265
N    -8.462894  -3.638609  1.933089
H    -3.357180  0.174940  2.745571
H    -2.987989  -0.771675  1.303376
H    -3.801191  -2.853044  2.473049
H    -4.189161  -1.895029  3.898085
H    -5.396899  -1.454091  1.100476
H    -5.787417  -0.521550  2.554025
H    -6.058567  -3.439870  2.772409
H    -8.036176  -0.560040  2.272964
H    -9.238818  -1.424183  1.456544
H    -7.932492  -4.488109  2.144555
N    -0.645552  -2.799377  1.410632
C    -0.369166  -1.894246  0.305139
H    -0.344486  -3.763844  1.309496
H    0.456240  -1.201869  0.519862
H    -0.094294  -2.498599  -0.565974
H    -1.254267  -1.309242  0.025694
