35
Energy: -21190.4770141 eV PBE+vdW (tier 2 basis)
C    0.266325  1.455456  0.875813
C    -0.289382  0.073763  1.147593
O    0.132561  -0.927957  0.557734
H    1.344754  1.444441  1.077178
H    -0.199922  2.245637  1.476826
H    0.134903  1.688103  -0.188187
N    -1.276766  0.000430  2.084076
C    -1.895936  -1.261424  2.492985
C    -3.037700  -1.649311  1.512268
O    -4.226111  -1.559978  1.815266
H    -1.656663  0.859421  2.466042
H    -1.104942  -2.022843  2.408370
C    -2.397697  -1.184500  3.931969
C    -1.282425  -0.999308  4.962362
C    -1.817868  -0.939875  6.390705
N    -0.723582  -0.713585  7.332361
C    -0.914427  -0.707472  8.709788
N    -2.133235  -0.162226  9.119733
N    0.003787  -1.208861  9.463715
H    -2.957426  -2.107848  4.137382
H    -3.142894  -0.376205  4.010763
H    -0.710558  -0.080422  4.759925
H    -0.564486  -1.832884  4.878326
H    -2.376786  -1.866235  6.622848
H    -2.541975  -0.112860  6.462348
H    0.121117  -1.241193  7.122392
H    -2.180444  0.045180  10.110709
H    -2.503340  0.591004  8.547212
H    -0.186418  -1.036084  10.454183
N    -2.573140  -2.083177  0.310830
C    -3.452391  -2.404850  -0.795857
H    -1.565115  -2.006205  0.154655
H    -3.168838  -3.364992  -1.246417
H    -3.424276  -1.628910  -1.575819
H    -4.474557  -2.475624  -0.409425
