35
Energy: -21190.3833337 eV PBE+vdW (tier 2 basis)
C    -1.502219  2.109645  0.945419
C    -0.374727  1.218982  1.431816
O    0.680951  1.667633  1.866497
H    -1.229286  3.145409  1.162052
H    -2.458321  1.873598  1.432287
H    -1.647793  2.003870  -0.139315
N    -0.587698  -0.144619  1.384502
C    -1.724642  -0.862698  0.822682
C    -2.812749  -1.232304  1.862087
O    -3.791030  -1.908298  1.529408
H    0.229293  -0.687024  1.656861
H    -2.224246  -0.205190  0.097008
C    -1.275316  -2.136299  0.082855
C    -0.841710  -3.285638  1.019566
C    -1.704311  -4.551954  0.821043
N    -1.628845  -5.527781  1.887726
C    -2.174459  -5.335372  3.152063
N    -3.332133  -4.569839  3.197449
N    -1.620700  -5.951359  4.146131
H    -0.476870  -1.856711  -0.617406
H    -2.125025  -2.468129  -0.529326
H    -0.934921  -2.981570  2.074293
H    0.218052  -3.539327  0.875582
H    -1.417628  -5.053747  -0.115053
H    -2.752654  -4.250975  0.681156
H    -0.766598  -6.059399  1.961041
H    -3.609391  -4.277843  4.125049
H    -3.528763  -3.874958  2.479905
H    -2.164646  -5.834764  5.004606
N    -2.602473  -0.771355  3.117392
C    -3.504175  -1.032467  4.221517
H    -1.734126  -0.271052  3.279997
H    -3.746770  -0.102021  4.750568
H    -3.063498  -1.741290  4.937681
H    -4.424216  -1.463262  3.812035
