35
Energy: -21190.2011129 eV PBE+vdW (tier 2 basis)
C    -0.959888  -2.181787  -0.770657
C    -0.162686  -1.478792  0.317620
O    1.034256  -1.698935  0.481273
H    -1.894613  -2.625790  -0.403676
H    -0.327447  -2.967828  -1.191311
H    -1.219191  -1.476358  -1.574004
N    -0.830199  -0.592408  1.127632
C    -2.188410  -0.094389  0.988229
C    -2.110257  1.443724  0.908407
O    -1.216903  2.053812  1.492602
H    -0.222801  0.014313  1.680495
H    -2.619163  -0.502432  0.065015
C    -3.097291  -0.467388  2.183509
C    -3.490092  -1.944382  2.320480
C    -2.375365  -2.938008  2.714582
N    -1.510377  -2.521029  3.813626
C    -1.975813  -2.210859  5.087821
N    -3.089286  -2.955513  5.486040
N    -1.489789  -1.332068  5.896582
H    -4.024323  0.121555  2.105175
H    -2.608030  -0.116887  3.104892
H    -3.953796  -2.302408  1.385270
H    -4.273398  -1.999095  3.090329
H    -1.709274  -3.146062  1.869764
H    -2.847962  -3.901552  2.958423
H    -0.731180  -1.939688  3.522348
H    -3.056768  -3.942097  5.243916
H    -3.276707  -2.806719  6.473369
H    -0.770364  -0.763190  5.441355
N    -3.090874  2.088538  0.214554
C    -4.161382  1.500689  -0.574590
H    -3.007063  3.100016  0.235837
H    -4.756055  2.312290  -1.005970
H    -4.837074  0.882005  0.033595
H    -3.778606  0.890760  -1.406404
