35
Energy: -21190.8124222 eV PBE+vdW (tier 2 basis)
C    1.227191  -1.765110  1.903707
C    0.724835  -0.961241  3.084887
O    1.414036  -0.833802  4.108548
H    2.179891  -1.339309  1.565266
H    0.525977  -1.793026  1.061608
H    1.428837  -2.790445  2.238254
N    -0.498156  -0.397052  2.929517
C    -1.236835  0.275878  3.984744
C    -2.691608  -0.207761  3.871161
O    -3.144349  -0.579804  2.783743
H    -1.077160  -0.649067  2.128728
H    -0.800690  -0.024802  4.943688
C    -1.216840  1.819841  3.833098
C    0.160454  2.492744  3.913605
C    0.745766  2.651790  5.322755
N    1.049436  1.382352  5.961131
C    0.438285  0.996360  7.126120
N    0.541757  -0.386644  7.365064
N    -0.211156  1.836417  7.868443
H    -1.878275  2.254922  4.597852
H    -1.676199  2.047582  2.858880
H    0.069253  3.502109  3.483208
H    0.874931  1.960341  3.265139
H    0.045169  3.181199  5.983273
H    1.657721  3.268968  5.260702
H    1.347281  0.626573  5.336831
H    0.559201  -0.633024  8.348829
H    1.264726  -0.869942  6.836244
H    -0.600284  1.366387  8.688673
N    -3.449671  -0.161091  4.995352
C    -3.018882  0.163692  6.351532
H    -4.412815  -0.445897  4.848880
H    -2.695626  1.208213  6.455837
H    -2.193152  -0.480395  6.683137
H    -3.868031  0.003835  7.023779
