35
Energy: -21190.2601179 eV PBE+vdW (tier 2 basis)
C    0.046363  1.106821  0.069685
C    0.267373  0.739673  1.528557
O    1.391792  0.662970  2.015029
H    -0.509361  2.051501  -0.024386
H    -0.515816  0.335757  -0.474410
H    1.026977  1.229092  -0.397087
N    -0.847314  0.503985  2.293651
C    -2.239739  0.592595  1.902690
C    -3.039472  0.931927  3.171318
O    -2.602262  0.642207  4.290195
H    -0.680712  0.357705  3.288476
H    -2.351743  1.411404  1.176175
C    -2.807767  -0.700238  1.239595
C    -3.213321  -1.841229  2.180880
C    -2.060924  -2.518565  2.948628
N    -2.486618  -3.567450  3.853571
C    -3.162759  -3.350934  5.048020
N    -2.886927  -2.148690  5.687747
N    -3.902825  -4.311725  5.499837
H    -2.048608  -1.054157  0.525866
H    -3.681456  -0.417966  0.632886
H    -3.724655  -2.612126  1.583296
H    -3.964173  -1.485707  2.904438
H    -1.476005  -1.782746  3.514498
H    -1.349961  -2.959107  2.233651
H    -2.795667  -4.437892  3.431892
H    -2.615302  -1.330614  5.146135
H    -3.525224  -1.922423  6.439680
H    -4.271457  -4.089263  6.427571
N    -4.254986  1.520297  3.026765
C    -4.955815  1.892185  1.809179
H    -4.747329  1.634358  3.908407
H    -5.641501  2.717210  2.032596
H    -5.539936  1.059046  1.390055
H    -4.253496  2.245140  1.045349
