35
Energy: -21190.4032069 eV PBE+vdW (tier 2 basis)
C    -3.908077  1.235174  0.054574
C    -2.713159  0.720706  0.836258
O    -1.683821  0.344546  0.286543
H    -4.145988  0.520304  -0.741700
H    -3.628459  2.180353  -0.429005
H    -4.802164  1.403355  0.668276
N    -2.876504  0.693868  2.204468
C    -1.776761  0.421754  3.122547
C    -2.019803  -0.817871  4.014797
O    -1.394575  -0.983653  5.058363
H    -3.707009  1.133556  2.588050
H    -0.925478  0.163421  2.470034
C    -1.406381  1.644451  3.970783
C    -0.916676  2.830379  3.140352
C    -0.546357  4.059353  3.984960
N    0.573992  3.881373  4.907949
C    1.859733  3.579543  4.468645
N    2.232005  4.237458  3.291709
N    2.565364  2.739176  5.144304
H    -0.634502  1.313596  4.678458
H    -2.278338  1.939161  4.582557
H    -1.691837  3.139769  2.419757
H    -0.044172  2.530321  2.539944
H    -1.407770  4.372899  4.594193
H    -0.331834  4.904834  3.315418
H    0.365566  3.313604  5.725379
H    1.875777  5.183158  3.183564
H    3.221721  4.173152  3.082500
H    3.532134  2.704084  4.810226
N    -2.938113  -1.702358  3.534499
C    -3.207046  -2.973896  4.175159
H    -3.364294  -1.487761  2.640375
H    -2.676952  -2.979913  5.133664
H    -2.845737  -3.815905  3.566935
H    -4.282486  -3.103991  4.357462
