35
Energy: -21190.3722306 eV PBE+vdW (tier 2 basis)
C    -2.144162  -1.030165  3.134224
C    -0.799682  -0.701461  2.514569
O    -0.549941  -0.912885  1.333438
H    -2.895756  -0.342894  2.723685
H    -2.158563  -0.953383  4.228690
H    -2.433525  -2.044807  2.838089
N    0.127755  -0.157450  3.380740
C    1.383081  0.415376  2.911754
C    2.638369  -0.272719  3.494448
O    3.741977  0.262993  3.420817
H    -0.199466  0.123079  4.300003
H    1.400654  0.200345  1.829733
C    1.446356  1.933339  3.125738
C    0.403041  2.699121  2.309678
C    0.506823  4.221582  2.427149
N    0.233555  4.681963  3.781296
C    -0.145860  5.972908  4.129556
N    -0.469118  6.803753  3.057084
N    -0.297719  6.420040  5.331438
H    2.463167  2.254376  2.860333
H    1.334738  2.134342  4.206361
H    -0.614832  2.396084  2.600030
H    0.517966  2.431955  1.247807
H    -0.243330  4.673323  1.764580
H    1.505171  4.546671  2.069438
H    0.734481  4.202356  4.519688
H    -0.661107  7.744436  3.388598
H    0.168462  6.790800  2.266868
H    -0.167641  5.677302  6.023982
N    2.423954  -1.497666  4.045446
C    3.500345  -2.334576  4.536914
H    1.477682  -1.859770  4.008449
H    4.418521  -1.737669  4.520560
H    3.643323  -3.220188  3.901024
H    3.303278  -2.664511  5.565793
