35
Energy: -21190.1651259 eV PBE+vdW (tier 2 basis)
C    0.211829  0.142348  -0.226136
C    0.054031  0.440382  1.255089
O    0.881866  1.130687  1.853652
H    1.161478  -0.386122  -0.376514
H    0.280743  1.093753  -0.768026
H    -0.599212  -0.457348  -0.657013
N    -1.064903  -0.091679  1.828387
C    -1.508808  -0.109537  3.230899
C    -2.692433  0.822228  3.588155
O    -3.466908  0.440671  4.466127
H    -1.658954  -0.622941  1.202823
H    -1.968168  -1.099873  3.353023
C    -0.394088  -0.025292  4.298704
C    -0.015800  1.373099  4.804561
C    1.347961  1.399093  5.494295
N    2.394239  1.093085  4.537804
C    3.726195  1.055793  4.896173
N    4.580108  0.891460  3.798853
N    4.235927  1.166076  6.077982
H    0.493106  -0.537416  3.904328
H    -0.745273  -0.619271  5.153997
H    -0.777583  1.733523  5.510193
H    0.016294  2.088932  3.972513
H    1.375535  0.659049  6.313160
H    1.499466  2.392188  5.958491
H    2.175206  1.304450  3.565880
H    5.524333  0.679862  4.106977
H    4.247225  0.243778  3.090191
H    3.522971  1.405975  6.770163
N    -2.880161  2.021960  2.966276
C    -2.073001  2.750300  1.998154
H    -3.712408  2.487960  3.316033
H    -2.304478  3.817189  2.095329
H    -2.287170  2.447157  0.961860
H    -1.000779  2.627918  2.184109
