35
Energy: -21190.6176961 eV PBE+vdW (tier 2 basis)
C    -0.736272  2.041146  0.127147
C    -0.064711  0.874677  0.821515
O    1.159939  0.860048  1.026084
H    -1.555147  2.449713  0.734306
H    -1.161176  1.749613  -0.843126
H    0.017204  2.815521  -0.037489
N    -0.845778  -0.154608  1.250993
C    -2.217887  -0.486809  0.894944
C    -2.967007  -1.005396  2.145275
O    -3.998244  -0.461077  2.539544
H    -0.329493  -0.862665  1.765976
H    -2.729407  0.443248  0.626394
C    -2.364633  -1.502855  -0.277835
C    -1.352825  -1.406788  -1.437738
C    -0.205414  -2.437809  -1.424378
N    0.844476  -2.256980  -0.436658
C    0.768935  -2.649323  0.880023
N    1.712133  -2.037257  1.684822
N    -0.068551  -3.502477  1.403686
H    -3.384352  -1.364421  -0.664061
H    -2.342201  -2.522637  0.128337
H    -0.923742  -0.396751  -1.511646
H    -1.892547  -1.566228  -2.383856
H    0.283421  -2.430553  -2.409158
H    -0.624633  -3.449737  -1.312148
H    1.548208  -1.556472  -0.642821
H    1.664212  -2.336269  2.652599
H    1.852096  -1.029606  1.545112
H    -0.591111  -3.996096  0.676071
N    -2.400917  -2.080381  2.753061
C    -2.994656  -2.663426  3.943076
H    -1.586333  -2.564770  2.341941
H    -3.124217  -1.904079  4.725552
H    -2.329293  -3.451914  4.310027
H    -3.983741  -3.096141  3.732502
