35
Energy: -21190.4351816 eV PBE+vdW (tier 2 basis)
C    -0.328992  1.163550  -0.422648
C    0.239463  0.274499  0.666687
O    1.441451  0.059583  0.785426
H    0.508130  1.603606  -0.970130
H    -0.961024  1.964163  -0.014525
H    -0.945095  0.582739  -1.124098
N    -0.663258  -0.285408  1.548152
C    -2.115784  -0.184805  1.531843
C    -2.691452  1.039249  2.286673
O    -3.894410  1.287032  2.229679
H    -0.235390  -0.932385  2.207407
H    -2.454582  -0.056723  0.492569
C    -2.758248  -1.465583  2.086185
C    -2.531478  -2.698846  1.211471
C    -3.195408  -3.970978  1.770220
N    -2.761361  -4.382537  3.094738
C    -1.512976  -4.943100  3.332151
N    -1.240591  -5.069948  4.700924
N    -0.629738  -5.327691  2.476888
H    -3.833282  -1.263535  2.195806
H    -2.362366  -1.639011  3.101623
H    -1.453939  -2.874956  1.076038
H    -2.944573  -2.516325  0.206054
H    -3.027336  -4.809565  1.077918
H    -4.285045  -3.827611  1.818686
H    -3.144086  -3.853121  3.870626
H    -0.388876  -5.606583  4.841204
H    -2.011353  -5.438836  5.252608
H    -0.884707  -5.073884  1.520486
N    -1.787906  1.772598  2.986318
C    -2.151676  2.950917  3.747733
H    -0.818943  1.474506  2.942297
H    -3.231881  3.096071  3.638552
H    -1.630321  3.842436  3.372536
H    -1.913250  2.824173  4.812793
