35
Energy: -21190.5465947 eV PBE+vdW (tier 2 basis)
C    0.774704  -1.030784  0.356041
C    0.574198  -0.220517  1.622033
O    1.519217  0.067838  2.366971
H    1.512536  -0.522022  -0.277271
H    -0.146139  -1.187398  -0.218064
H    1.198861  -2.005844  0.626616
N    -0.702737  0.161424  1.874364
C    -1.113305  0.959241  3.015107
C    -2.649830  0.966584  2.979894
O    -3.258542  0.663730  1.949358
H    -1.467299  -0.066649  1.238898
H    -0.756164  0.468750  3.934707
C    -0.523023  2.393283  2.990281
C    -0.790465  3.176477  1.700582
C    0.333040  4.175480  1.379421
N    1.612511  3.521393  1.172382
C    2.655412  3.564364  2.095920
N    3.458955  2.428987  2.044323
N    2.949387  4.534213  2.897468
H    0.557356  2.275005  3.136513
H    -0.889697  2.953291  3.861462
H    -1.751562  3.710645  1.750120
H    -0.880348  2.479737  0.851980
H    0.455755  4.889389  2.206511
H    0.056216  4.767572  0.492363
H    1.594159  2.685910  0.596111
H    4.208377  2.488911  2.727031
H    2.955595  1.539169  2.092574
H    2.381860  5.362894  2.701350
N    -3.313938  1.337718  4.107500
C    -2.782794  1.694501  5.412302
H    -4.320770  1.375465  3.979175
H    -1.837710  1.174929  5.604339
H    -3.494601  1.382842  6.185835
H    -2.609763  2.776482  5.515320
