35
Energy: -21190.4711918 eV PBE+vdW (tier 2 basis)
C    -1.482511  -1.634305  0.657240
C    -1.203569  -0.902137  1.946266
O    -0.232331  -0.150575  2.095454
H    -0.888341  -1.180984  -0.140761
H    -2.547010  -1.597700  0.387650
H    -1.202318  -2.698261  0.770391
N    -2.084502  -1.171010  2.967589
C    -2.080917  -0.583189  4.318787
C    -2.484298  0.916104  4.364458
O    -3.397278  1.280230  5.106479
H    -2.938568  -1.650025  2.702543
H    -2.904609  -1.079123  4.848039
C    -0.789051  -0.804120  5.138271
C    -0.535482  -2.216856  5.701471
C    0.275738  -3.186944  4.836596
N    -0.509830  -3.742031  3.748166
C    -0.040540  -4.644527  2.817226
N    1.013915  -5.449497  3.243164
N    -0.654079  -4.735635  1.679095
H    -0.877804  -0.118506  5.993556
H    0.079824  -0.462786  4.559292
H    -1.486099  -2.697194  5.984732
H    0.028895  -2.094545  6.637328
H    0.609883  -4.009847  5.489221
H    1.183764  -2.664921  4.471279
H    -1.193793  -3.109667  3.341501
H    1.518949  -5.910780  2.496564
H    1.624046  -5.081346  3.964738
H    -0.274762  -5.494202  1.108725
N    -1.741058  1.743337  3.588345
C    -1.970858  3.173066  3.530552
H    -1.004015  1.314831  3.019467
H    -1.079472  3.729142  3.854189
H    -2.802290  3.411893  4.202054
H    -2.230154  3.491819  2.510913
