35
Energy: -21190.0148829 eV PBE+vdW (tier 2 basis)
C    -0.431554  -0.573407  -0.200355
C    -0.286484  -0.441391  1.302924
O    0.808933  -0.292749  1.844077
H    0.364012  -1.223627  -0.579791
H    -0.293614  0.419999  -0.648684
H    -1.405858  -0.967333  -0.515470
N    -1.454745  -0.488988  2.012611
C    -1.527841  -0.136678  3.435149
C    -0.749249  1.194567  3.661645
O    -1.150945  2.177733  3.036964
H    -2.316800  -0.445089  1.483898
H    -2.556117  0.226200  3.577408
C    -1.368902  -1.341347  4.386568
C    -0.349846  -2.421519  3.992543
C    0.089272  -3.318276  5.156300
N    -0.989756  -3.964399  5.893622
C    -1.479491  -3.437567  7.071580
N    -2.588420  -4.156711  7.549824
N    -0.957921  -2.383800  7.605751
H    -2.358920  -1.817054  4.465513
H    -1.163683  -0.968102  5.398394
H    0.554129  -1.968496  3.565239
H    -0.773361  -3.041004  3.185010
H    0.645376  -2.732201  5.897922
H    0.766250  -4.098575  4.775204
H    -1.654498  -4.503877  5.349748
H    -2.868497  -3.890637  8.487781
H    -2.511477  -5.166933  7.457022
H    -1.359359  -2.201045  8.527597
N    0.225998  1.332973  4.607927
C    1.161652  0.353074  5.149889
H    0.545647  2.297474  4.621853
H    0.705953  -0.279156  5.922827
H    1.982246  0.906046  5.619767
H    1.584675  -0.274095  4.354841
