35
Energy: -21190.1204886 eV PBE+vdW (tier 2 basis)
C    0.037689  1.492733  0.570696
C    -0.012134  0.436292  1.658481
O    0.829137  -0.451584  1.747978
H    1.026099  1.967831  0.582781
H    -0.733941  2.267342  0.664736
H    -0.074346  0.996794  -0.401848
N    -1.046088  0.575376  2.560392
C    -1.395885  -0.486502  3.512728
C    -2.851308  -0.943170  3.287025
O    -3.095086  -2.099678  2.957890
H    -1.773757  1.234774  2.308517
H    -0.789666  -1.352182  3.216560
C    -1.114795  -0.173006  4.999454
C    0.342123  -0.296400  5.464047
C    1.340777  0.714271  4.864253
N    0.860633  2.092431  4.726147
C    0.342111  2.849725  5.768855
N    0.877047  2.561080  7.020500
N    -0.568473  3.764540  5.673941
H    -1.711202  -0.885600  5.590236
H    -1.493402  0.823994  5.262123
H    0.720076  -1.308282  5.249354
H    0.337887  -0.185734  6.557704
H    1.638793  0.394001  3.858758
H    2.262716  0.701441  5.465910
H    0.350492  2.244717  3.862487
H    1.863676  2.322555  7.036231
H    0.626413  3.271464  7.700776
H    -0.947980  3.803877  4.723442
N    -3.870258  -0.026291  3.416600
C    -3.895304  1.265113  4.091289
H    -4.774836  -0.464170  3.260935
H    -4.695855  1.877477  3.658736
H    -2.955980  1.813110  3.962111
H    -4.072628  1.173918  5.174180
