35
Energy: -21190.5152756 eV PBE+vdW (tier 2 basis)
C    -2.518697  -0.341379  0.745159
C    -1.484609  -0.503652  1.841617
O    -0.460716  -1.171574  1.687633
H    -2.017309  0.007640  -0.165420
H    -3.322725  0.357193  1.007173
H    -2.954160  -1.324090  0.522733
N    -1.779436  0.147160  3.007448
C    -0.905236  0.063447  4.152393
C    -1.648188  -0.541256  5.353355
O    -2.857832  -0.376615  5.553097
H    -2.661797  0.659226  3.101291
H    -0.115184  -0.634970  3.841576
C    -0.215263  1.424224  4.490941
C    -1.094891  2.671393  4.336037
C    -2.186708  2.849042  5.413202
N    -3.359503  3.599854  4.978260
C    -4.282390  3.121278  4.054153
N    -4.295057  1.732079  3.887571
N    -5.101560  3.829655  3.352269
H    0.640406  1.519927  3.807625
H    0.205874  1.373375  5.508182
H    -1.576045  2.640578  3.348187
H    -0.445695  3.559968  4.322776
H    -1.773980  3.368275  6.289924
H    -2.523224  1.874093  5.783845
H    -3.243659  4.606077  4.931846
H    -5.151451  1.449096  3.419588
H    -4.074147  1.147013  4.696359
H    -4.943572  4.831305  3.490454
N    -0.894382  -1.264641  6.225761
C    0.501720  -1.658502  6.094390
H    -1.423814  -1.630886  7.010918
H    0.752629  -2.313293  6.935153
H    1.182161  -0.795979  6.127615
H    0.685143  -2.215568  5.164994
