35
Energy: -21190.1764935 eV PBE+vdW (tier 2 basis)
C    -1.148395  -0.926349  -0.299022
C    -0.744517  -0.257852  1.000728
O    0.242258  0.476804  1.064504
H    -1.301401  -0.153447  -1.062018
H    -2.054898  -1.539945  -0.222142
H    -0.318810  -1.559877  -0.637026
N    -1.544813  -0.538251  2.072574
C    -1.319045  -0.015520  3.416385
C    -1.171968  -1.103886  4.499858
O    -0.247750  -1.037670  5.303588
H    -2.375194  -1.086982  1.889633
H    -0.334295  0.464224  3.392287
C    -2.363854  1.048346  3.821323
C    -2.226221  2.365336  3.039888
C    -1.326462  3.412079  3.714088
N    0.013247  2.945862  4.092435
C    1.146563  3.333550  3.374736
N    0.998776  3.211429  1.994652
N    2.167229  3.774254  4.031766
H    -2.252899  1.235519  4.900441
H    -3.375692  0.635384  3.684926
H    -3.218884  2.825764  2.917954
H    -1.865536  2.162582  2.020685
H    -1.821886  3.751224  4.636656
H    -1.245978  4.288665  3.053211
H    0.216741  3.029667  5.083470
H    0.614861  2.313826  1.682848
H    1.843288  3.447586  1.484155
H    2.983560  3.865295  3.420015
N    -2.100743  -2.111603  4.600883
C    -3.277750  -2.400072  3.803434
H    -1.872888  -2.761748  5.347001
H    -3.959907  -3.021623  4.394841
H    -3.046588  -2.953168  2.876763
H    -3.829304  -1.485663  3.548792
