35
Energy: -21190.4406009 eV PBE+vdW (tier 2 basis)
C    0.888620  -1.021348  6.246792
C    -0.541918  -1.359948  5.873510
O    -1.354514  -1.777294  6.698025
H    0.877964  -0.319050  7.088927
H    1.467752  -0.587541  5.422697
H    1.387093  -1.936399  6.591397
N    -0.865774  -1.151641  4.559780
C    -2.127887  -1.586931  3.994448
C    -1.813843  -2.259396  2.647820
O    -0.835102  -1.922045  1.980590
H    -0.137759  -0.972630  3.870818
H    -2.566535  -2.306135  4.704477
C    -3.118391  -0.420013  3.776682
C    -3.543204  0.261165  5.077118
C    -4.475161  1.446506  4.833931
N    -4.867180  2.050712  6.095366
C    -5.866813  2.991101  6.271912
N    -6.588906  3.292746  5.114856
N    -6.218997  3.539327  7.387105
H    -4.006768  -0.807461  3.252028
H    -2.645898  0.307881  3.097680
H    -2.647802  0.607682  5.616443
H    -4.039161  -0.464967  5.738456
H    -5.382758  1.108059  4.309691
H    -3.965564  2.171192  4.165567
H    -4.217656  1.959673  6.866567
H    -6.043898  3.429222  4.268602
H    -7.230136  4.060018  5.293232
H    -5.710662  3.135196  8.178307
N    -2.709936  -3.201897  2.251327
C    -2.621110  -3.893729  0.978185
H    -3.455712  -3.448683  2.891158
H    -3.522180  -3.725957  0.372463
H    -2.484061  -4.974146  1.122560
H    -1.752142  -3.494269  0.445482
