35
Energy: -21190.5459866 eV PBE+vdW (tier 2 basis)
C    -0.073453  -0.623222  0.082237
C    0.033744  -0.213103  1.535290
O    1.130230  -0.081493  2.096373
H    0.467120  -1.566624  -0.061080
H    0.426158  0.136480  -0.532311
H    -1.105392  -0.741787  -0.269299
N    -1.143308  -0.004925  2.182653
C    -1.274042  0.513067  3.545514
C    -1.004746  -0.540784  4.660909
O    -1.724912  -0.635691  5.662205
H    -2.004158  -0.211997  1.689737
H    -0.477155  1.266167  3.667424
C    -2.632905  1.200657  3.720612
C    -3.876527  0.399059  3.256648
C    -4.968725  0.237214  4.331901
N    -4.663513  -0.786029  5.333616
C    -4.745738  -2.141138  4.993497
N    -5.865935  -2.478988  4.225249
N    -3.909051  -3.063853  5.324667
H    -2.594843  2.157911  3.183208
H    -2.722875  1.446066  4.786947
H    -3.605729  -0.620268  2.934806
H    -4.321656  0.889875  2.377980
H    -5.918130  -0.015403  3.845397
H    -5.125499  1.193068  4.855195
H    -3.764453  -0.604076  5.786505
H    -5.953711  -3.489535  4.164750
H    -6.732101  -2.038237  4.524572
H    -3.076652  -2.645545  5.751165
N    0.101259  -1.287612  4.475496
C    0.519456  -2.284346  5.445619
H    0.721255  -1.024925  3.701845
H    -0.251916  -3.056403  5.567472
H    0.705448  -1.833356  6.430829
H    1.439453  -2.756225  5.086372
