35
Energy: -21190.2052985 eV PBE+vdW (tier 2 basis)
C    -0.039393  1.488968  0.352373
C    -0.008945  0.933675  1.767625
O    0.941610  1.145506  2.517289
H    0.781317  1.033629  -0.216554
H    0.153245  2.567442  0.395557
H    -0.979904  1.312483  -0.184098
N    -1.117273  0.201195  2.111390
C    -1.399209  -0.584440  3.319257
C    -2.450835  0.048976  4.262256
O    -3.430885  -0.634841  4.590937
H    -1.830940  0.129221  1.395938
H    -1.943592  -1.465141  2.953653
C    -0.160161  -1.099254  4.082658
C    -0.516463  -2.019159  5.258711
C    -1.202767  -3.341252  4.865223
N    -1.598645  -4.178730  5.977810
C    -2.679619  -3.931123  6.814292
N    -3.710817  -3.180978  6.260917
N    -2.672447  -4.495320  7.979584
H    0.444893  -0.260789  4.441238
H    0.473302  -1.635786  3.358970
H    -1.153043  -1.484838  5.980702
H    0.412491  -2.255786  5.799055
H    -0.522585  -3.929486  4.229253
H    -2.092625  -3.152181  4.247814
H    -0.858705  -4.652194  6.486094
H    -4.395621  -2.872962  6.940228
H    -3.501681  -2.453200  5.576468
H    -3.543455  -4.311027  8.482627
N    -2.296328  1.305579  4.746607
C    -1.259380  2.295314  4.502456
H    -3.074820  1.582045  5.339157
H    -1.073322  2.851610  5.429264
H    -1.556418  3.010934  3.720192
H    -0.320776  1.826247  4.192027
