35
Energy: -21190.3028384 eV PBE+vdW (tier 2 basis)
C    0.155133  -1.188342  0.362324
C    0.170702  -0.178578  1.493842
O    1.199090  0.400367  1.838594
H    -0.588355  -0.937278  -0.408096
H    -0.055592  -2.204906  0.733447
H    1.148526  -1.181383  -0.094403
N    -1.007473  0.047020  2.168381
C    -2.340500  -0.410674  1.831758
C    -3.237981  0.824581  1.623224
O    -3.088313  1.834954  2.307357
H    -0.971307  0.827366  2.822917
H    -2.275437  -1.000288  0.909804
C    -2.991243  -1.289272  2.929353
C    -2.429890  -2.710147  3.063272
C    -1.061920  -2.817159  3.755404
N    -0.612223  -4.187713  3.956305
C    -0.103691  -4.929311  2.909047
N    0.190511  -6.248745  3.287651
N    0.032001  -4.415562  1.731815
H    -4.068127  -1.361676  2.708326
H    -2.920380  -0.744926  3.884885
H    -2.358170  -3.184012  2.072797
H    -3.151894  -3.308538  3.643047
H    -1.100277  -2.331570  4.742084
H    -0.285992  -2.304693  3.179335
H    -1.104740  -4.724972  4.662060
H    0.695378  -6.772224  2.580595
H    0.623359  -6.341288  4.203419
H    0.546218  -5.045651  1.112320
N    -4.229392  0.727194  0.689537
C    -4.489653  -0.375060  -0.222556
H    -4.806914  1.559027  0.618713
H    -5.367064  -0.122020  -0.826734
H    -4.712534  -1.311676  0.308823
H    -3.650827  -0.554095  -0.911750
