35
Energy: -21190.3546468 eV PBE+vdW (tier 2 basis)
C    2.198035  -0.562944  0.699224
C    1.437989  -0.623033  2.010320
O    1.986279  -0.900719  3.077722
H    2.984106  0.198115  0.781684
H    1.565258  -0.330103  -0.165738
H    2.693368  -1.527709  0.535079
N    0.106155  -0.333985  1.929327
C    -0.769140  -0.438617  3.077629
C    -2.169343  -0.746986  2.532386
O    -2.451866  -0.526523  1.349698
H    -0.370814  -0.231659  1.035811
H    -0.407077  -1.277532  3.693429
C    -0.712808  0.830210  3.973224
C    -1.116348  2.151404  3.307500
C    -2.632253  2.392894  3.219942
N    -2.982132  3.716289  2.714099
C    -3.379829  4.789449  3.495599
N    -2.991274  4.702757  4.835789
N    -4.068375  5.812075  3.112151
H    0.329241  0.893961  4.314191
H    -1.318600  0.665594  4.877916
H    -0.676413  2.217673  2.300872
H    -0.663092  2.976580  3.878944
H    -3.087601  2.261752  4.213860
H    -3.093663  1.652469  2.554345
H    -3.307332  3.760007  1.757057
H    -3.204891  5.572778  5.314995
H    -2.033756  4.401901  4.995965
H    -4.420337  5.689604  2.158613
N    -3.095687  -1.248593  3.393079
C    -2.954162  -1.583360  4.799773
H    -4.010010  -1.368327  2.967025
H    -1.930453  -1.904024  5.022304
H    -3.622277  -2.419419  5.037634
H    -3.206339  -0.739145  5.459575
