35
Energy: -21190.2705845 eV PBE+vdW (tier 2 basis)
C    -0.500982  -1.920692  0.969290
C    -0.467481  -0.887796  2.081290
O    0.570659  -0.334616  2.435265
H    -0.069858  -1.476957  0.063673
H    -1.506788  -2.294180  0.739546
H    0.137456  -2.765846  1.255872
N    -1.680223  -0.601640  2.654763
C    -1.771266  0.258147  3.838998
C    -3.049627  -0.068082  4.624272
O    -2.989403  -0.337600  5.826747
H    -2.465517  -1.205567  2.442297
H    -0.945536  -0.018626  4.509820
C    -1.620092  1.763765  3.491655
C    -0.998262  2.633839  4.590057
C    -1.765975  2.727655  5.925618
N    -3.215787  2.887477  5.831086
C    -3.868717  3.838830  5.078295
N    -3.188767  5.052776  4.969022
N    -5.002820  3.541453  4.524305
H    -2.584821  2.188259  3.184652
H    -0.959758  1.815698  2.616716
H    -0.881013  3.643959  4.172702
H    0.017190  2.269838  4.813659
H    -1.328938  3.543363  6.525751
H    -1.617277  1.813309  6.512569
H    -3.746856  2.025474  5.895020
H    -2.632376  5.326894  5.773694
H    -3.743919  5.813971  4.596564
H    -5.448503  4.372269  4.126778
N    -4.252251  -0.083226  3.967962
C    -4.642737  0.591771  2.730534
H    -5.013863  -0.269622  4.616976
H    -4.956643  1.627062  2.939220
H    -5.475354  0.040955  2.274758
H    -3.815030  0.603053  2.015126
