35
Energy: -21190.5503767 eV PBE+vdW (tier 2 basis)
C    -1.313807  2.811080  1.468756
C    -1.208001  1.673734  2.462268
O    -0.760828  1.846632  3.603800
H    -0.322288  3.260935  1.336024
H    -1.969194  3.583580  1.890488
H    -1.705562  2.508078  0.490116
N    -1.629854  0.457478  2.022489
C    -1.722190  -0.733106  2.867388
C    -0.352811  -1.462415  3.003488
O    -0.168795  -2.627131  2.642992
H    -1.953885  0.374104  1.066285
H    -1.951244  -0.361291  3.878988
C    -2.880960  -1.645011  2.424537
C    -3.112556  -1.871893  0.920932
C    -2.049048  -2.683911  0.159961
N    -1.828908  -4.027489  0.684174
C    -2.845187  -4.967443  0.742254
N    -3.671173  -4.985165  -0.394116
N    -2.971486  -5.708626  1.791411
H    -3.804806  -1.214659  2.837386
H    -2.745405  -2.616938  2.918362
H    -3.272410  -0.914144  0.391760
H    -4.072461  -2.400373  0.820573
H    -1.072879  -2.181214  0.186215
H    -2.341749  -2.733249  -0.899613
H    -1.279611  -4.012059  1.544722
H    -4.282740  -5.793198  -0.434549
H    -3.187935  -4.832193  -1.275908
H    -3.656590  -6.454342  1.637816
N    0.594092  -0.693728  3.592634
C    1.950442  -1.151659  3.818660
H    0.321401  0.259902  3.854024
H    2.214532  -1.077162  4.882436
H    2.672615  -0.560850  3.236729
H    2.014809  -2.199441  3.507566
