35
Energy: -21190.4144789 eV PBE+vdW (tier 2 basis)
C    0.785895  -0.411016  0.107543
C    -0.104155  0.140824  1.210142
O    0.200382  1.146713  1.845999
H    1.115719  -1.437389  0.319409
H    1.664120  0.234986  0.030536
H    0.266418  -0.421829  -0.861586
N    -1.278115  -0.521869  1.458239
C    -1.789746  -1.725572  0.834219
C    -3.323294  -1.685725  0.968253
O    -3.861779  -1.112201  1.923012
H    -1.889876  -0.102732  2.157927
H    -1.525658  -1.726324  -0.234932
C    -1.248340  -3.035907  1.469899
C    -1.581451  -3.200735  2.963993
C    -2.183004  -4.572315  3.316182
N    -3.302239  -4.981986  2.463815
C    -4.645973  -4.726157  2.720933
N    -4.892955  -3.607156  3.502997
N    -5.641428  -5.435908  2.291727
H    -0.162119  -3.066059  1.308034
H    -1.674202  -3.878083  0.902467
H    -2.276763  -2.413469  3.284029
H    -0.681979  -3.056299  3.578349
H    -2.493005  -4.570655  4.372144
H    -1.410150  -5.347028  3.208288
H    -3.166139  -5.852093  1.965321
H    -4.412193  -2.748124  3.233027
H    -5.894067  -3.461449  3.595922
H    -5.320660  -6.315491  1.875941
N    -4.013031  -2.355680  0.017424
C    -5.455962  -2.549283  0.063094
H    -3.485850  -2.837325  -0.701347
H    -5.721094  -3.538030  0.467098
H    -5.876256  -2.436788  -0.943473
H    -5.878497  -1.779263  0.715979
