35
Energy: -21190.5266605 eV PBE+vdW (tier 2 basis)
C    0.159649  -0.011741  0.208692
C    0.031589  0.040484  1.718162
O    1.021664  0.095983  2.454156
H    0.723418  0.867747  -0.126040
H    -0.803006  -0.039447  -0.316522
H    0.743548  -0.898932  -0.066326
N    -1.242253  0.032774  2.206150
C    -1.540371  0.074790  3.637695
C    -1.474643  -1.361275  4.227670
O    -2.480969  -2.045900  4.416857
H    -2.012045  -0.126446  1.565771
H    -0.737527  0.665435  4.101437
C    -2.903968  0.718794  3.887709
C    -3.121066  1.078321  5.362581
C    -2.342680  2.331328  5.798307
N    -2.159773  2.452964  7.236822
C    -1.166800  1.715198  7.857579
N    -1.139474  1.862919  9.249677
N    -0.317833  1.044669  7.153022
H    -3.684714  0.014092  3.565484
H    -2.986520  1.621272  3.260166
H    -2.811440  0.230760  5.989200
H    -4.195474  1.229297  5.548142
H    -2.846021  3.241715  5.439525
H    -1.333913  2.321223  5.367195
H    -2.998720  2.623439  7.780235
H    -0.758782  1.067692  9.748984
H    -1.971217  2.240060  9.693342
H    0.423720  0.658602  7.741122
N    -0.204821  -1.770584  4.470561
C    0.116936  -3.098632  4.946956
H    0.542674  -1.139291  4.182684
H    0.702796  -3.050451  5.875673
H    0.690655  -3.665972  4.199235
H    -0.823961  -3.623161  5.144738
