35
Energy: -21190.1610831 eV PBE+vdW (tier 2 basis)
C    0.294655  0.575417  0.514925
C    -0.015655  -0.260351  1.744652
O    0.480810  -1.367405  1.932764
H    1.356333  0.852748  0.538931
H    -0.307077  1.489329  0.433931
H    0.138399  -0.039823  -0.379171
N    -0.901033  0.297236  2.627099
C    -1.210752  -0.302403  3.919331
C    -1.722645  -1.758335  3.884732
O    -1.372518  -2.526765  4.778198
H    -1.235114  1.239022  2.456543
H    -0.285404  -0.384284  4.510489
C    -2.209192  0.605485  4.660560
C    -2.369715  0.265806  6.143864
C    -3.435698  1.115775  6.847824
N    -3.189113  2.558945  6.806988
C    -3.605510  3.385182  5.773881
N    -4.883325  3.094008  5.281528
N    -2.808365  4.309177  5.350067
H    -3.191311  0.565332  4.161457
H    -1.853913  1.643994  4.564306
H    -1.401428  0.396918  6.654406
H    -2.629103  -0.796034  6.270091
H    -3.506523  0.807695  7.901421
H    -4.418293  0.922035  6.397863
H    -2.254667  2.834822  7.101160
H    -5.250536  3.808732  4.663104
H    -5.563793  2.808880  5.981311
H    -3.286193  4.953172  4.714095
N    -2.642502  -2.151548  2.950906
C    -3.157291  -1.469700  1.775918
H    -2.857343  -3.140016  3.040044
H    -4.062447  -1.994307  1.447160
H    -2.440741  -1.461460  0.940081
H    -3.440752  -0.435704  2.001680
