35
Energy: -21190.4471509 eV PBE+vdW (tier 2 basis)
C    -0.367494  0.218613  -0.300910
C    -0.349920  -0.125949  1.176060
O    0.648459  -0.582623  1.734264
H    0.401955  0.976145  -0.495625
H    -1.335790  0.593847  -0.653596
H    -0.096768  -0.676557  -0.874110
N    -1.512879  0.117957  1.848534
C    -1.679226  -0.244986  3.239922
C    -3.177585  -0.503991  3.452649
O    -4.014437  -0.066996  2.657882
H    -2.372213  0.375928  1.367504
H    -1.092186  -1.160069  3.414796
C    -1.140423  0.843595  4.202351
C    -1.873552  2.181326  4.109581
C    -1.251420  3.240344  5.015801
N    -1.961830  4.501529  4.894047
C    -1.548748  5.627100  5.598263
N    -2.448303  6.692061  5.469846
N    -0.489376  5.771331  6.316647
H    -0.075914  0.973086  3.958370
H    -1.176348  0.463862  5.234761
H    -2.934897  2.048337  4.379311
H    -1.859087  2.543648  3.071060
H    -0.201619  3.403537  4.724624
H    -1.239141  2.876527  6.063021
H    -2.970261  4.416286  4.800048
H    -2.060695  7.537211  5.879584
H    -2.784795  6.847646  4.523090
H    0.006401  4.885666  6.439333
N    -3.554849  -1.199677  4.560666
C    -2.726744  -1.826729  5.576749
H    -4.563210  -1.274584  4.657396
H    -3.230628  -2.728377  5.944700
H    -2.536298  -1.162668  6.433749
H    -1.762909  -2.135203  5.157134
