35
Energy: -21190.1590371 eV PBE+vdW (tier 2 basis)
C    -0.420258  0.461723  0.929753
C    -0.660667  -0.408449  2.145744
O    0.262520  -0.709302  2.897140
H    0.486244  0.095700  0.434489
H    -0.215232  1.483609  1.276695
H    -1.239920  0.499005  0.207200
N    -1.929436  -0.896585  2.412654
C    -3.242083  -0.650857  1.806360
C    -3.271336  -0.892925  0.273513
O    -4.000266  -0.243315  -0.471542
H    -1.936927  -1.392064  3.300727
H    -3.868648  -1.471881  2.195630
C    -3.980816  0.638988  2.214272
C    -3.331611  1.989903  1.881013
C    -2.424973  2.524012  2.989736
N    -1.710344  3.708671  2.531859
C    -0.796866  4.319776  3.378395
N    -0.313891  5.529111  2.848582
N    -0.501900  3.789992  4.513844
H    -4.172203  0.581724  3.297633
H    -4.960412  0.580437  1.722332
H    -4.136859  2.720794  1.703423
H    -2.780124  1.928580  0.933602
H    -1.674671  1.788088  3.304325
H    -3.022873  2.739217  3.894364
H    -2.267818  4.358927  1.984376
H    0.474395  5.909314  3.361668
H    -0.134033  5.510230  1.847478
H    0.268136  4.287533  4.967608
N    -2.495680  -1.931967  -0.143348
C    -2.387000  -2.319167  -1.535583
H    -1.875427  -2.351209  0.540998
H    -2.528090  -3.401890  -1.650330
H    -1.409060  -2.042872  -1.957694
H    -3.170578  -1.793339  -2.091090
