35
Energy: -21189.8797088 eV PBE+vdW (tier 2 basis)
C    0.236182  1.040452  2.179067
C    -0.082748  -0.436061  2.305692
O    0.822693  -1.269615  2.316633
H    -0.184872  1.475762  1.264110
H    -0.142167  1.618300  3.030570
H    1.324960  1.129472  2.140938
N    -1.384808  -0.876896  2.427162
C    -2.736986  -0.309641  2.363402
C    -3.562438  -0.915369  1.198246
O    -4.678672  -1.379255  1.437785
H    -1.384356  -1.890909  2.521576
H    -3.274212  -0.705439  3.238859
C    -2.862898  1.221505  2.457695
C    -4.327082  1.701610  2.476915
C    -4.844896  2.097811  1.092124
N    -6.272282  2.355469  1.131956
C    -6.920416  2.928575  0.039425
N    -8.308026  2.945728  0.200122
N    -6.398352  3.409464  -1.036141
H    -2.329047  1.722771  1.638999
H    -2.365807  1.531700  3.386320
H    -4.421693  2.568739  3.144646
H    -4.969641  0.911730  2.895272
H    -4.591720  1.319059  0.348572
H    -4.339328  3.022384  0.771902
H    -6.811257  1.621541  1.585767
H    -8.752761  3.484572  -0.537069
H    -8.627731  3.216597  1.125973
H    -5.398583  3.204532  -1.093061
N    -3.052171  -0.937738  -0.067358
C    -1.818106  -0.375217  -0.594123
H    -3.684566  -1.380691  -0.726808
H    -1.686736  0.672107  -0.292646
H    -1.878157  -0.391520  -1.687495
H    -0.930534  -0.945284  -0.289011
