35
Energy: -21190.0906582 eV PBE+vdW (tier 2 basis)
C    0.225357  -0.666353  1.745831
C    -0.837292  -1.374491  2.558756
O    -0.541384  -2.234282  3.386652
H    0.005971  0.371204  1.476324
H    0.394451  -1.223980  0.813234
H    1.153226  -0.694306  2.323918
N    -2.176195  -1.113211  2.330054
C    -2.890607  -0.089015  1.566132
C    -2.231050  0.263424  0.217650
O    -1.914554  1.417549  -0.072513
H    -2.755376  -1.673408  2.951171
H    -3.847816  -0.564545  1.283411
C    -3.265768  1.154692  2.398363
C    -2.102040  1.927819  3.048127
C    -1.958461  3.367413  2.522907
N    -0.724374  4.024826  2.920876
C    0.481172  3.704225  2.296446
N    1.589054  4.184935  3.010283
N    0.669040  3.048649  1.205808
H    -3.963201  0.806957  3.174213
H    -3.848457  1.822970  1.746006
H    -1.151132  1.407100  2.882665
H    -2.233907  1.955196  4.139780
H    -2.799630  3.985419  2.871562
H    -2.007060  3.359662  1.426502
H    -0.632076  4.188922  3.919743
H    2.432391  4.093291  2.450585
H    1.478871  5.130427  3.368552
H    -0.199264  2.668621  0.818794
N    -2.068284  -0.751666  -0.678432
C    -2.397612  -2.161182  -0.546300
H    -1.612138  -0.448479  -1.533623
H    -2.491806  -2.590688  -1.550080
H    -3.359162  -2.296987  -0.036006
H    -1.634405  -2.727055  0.007666
