35
Energy: -21190.3220996 eV PBE+vdW (tier 2 basis)
C    -0.020571  -0.976629  0.513056
C    -0.084975  -0.538625  1.962416
O    0.904594  -0.572637  2.692168
H    1.012841  -0.868144  0.170985
H    -0.687323  -0.407195  -0.148439
H    -0.296620  -2.041281  0.453006
N    -1.294831  -0.115024  2.453542
C    -2.600033  -0.087609  1.824797
C    -3.543019  0.603931  2.831148
O    -3.309172  0.618283  4.038102
H    -1.313863  0.090773  3.453316
H    -2.567158  0.531847  0.910759
C    -3.162649  -1.483194  1.428213
C    -2.993506  -2.558228  2.498375
C    -3.370798  -3.955564  1.973288
N    -2.633101  -5.044628  2.597390
C    -1.306784  -5.237489  2.248374
N    -0.668574  -6.244908  2.978062
N    -0.788767  -4.575355  1.267084
H    -2.640118  -1.817546  0.520585
H    -4.221783  -1.365323  1.146508
H    -3.570244  -2.312106  3.403023
H    -1.936653  -2.586145  2.793044
H    -3.148742  -4.013655  0.899595
H    -4.444075  -4.155698  2.102389
H    -2.874896  -5.250295  3.560556
H    0.333662  -6.125895  3.069895
H    -1.106877  -6.538938  3.845302
H    0.154449  -4.910819  1.059803
N    -4.656019  1.159608  2.276740
C    -5.698879  1.790106  3.064396
H    -4.754845  1.131656  1.269019
H    -5.838113  2.838859  2.768699
H    -5.385939  1.755470  4.112969
H    -6.655997  1.259854  2.959403
