35
Energy: -21190.9966931 eV PBE+vdW (tier 2 basis)
C    0.482523  0.725912  -0.726311
C    0.522673  0.551230  0.777034
O    1.445004  -0.068204  1.332735
H    -0.400328  1.272122  -1.078834
H    0.506141  -0.263988  -1.198551
H    1.385804  1.261150  -1.045067
N    -0.497463  1.113049  1.470218
C    -0.598897  0.972115  2.908913
C    -2.082459  1.001319  3.289872
O    -2.896879  1.651993  2.624897
H    -1.283225  1.570050  1.012200
H    -0.189937  -0.009727  3.154897
C    0.213546  2.067347  3.653228
C    0.571872  1.726081  5.104344
C    1.737713  0.728653  5.269195
N    1.731925  -0.458299  4.422490
C    0.847454  -1.488864  4.609941
N    1.063315  -2.569747  3.759181
N    -0.072814  -1.434202  5.533090
H    -0.359443  3.005625  3.609964
H    1.134117  2.238090  3.073730
H    -0.309983  1.352508  5.640232
H    0.869769  2.650405  5.622823
H    1.774994  0.394933  6.314679
H    2.685593  1.243150  5.053488
H    2.025297  -0.317041  3.454753
H    0.231974  -3.104154  3.534286
H    1.645090  -2.388440  2.945475
H    -0.520497  -2.349030  5.636328
N    -2.376253  0.285838  4.400488
C    -3.703815  0.257682  4.981042
H    -1.621338  -0.256613  4.850591
H    -3.674086  0.568024  6.034646
H    -4.142040  -0.749523  4.926464
H    -4.339973  0.948868  4.418107
