35
Energy: -21190.4606707 eV PBE+vdW (tier 2 basis)
C    0.170378  -1.115456  0.334401
C    0.112269  -0.685046  1.779913
O    1.130058  -0.418258  2.429271
H    0.575710  -0.275297  -0.253382
H    -0.804084  -1.410792  -0.073684
H    0.874736  -1.950935  0.243386
N    -1.139079  -0.545899  2.313231
C    -1.355030  -0.235952  3.714090
C    -2.519176  -1.115125  4.197103
O    -3.416083  -1.465841  3.429546
H    -1.956990  -0.895748  1.819660
H    -0.421137  -0.493493  4.238723
C    -1.677695  1.253594  3.997153
C    -0.605091  2.240444  3.506451
C    -0.752133  2.643429  2.023997
N    0.531924  2.553325  1.322818
C    0.620580  2.796165  -0.039836
N    -0.121711  3.897594  -0.475904
N    1.325347  2.005491  -0.780618
H    -1.798764  1.358988  5.086116
H    -2.656607  1.498624  3.554998
H    0.388511  1.798642  3.664449
H    -0.639925  3.141877  4.133262
H    -1.133639  3.672046  1.959878
H    -1.508747  2.003072  1.536896
H    1.058520  1.711597  1.561876
H    0.094506  4.194434  -1.420665
H    -0.175689  4.676944  0.174033
H    1.426762  2.376032  -1.729727
N    -2.496031  -1.426374  5.521427
C    -3.545767  -2.186856  6.174178
H    -1.688588  -1.141707  6.062919
H    -3.987928  -1.619177  7.004433
H    -3.164755  -3.143083  6.558784
H    -4.319322  -2.389626  5.426418
