35
Energy: -21190.3291355 eV PBE+vdW (tier 2 basis)
C    0.015463  0.718376  1.527489
C    -0.183223  -0.510741  2.392596
O    0.776060  -1.175234  2.802329
H    -0.658897  1.540856  1.795962
H    -0.153017  0.479308  0.467158
H    1.055097  1.038656  1.638597
N    -1.462421  -0.865288  2.728286
C    -2.675563  -0.515073  2.002889
C    -3.732827  0.257222  2.821780
O    -4.255450  1.256004  2.324104
H    -1.489387  -1.708867  3.307918
H    -2.401919  0.211916  1.230386
C    -3.292983  -1.739716  1.290184
C    -2.352745  -2.373770  0.239069
C    -1.827754  -3.784629  0.563006
N    -0.992381  -3.895871  1.756615
C    -1.463273  -4.109724  3.042309
N    -2.682833  -4.790812  3.133064
N    -0.899961  -3.712438  4.136678
H    -4.219557  -1.397512  0.809328
H    -3.593443  -2.493576  2.032542
H    -1.489602  -1.713698  0.058572
H    -2.874698  -2.441117  -0.727433
H    -1.240355  -4.146359  -0.294792
H    -2.676225  -4.473513  0.662540
H    -0.153798  -3.318227  1.750260
H    -2.832656  -5.093312  4.091727
H    -2.806617  -5.552750  2.472326
H    -0.066221  -3.145947  3.942237
N    -4.100723  -0.187117  4.057957
C    -3.613987  -1.317592  4.836905
H    -4.782035  0.425235  4.496013
H    -3.556253  -2.235287  4.239255
H    -4.328696  -1.506684  5.645381
H    -2.628302  -1.134134  5.287145
