35
Energy: -21190.4983303 eV PBE+vdW (tier 2 basis)
C    0.453363  -1.497631  1.292918
C    0.171733  -1.149855  2.740998
O    0.859680  -1.546714  3.683649
H    -0.282848  -2.229366  0.930161
H    1.448813  -1.945492  1.227611
H    0.401149  -0.608680  0.646671
N    -0.928062  -0.359180  2.934228
C    -1.312394  0.094380  4.251500
C    -2.818119  0.365655  4.256487
O    -3.428925  0.728924  3.244249
H    -1.452715  -0.011777  2.137936
H    -1.084054  -0.737864  4.935206
C    -0.487564  1.318652  4.765954
C    -1.009079  2.750806  4.557886
C    -1.346135  3.224021  3.129804
N    -0.402267  2.793758  2.117193
C    -0.686613  2.181224  0.910498
N    -2.014792  1.842978  0.696201
N    0.174918  1.911022  -0.020079
H    0.509923  1.208735  4.320940
H    -0.341740  1.187650  5.848947
H    -0.241492  3.418599  4.981671
H    -1.908784  2.919673  5.171923
H    -1.427801  4.325909  3.145749
H    -2.336158  2.858562  2.848910
H    0.561827  3.084660  2.220281
H    -2.134905  1.306452  -0.155039
H    -2.608484  1.563855  1.476365
H    1.096778  2.295661  0.202136
N    -3.415428  0.226852  5.467383
C    -4.818043  0.516798  5.703722
H    -2.853046  -0.125347  6.233103
H    -5.237753  0.909814  4.772400
H    -4.935422  1.266578  6.497725
H    -5.369477  -0.390559  5.985796
