35
Energy: -21190.2328565 eV PBE+vdW (tier 2 basis)
C    0.058555  0.797759  0.567092
C    -0.284296  1.137165  2.002330
O    0.526356  1.708283  2.735929
H    -0.783123  0.885520  -0.128360
H    0.418806  -0.239189  0.516722
H    0.872962  1.455974  0.251243
N    -1.500522  0.742075  2.520618
C    -2.796297  0.559927  1.846178
C    -2.745936  -0.464788  0.688248
O    -3.333932  -0.284563  -0.374037
H    -1.584495  1.056539  3.486248
H    -3.421899  0.057111  2.603801
C    -3.551820  1.856109  1.504680
C    -2.964897  2.876685  0.519662
C    -1.796048  3.784985  1.006485
N    -1.670116  4.004879  2.431711
C    -2.561554  4.727719  3.190024
N    -2.243691  4.723477  4.556476
N    -3.630642  5.338868  2.799296
H    -3.770304  2.365336  2.455209
H    -4.522423  1.533921  1.102595
H    -3.805584  3.524421  0.232204
H    -2.657815  2.378388  -0.410636
H    -1.885274  4.757937  0.495385
H    -0.833796  3.372604  0.682944
H    -0.942396  3.482857  2.910421
H    -2.821251  5.396569  5.052368
H    -1.256174  4.848123  4.764988
H    -3.812480  5.180494  1.806276
N    -2.064188  -1.605776  0.991929
C    -1.885342  -2.688388  0.045077
H    -1.557519  -1.624520  1.870496
H    -0.852976  -2.731145  -0.334598
H    -2.560907  -2.509300  -0.797859
H    -2.132451  -3.653412  0.506201
