35
Energy: -21190.479385 eV PBE+vdW (tier 2 basis)
C    -2.078380  -0.465323  -0.026492
C    -1.518260  -0.549705  1.379789
O    -0.817663  -1.506961  1.733493
H    -1.248153  -0.522795  -0.740933
H    -2.659256  0.443972  -0.222854
H    -2.718156  -1.339934  -0.199703
N    -1.835713  0.486410  2.203377
C    -1.519014  0.618366  3.635779
C    -0.029964  0.914233  3.951507
O    0.258988  1.861460  4.683644
H    -2.376241  1.240517  1.799460
H    -2.030856  1.535009  3.954885
C    -2.044679  -0.547929  4.494780
C    -3.557722  -0.745721  4.398564
C    -4.048883  -1.864273  5.314607
N    -5.486836  -2.052798  5.176616
C    -6.182412  -2.777794  6.131061
N    -7.517382  -3.002492  5.748799
N    -5.600428  -3.189543  7.203843
H    -1.762332  -0.321277  5.534266
H    -1.525395  -1.475649  4.218748
H    -3.830627  -0.979183  3.355294
H    -4.082192  0.188042  4.658774
H    -3.856143  -1.625699  6.368262
H    -3.496796  -2.799163  5.105834
H    -5.809664  -2.206579  4.225624
H    -8.090833  -3.384652  6.493403
H    -7.967717  -2.205700  5.304381
H    -6.273963  -3.601839  7.853972
N    0.864279  0.050060  3.412139
C    2.290986  0.166098  3.637513
H    0.490960  -0.711505  2.835223
H    2.680153  -0.709808  4.176434
H    2.468835  1.061427  4.242589
H    2.833449  0.260411  2.686258
