35
Energy: -21190.4246056 eV PBE+vdW (tier 2 basis)
C    0.498375  0.907703  -0.181453
C    0.294037  1.104258  1.309319
O    1.098383  1.724474  2.006553
H    0.544112  1.892018  -0.664118
H    -0.289335  0.312139  -0.658664
H    1.467392  0.419569  -0.342377
N    -0.848018  0.559489  1.819327
C    -1.142772  0.579092  3.238015
C    -2.038860  -0.639698  3.503576
O    -2.640139  -1.192593  2.576683
H    -1.441172  -0.061991  1.272443
H    -0.187956  0.477772  3.778258
C    -1.773404  1.929408  3.675885
C    -3.167473  2.233672  3.108560
C    -4.305717  1.712228  3.984535
N    -5.599336  2.004886  3.382665
C    -6.751106  1.827879  4.131151
N    -7.913259  1.976238  3.356047
N    -6.685674  1.533381  5.385075
H    -1.057526  2.695919  3.351756
H    -1.795470  1.985206  4.774673
H    -3.247727  1.816084  2.090928
H    -3.285491  3.321581  2.999771
H    -4.288403  2.201340  4.967587
H    -4.200075  0.631328  4.176411
H    -5.688136  1.717942  2.411721
H    -8.764812  2.026827  3.904789
H    -7.868533  2.719754  2.663369
H    -7.613883  1.552162  5.814756
N    -2.153635  -1.088334  4.782632
C    -1.593991  -0.526235  5.999494
H    -2.828613  -1.841676  4.878599
H    -1.450704  -1.330423  6.730674
H    -2.247682  0.238342  6.446724
H    -0.613294  -0.078381  5.804076
