35
Energy: -21190.5489034 eV PBE+vdW (tier 2 basis)
C    -1.041324  -0.828562  -1.349508
C    -0.948942  -0.444208  0.110974
O    0.147673  -0.208687  0.636828
H    -0.327992  -0.209743  -1.904611
H    -2.041264  -0.715989  -1.784371
H    -0.720967  -1.874761  -1.456701
N    -2.097531  -0.366539  0.840877
C    -3.385134  -0.977797  0.562943
C    -4.333279  -0.499753  1.680559
O    -3.902722  -0.081145  2.754374
H    -1.990933  -0.074508  1.814700
H    -3.769616  -0.605978  -0.401806
C    -3.352802  -2.530673  0.501135
C    -3.170241  -3.303988  1.813031
C    -1.860781  -3.081426  2.602453
N    -0.642937  -3.005209  1.816946
C    -0.186410  -4.029322  1.029848
N    0.836316  -3.636157  0.148366
N    -0.728315  -5.203097  1.090137
H    -2.563275  -2.822884  -0.204926
H    -4.295763  -2.864991  0.039035
H    -3.230572  -4.370183  1.558358
H    -4.004352  -3.091400  2.500938
H    -1.772537  -3.901916  3.330712
H    -1.917906  -2.148029  3.176359
H    -0.226451  -2.089273  1.686318
H    1.465884  -4.388336  -0.109009
H    1.337300  -2.785710  0.397331
H    -0.278015  -5.844917  0.434177
N    -5.656921  -0.621479  1.396803
C    -6.701986  -0.322166  2.359075
H    -5.921292  -0.976360  0.485549
H    -7.272165  -1.224083  2.622398
H    -7.393004  0.435475  1.966011
H    -6.219403  0.068877  3.260371
