35
Energy: -21189.938377 eV PBE+vdW (tier 2 basis)
C    -0.197275  0.464000  -0.037487
C    -0.161369  0.395175  1.475201
O    0.869415  0.601052  2.116239
H    0.677533  -0.059804  -0.437989
H    -0.120168  1.517845  -0.337188
H    -1.108191  0.039464  -0.476891
N    -1.350304  0.097001  2.081579
C    -1.545088  0.193885  3.530262
C    -0.972110  1.554409  4.031027
O    -1.509370  2.568246  3.586717
H    -2.180630  0.092238  1.502749
H    -2.619307  0.392047  3.653102
C    -1.269715  -1.127464  4.284220
C    -0.099965  -1.990455  3.802977
C    0.224808  -3.106214  4.801965
N    1.289402  -4.007836  4.364493
C    2.620540  -3.888472  4.744598
N    3.007488  -2.587346  5.073470
N    3.487313  -4.841043  4.828020
H    -2.188371  -1.732902  4.217195
H    -1.164202  -0.890575  5.354580
H    0.786935  -1.369613  3.628053
H    -0.341918  -2.439940  2.829025
H    -0.675361  -3.715373  4.976749
H    0.498960  -2.666598  5.774577
H    1.011105  -4.962006  4.175034
H    4.011061  -2.551647  5.227860
H    2.692782  -1.865441  4.430389
H    3.046921  -5.758497  4.715370
N    -0.038943  1.650542  5.029285
C    1.076474  0.765430  5.347320
H    0.127299  2.633995  5.227940
H    0.755553  -0.146513  5.864174
H    1.744037  1.303437  6.028626
H    1.637272  0.497338  4.441797
