35
Energy: -21190.1177705 eV PBE+vdW (tier 2 basis)
C    -0.438570  -1.577511  -0.205507
C    0.468184  -0.737406  0.673249
O    1.665198  -0.611797  0.434465
H    0.196989  -2.218710  -0.821934
H    -1.026114  -0.929543  -0.871395
H    -1.135305  -2.201729  0.367995
N    -0.095866  -0.066986  1.737892
C    -1.437928  -0.175922  2.293151
C    -1.711829  -1.615115  2.828074
O    -0.805453  -2.284042  3.310683
H    0.612314  0.358692  2.326683
H    -1.400458  0.422547  3.218106
C    -2.537991  0.433904  1.395906
C    -2.207484  1.812965  0.814612
C    -1.947992  2.916525  1.854620
N    -2.963677  3.060205  2.901045
C    -4.318148  3.269413  2.648182
N    -4.577068  4.020653  1.504632
N    -5.308029  2.839436  3.355991
H    -3.463312  0.524670  1.987538
H    -2.767490  -0.245116  0.562253
H    -3.046189  2.121530  0.175193
H    -1.319851  1.745877  0.168315
H    -1.817368  3.874513  1.329093
H    -0.995143  2.741901  2.373569
H    -2.812169  2.488112  3.723888
H    -5.554831  4.291034  1.461447
H    -3.944294  4.796315  1.333145
H    -4.991809  2.197729  4.088578
N    -3.007456  -2.038160  2.768754
C    -3.431251  -3.324947  3.290801
H    -3.694429  -1.446226  2.319396
H    -3.792840  -3.982238  2.487536
H    -4.228987  -3.203465  4.035988
H    -2.562154  -3.791648  3.765517
