35
Energy: -21190.3663931 eV PBE+vdW (tier 2 basis)
C    1.573628  -0.458117  0.725788
C    1.072509  0.146719  2.025868
O    1.837316  0.552577  2.895253
H    1.919942  -1.481068  0.927819
H    2.436810  0.118468  0.376505
H    0.816134  -0.498746  -0.067029
N    -0.297387  0.219219  2.139847
C    -1.031233  0.541973  3.369784
C    -0.558913  1.854660  4.043151
O    -0.632700  2.014915  5.259363
H    -0.837346  -0.216842  1.401008
H    -2.048440  0.795876  3.026224
C    -1.205280  -0.647554  4.336384
C    0.034467  -1.422686  4.802122
C    0.949620  -0.701889  5.807617
N    0.275660  -0.236394  7.016594
C    -0.351627  -1.093853  7.901300
N    0.319797  -2.312617  8.094706
N    -1.469219  -0.745538  8.449278
H    -1.877190  -1.359302  3.831538
H    -1.762206  -0.276522  5.208777
H    0.642614  -1.737469  3.939465
H    -0.325233  -2.350797  5.272068
H    1.415176  0.172658  5.339761
H    1.776411  -1.377950  6.072371
H    -0.274627  0.607964  6.859982
H    -0.012789  -2.830262  8.900698
H    1.334689  -2.250931  8.075837
H    -1.739854  -1.404494  9.185026
N    -0.212908  2.849518  3.182896
C    0.320546  4.113874  3.654114
H    -0.037807  2.583327  2.221025
H    0.035527  4.919331  2.966598
H    1.417638  4.085461  3.741877
H    -0.099920  4.317549  4.643990
