35
Energy: -21190.1953078 eV PBE+vdW (tier 2 basis)
C    -0.035316  2.269558  0.752549
C    -0.284407  1.892713  2.201616
O    -0.008696  2.658302  3.132406
H    0.954613  2.732645  0.666505
H    -0.777235  3.024530  0.459272
H    -0.115105  1.417601  0.065623
N    -0.841735  0.668150  2.381877
C    -1.217752  0.126970  3.681136
C    -1.940510  1.215585  4.525170
O    -3.050067  1.578759  4.139383
H    -0.920291  0.030514  1.576329
H    -2.069501  -0.535543  3.468871
C    -0.135698  -0.781145  4.330812
C    1.347449  -0.412608  4.117164
C    2.093062  -1.334932  3.139695
N    1.594674  -1.284695  1.760690
C    0.585736  -2.089982  1.268355
N    0.668557  -3.425678  1.645532
N    -0.343717  -1.556893  0.534135
H    -0.299485  -1.793956  3.933392
H    -0.362745  -0.861278  5.402792
H    1.887160  -0.458981  5.075258
H    1.442250  0.627785  3.775655
H    2.032625  -2.374392  3.488188
H    3.160050  -1.066127  3.125670
H    1.484044  -0.338906  1.405148
H    0.008647  -4.042169  1.186693
H    1.603153  -3.816257  1.716201
H    -0.925713  -2.263597  0.078945
N    -1.462960  1.634838  5.741363
C    -0.079290  1.782150  6.177752
H    -2.118392  2.299220  6.143476
H    -0.056614  2.532541  6.975742
H    0.555067  2.134718  5.355121
H    0.329337  0.850394  6.593242
