35
Energy: -21190.4439843 eV PBE+vdW (tier 2 basis)
C    -0.550251  -0.809247  -1.086780
C    0.004590  -0.830977  0.319351
O    1.127269  -1.254311  0.585537
H    -1.155611  -1.710957  -1.265061
H    0.292579  -0.837114  -1.783308
H    -1.173788  0.069950  -1.290043
N    -0.800802  -0.320982  1.324139
C    -2.257761  -0.224424  1.280970
C    -2.799775  1.172807  0.904537
O    -4.004888  1.343205  0.729784
H    -0.376904  -0.438486  2.241972
H    -2.635026  -0.900812  0.501022
C    -2.878082  -0.640527  2.626723
C    -2.580034  -2.065868  3.115926
C    -2.949803  -3.201767  2.153939
N    -1.915877  -3.402761  1.148447
C    -2.069887  -4.048412  -0.068346
N    -3.390206  -4.319567  -0.427911
N    -1.126809  -4.313644  -0.910152
H    -3.962629  -0.501012  2.523004
H    -2.551965  0.075400  3.400138
H    -3.138158  -2.213898  4.051990
H    -1.518057  -2.174239  3.395615
H    -3.890238  -2.953063  1.639588
H    -3.132453  -4.122657  2.740959
H    -0.959089  -3.376709  1.484095
H    -3.416095  -4.867737  -1.282610
H    -3.989776  -4.700345  0.297430
H    -0.220807  -3.964723  -0.584196
N    -1.860588  2.148148  0.799563
C    -2.181173  3.515211  0.443847
H    -0.896686  1.865943  0.948168
H    -1.873123  4.214043  1.233947
H    -3.267325  3.578343  0.315429
H    -1.692674  3.807244  -0.496380
