35
Energy: -21190.4489014 eV PBE+vdW (tier 2 basis)
C    -0.823588  -0.147451  -0.494789
C    -0.519826  -0.275270  0.986427
O    0.557552  -0.706307  1.401974
H    -0.068558  0.501226  -0.956027
H    -1.821138  0.256332  -0.706104
H    -0.730899  -1.137111  -0.959087
N    -1.516763  0.125841  1.824459
C    -1.414414  0.003074  3.262754
C    -2.850401  0.034166  3.810599
O    -3.782798  0.444260  3.109764
H    -2.436144  0.406585  1.487759
H    -0.934909  -0.962297  3.490447
C    -0.550929  1.115236  3.904967
C    -1.029971  2.539877  3.612357
C    -0.489728  3.585948  4.600937
N    -0.986583  3.425741  5.964580
C    -0.453543  2.593480  6.940654
N    0.909502  2.346108  6.852256
N    -1.097224  2.117989  7.960013
H    0.479436  0.974837  3.547381
H    -0.538660  0.939334  4.988552
H    -2.131343  2.584260  3.638818
H    -0.743659  2.832892  2.591048
H    -0.776934  4.591012  4.257548
H    0.609518  3.590430  4.619791
H    -1.995556  3.503716  6.042357
H    1.204113  1.637428  7.515043
H    1.322610  2.245705  5.933067
H    -2.064238  2.453199  7.976087
N    -3.054963  -0.363137  5.093795
C    -2.111570  -0.901599  6.065200
H    -4.020665  -0.252772  5.389202
H    -2.619274  -1.664442  6.668306
H    -1.717936  -0.125296  6.740604
H    -1.273963  -1.391145  5.556448
