35
Energy: -21190.1517406 eV PBE+vdW (tier 2 basis)
C    -0.709119  0.259852  -0.477173
C    -0.214930  -0.313183  0.836603
O    0.881771  -0.857991  0.914455
H    -0.931239  -0.581143  -1.148161
H    0.113109  0.827039  -0.926910
H    -1.597399  0.893371  -0.413883
N    -1.044352  -0.298407  1.947379
C    -2.244105  0.487636  2.254975
C    -3.386725  0.315754  1.222200
O    -4.155475  1.235032  0.951279
H    -0.562014  -0.693604  2.751495
H    -2.652660  0.010015  3.161802
C    -1.997938  1.957407  2.642541
C    -1.368929  2.868554  1.589483
C    -1.225435  4.301795  2.101497
N    -0.640939  5.152637  1.077928
C    -0.135588  6.428559  1.284742
N    -0.038319  6.807997  2.624123
N    0.309529  7.229936  0.375503
H    -1.364051  1.952284  3.543848
H    -2.972717  2.369277  2.941993
H    -1.999599  2.873835  0.687220
H    -0.372003  2.505874  1.298922
H    -0.561873  4.314458  2.979296
H    -2.219487  4.665171  2.433622
H    -0.952231  4.979500  0.129256
H    0.255803  7.777681  2.693481
H    -0.840119  6.599851  3.211604
H    0.314500  6.782862  -0.545347
N    -3.504320  -0.944871  0.723741
C    -4.509582  -1.311597  -0.254002
H    -2.774321  -1.607280  0.963010
H    -5.038711  -2.222378  0.055084
H    -4.065893  -1.478928  -1.246862
H    -5.225413  -0.485967  -0.323830
