35
Energy: -21190.3244593 eV PBE+vdW (tier 2 basis)
C    -0.337734  -0.808986  1.345108
C    -0.313730  0.208056  2.477297
O    0.704139  0.406727  3.137077
H    0.697295  -1.073548  1.112382
H    -0.836345  -0.447072  0.436054
H    -0.854552  -1.721813  1.679682
N    -1.472713  0.887339  2.740743
C    -2.783745  0.729097  2.124133
C    -3.457457  2.112453  2.233378
O    -3.564991  2.649134  3.337262
H    -1.437546  1.515687  3.542175
H    -2.646371  0.445549  1.074540
C    -3.657322  -0.323929  2.844801
C    -4.940612  -0.717552  2.090968
C    -4.825299  -2.004044  1.256937
N    -3.750308  -2.040914  0.275085
C    -3.862941  -1.448002  -0.960211
N    -2.672429  -1.520624  -1.703241
N    -4.956736  -0.857501  -1.314684
H    -3.899096  0.088388  3.834201
H    -3.032809  -1.212583  3.030417
H    -5.280131  0.102116  1.441593
H    -5.754382  -0.879156  2.813103
H    -5.763176  -2.169427  0.711907
H    -4.672487  -2.862327  1.928736
H    -2.809267  -2.181160  0.621434
H    -2.784682  -1.252731  -2.675279
H    -2.161330  -2.396146  -1.616245
H    -4.923880  -0.581493  -2.298760
N    -3.911157  2.705417  1.098286
C    -3.781782  2.250893  -0.281152
H    -4.321443  3.619489  1.264240
H    -4.228857  3.012843  -0.928607
H    -4.311378  1.305040  -0.463175
H    -2.728571  2.138537  -0.578350
