35
Energy: -21190.1604617 eV PBE+vdW (tier 2 basis)
C    0.401741  0.109462  0.043389
C    0.279093  -0.274375  1.507550
O    1.120232  -0.955059  2.085799
H    1.266423  0.775475  -0.072944
H    -0.486148  0.610694  -0.362297
H    0.605121  -0.794357  -0.542936
N    -0.843896  0.183046  2.145455
C    -1.068977  -0.003798  3.573174
C    -1.021262  -1.463305  4.071830
O    -0.514202  -1.689214  5.170036
H    -1.497062  0.763529  1.632265
H    -0.241889  0.460930  4.130999
C    -2.382357  0.707168  3.958790
C    -2.723241  0.714521  5.457490
C    -3.543815  -0.501636  5.926841
N    -3.902333  -0.477118  7.331507
C    -2.994733  -0.853463  8.326311
N    -3.497827  -0.568501  9.607747
N    -1.836587  -1.390756  8.206303
H    -3.220700  0.267938  3.389891
H    -2.285598  1.747421  3.609522
H    -3.308279  1.621336  5.675706
H    -1.803304  0.786553  6.055158
H    -2.999440  -1.435803  5.740593
H    -4.474955  -0.559752  5.340236
H    -4.516046  0.284231  7.608217
H    -2.885543  -0.967962  10.314101
H    -4.464151  -0.855086  9.747202
H    -1.494706  -1.438568  7.241966
N    -1.622728  -2.466277  3.366213
C    -2.241518  -2.465653  2.052003
H    -1.472311  -3.369973  3.805016
H    -2.857075  -3.368751  1.964922
H    -1.504038  -2.470549  1.234865
H    -2.904738  -1.603710  1.919401
