35
Energy: -21190.447187 eV PBE+vdW (tier 2 basis)
C    -0.475989  2.542213  0.190076
C    -0.410223  1.416459  1.205947
O    0.281956  0.419294  1.043689
H    -0.683262  2.115083  -0.798089
H    0.509083  3.023611  0.136772
H    -1.230835  3.305141  0.418544
N    -1.197078  1.585838  2.326156
C    -1.107432  0.691404  3.476215
C    -2.023602  -0.546087  3.383542
O    -1.848339  -1.505884  4.133307
H    -1.633922  2.490312  2.469369
H    -0.088507  0.278434  3.486880
C    -1.371255  1.518534  4.754169
C    -1.323915  0.774957  6.093175
C    0.024833  0.098671  6.390408
N    0.113323  -0.515296  7.702219
C    -0.478371  -1.751239  7.972105
N    -0.408781  -2.063216  9.341437
N    -1.039263  -2.572594  7.161577
H    -2.359007  2.000150  4.654970
H    -0.625318  2.331025  4.762746
H    -2.121511  0.022458  6.142143
H    -1.533697  1.508679  6.888117
H    0.840430  0.835023  6.306409
H    0.226333  -0.682797  5.645234
H    0.092563  0.129179  8.487415
H    -0.722757  -3.018332  9.491846
H    0.507011  -1.903836  9.755461
H    -1.162619  -2.195895  6.217186
N    -3.022208  -0.475794  2.466087
C    -3.929280  -1.579049  2.215409
H    -2.995916  0.309105  1.824735
H    -4.969813  -1.229338  2.196241
H    -3.806393  -2.302920  3.027986
H    -3.702153  -2.078956  1.262544
