35
Energy: -21190.1978906 eV PBE+vdW (tier 2 basis)
C    0.345844  -0.650419  -0.247800
C    0.277609  -0.568071  1.269174
O    1.224555  -0.921625  1.969835
H    1.289231  -0.203169  -0.581448
H    -0.488939  -0.160792  -0.764908
H    0.364750  -1.709156  -0.537955
N    -0.903599  -0.068922  1.755776
C    -1.415966  -0.004398  3.130149
C    -1.362213  1.357033  3.856267
O    -2.330188  1.648697  4.575687
H    -1.579959  0.192983  1.049220
H    -2.501003  -0.118702  3.007450
C    -0.942460  -1.134973  4.083274
C    -1.918278  -2.312914  4.173295
C    -3.340311  -1.932409  4.643002
N    -3.400868  -0.995512  5.752756
C    -3.083310  -1.402804  7.029985
N    -2.933417  -0.327456  7.919582
N    -2.918882  -2.654768  7.307566
H    -0.819061  -0.704804  5.086682
H    0.049019  -1.477629  3.771995
H    -1.502481  -3.042775  4.880747
H    -1.999036  -2.823229  3.199219
H    -3.869530  -2.846417  4.941171
H    -3.916266  -1.483122  3.819479
H    -3.181492  -0.025576  5.517050
H    -3.013569  -0.589199  8.895858
H    -3.485787  0.497625  7.700070
H    -2.763729  -2.790544  8.308993
N    -0.304718  2.197236  3.751257
C    0.984813  2.013955  3.101788
H    -0.438927  3.043811  4.296883
H    0.977969  2.374215  2.061718
H    1.288407  0.961580  3.102610
H    1.736597  2.585001  3.658827
