35
Energy: -21189.9707038 eV PBE+vdW (tier 2 basis)
C    -0.072114  -0.208522  0.103684
C    -0.188059  -0.541109  1.581651
O    0.662154  -1.205423  2.164287
H    0.435842  -1.032568  -0.406785
H    0.550880  0.691243  0.002311
H    -1.037981  -0.016148  -0.380959
N    -1.329305  -0.048776  2.176299
C    -1.584321  0.096190  3.604467
C    -0.993557  1.443129  4.104525
O    -0.148072  2.053894  3.459381
H    -1.854353  0.599147  1.599285
H    -2.680356  0.169500  3.689753
C    -1.143633  -1.121960  4.460306
C    0.221370  -1.009000  5.145363
C    0.707476  -2.368734  5.639547
N    1.940840  -2.224316  6.390652
C    2.606711  -3.250976  7.031333
N    1.823374  -4.382750  7.296855
N    3.828585  -3.060786  7.404379
H    -1.154326  -1.998749  3.800123
H    -1.916648  -1.300819  5.222563
H    0.171883  -0.317955  6.001266
H    0.953896  -0.608384  4.432261
H    0.821323  -3.034438  4.760027
H    -0.059587  -2.812386  6.297367
H    2.581905  -1.501092  6.080235
H    2.371452  -5.193345  7.561139
H    1.114327  -4.613903  6.607188
H    4.197168  -3.873325  7.903356
N    -1.481977  1.939752  5.282824
C    -2.429308  1.342461  6.207457
H    -1.007689  2.788631  5.576251
H    -2.857366  2.134068  6.832740
H    -1.967852  0.593695  6.870692
H    -3.259943  0.866330  5.671303
