35
Energy: -21190.3161294 eV PBE+vdW (tier 2 basis)
C    -2.600612  2.185832  -0.618541
C    -2.050655  1.723492  0.722156
O    -1.582372  2.516478  1.536389
H    -3.649554  1.885569  -0.754412
H    -2.025910  1.771840  -1.458531
H    -2.536198  3.276456  -0.649745
N    -2.106163  0.382704  0.992780
C    -2.600394  -0.691322  0.155693
C    -3.009060  -1.840273  1.098205
O    -2.527110  -1.926508  2.230670
H    -1.799537  0.092544  1.921688
H    -3.486899  -0.345968  -0.396792
C    -1.563527  -1.213490  -0.873356
C    -0.219491  -1.619315  -0.255610
C    0.580701  -2.599254  -1.124888
N    0.005399  -3.948967  -1.169312
C    -1.030867  -4.331680  -2.013812
N    -0.982742  -3.768672  -3.287635
N    -1.997983  -5.141854  -1.727442
H    -1.401100  -0.435841  -1.634181
H    -2.008895  -2.061870  -1.409154
H    -0.378540  -2.085293  0.730445
H    0.391513  -0.724571  -0.065161
H    1.604464  -2.688116  -0.733644
H    0.670446  -2.221099  -2.151645
H    -0.091870  -4.365965  -0.247479
H    -1.646420  -4.223969  -3.906853
H    -0.055890  -3.692113  -3.695927
H    -1.993262  -5.376861  -0.730679
N    -3.881457  -2.772343  0.627933
C    -4.518447  -2.881918  -0.676795
H    -4.037823  -3.528631  1.288256
H    -4.641992  -1.892653  -1.130865
H    -5.519927  -3.310851  -0.548902
H    -3.943658  -3.525265  -1.361355
