35
Energy: -21190.2789078 eV PBE+vdW (tier 2 basis)
C    0.670313  0.732291  1.455073
C    -0.064968  -0.448746  2.071087
O    0.538440  -1.436727  2.482912
H    0.539877  1.642508  2.058277
H    0.328002  0.954183  0.435867
H    1.733716  0.481044  1.428148
N    -1.432043  -0.376637  2.150718
C    -2.313631  0.723932  1.811502
C    -3.253040  0.961773  3.011693
O    -3.620688  0.030716  3.722446
H    -1.871611  -1.121597  2.691328
H    -1.704671  1.622392  1.634423
C    -3.172961  0.431099  0.557882
C    -2.347684  0.221883  -0.711469
C    -3.183746  -0.134185  -1.951044
N    -3.901309  -1.404640  -1.858091
C    -5.170738  -1.547914  -1.300154
N    -6.021316  -0.460358  -1.518734
N    -5.611446  -2.560701  -0.635776
H    -3.885209  1.258145  0.409777
H    -3.781608  -0.460469  0.770199
H    -1.606173  -0.575252  -0.540752
H    -1.772760  1.134705  -0.944482
H    -2.523328  -0.176066  -2.830583
H    -3.916814  0.658783  -2.145147
H    -3.305068  -2.202896  -1.659763
H    -6.961362  -0.691464  -1.209278
H    -6.011570  -0.093645  -2.467105
H    -4.859661  -3.217991  -0.409214
N    -3.660766  2.251161  3.180554
C    -4.622975  2.646028  4.193611
H    -3.298031  2.956201  2.550477
H    -4.199191  3.402544  4.867778
H    -4.873160  1.751952  4.773973
H    -5.540827  3.044662  3.739213
