35
Energy: -21190.1604955 eV PBE+vdW (tier 2 basis)
C    0.232647  -0.409734  0.489860
C    -0.566586  -0.929151  1.670977
O    -0.678098  -2.128341  1.904154
H    1.256522  -0.797036  0.557408
H    0.266087  0.685148  0.419687
H    -0.207368  -0.810311  -0.431906
N    -1.157932  0.043123  2.443604
C    -1.925677  -0.270201  3.639995
C    -3.400851  0.180721  3.622298
O    -4.267067  -0.575044  4.052680
H    -0.915160  1.004436  2.242390
H    -1.996954  -1.364930  3.648823
C    -1.242402  0.197169  4.942431
C    0.145752  -0.413098  5.175090
C    0.174051  -1.940941  5.280831
N    -0.687645  -2.413318  6.349886
C    -1.045871  -3.756475  6.450621
N    -1.763231  -4.014821  7.627777
N    -0.795079  -4.717215  5.633958
H    -1.913515  -0.071334  5.770346
H    -1.157306  1.296191  4.951156
H    0.567771  0.028157  6.093269
H    0.829273  -0.120684  4.363287
H    1.222638  -2.269918  5.413108
H    -0.176054  -2.384070  4.337491
H    -0.539827  -1.968113  7.252059
H    -2.116346  -4.968004  7.617617
H    -2.506942  -3.344840  7.810133
H    -0.165253  -4.427510  4.882657
N    -3.736962  1.435700  3.180606
C    -2.905765  2.522154  2.696816
H    -4.739062  1.594855  3.217042
H    -2.001949  2.647243  3.309131
H    -3.471248  3.457228  2.780207
H    -2.613055  2.401884  1.641120
