35
Energy: -21190.0971627 eV PBE+vdW (tier 2 basis)
C    -0.838176  -1.857974  0.509104
C    -0.782393  -0.799502  1.600475
O    -0.142799  0.239753  1.447418
H    -1.180259  -1.384927  -0.419270
H    -1.488550  -2.711599  0.737320
H    0.179748  -2.227075  0.330456
N    -1.491813  -1.113632  2.729904
C    -1.625413  -0.396962  4.006032
C    -3.002180  0.279642  4.225448
O    -3.623538  0.009746  5.255369
H    -1.990616  -1.994851  2.698204
H    -1.668873  -1.188825  4.766898
C    -0.468335  0.542781  4.390690
C    0.879398  -0.159975  4.594071
C    0.911462  -1.190440  5.734088
N    0.560213  -0.670948  7.058029
C    1.297493  0.339700  7.667965
N    2.681827  0.201135  7.521657
N    0.673417  1.290598  8.274893
H    -0.771572  1.033797  5.328203
H    -0.346827  1.333477  3.643789
H    1.636392  0.610480  4.801662
H    1.195846  -0.651751  3.661963
H    1.912343  -1.643415  5.774260
H    0.223841  -2.025293  5.533952
H    -0.430757  -0.476817  7.184784
H    3.030673  -0.753390  7.537507
H    3.221485  0.818498  8.117577
H    1.317146  1.883149  8.806529
N    -3.497380  1.166947  3.319215
C    -2.953421  1.634497  2.055838
H    -4.411415  1.515910  3.593502
H    -1.862811  1.548440  2.030619
H    -3.212518  2.692437  1.924044
H    -3.356262  1.069823  1.199763
