35
Energy: -21189.9660159 eV PBE+vdW (tier 2 basis)
C    -0.319137  -1.323307  -0.636375
C    0.124404  -0.765904  0.691487
O    1.262336  -0.926096  1.126281
H    -0.390053  -0.489302  -1.352867
H    -1.291137  -1.830593  -0.591914
H    0.445818  -2.027545  -0.973461
N    -0.739633  0.054255  1.407612
C    -2.195499  0.170612  1.454099
C    -2.914145  0.034459  0.096683
O    -2.763993  0.816289  -0.835118
H    -0.292698  0.338645  2.278514
H    -2.592001  -0.629657  2.110849
C    -2.593228  1.502503  2.137495
C    -2.438232  2.832642  1.380194
C    -1.013612  3.382381  1.136309
N    -0.191424  2.766294  0.115982
C    -0.406000  2.813361  -1.246197
N    -1.193167  3.880320  -1.696309
N    0.202066  1.951088  -1.993140
H    -2.036431  1.554114  3.090063
H    -3.651531  1.399454  2.424146
H    -2.961260  3.591056  1.986115
H    -2.978187  2.769893  0.425840
H    -0.440482  3.333815  2.075595
H    -1.099220  4.458275  0.912717
H    0.278849  1.907211  0.376276
H    -1.548717  3.731308  -2.634041
H    -1.933733  4.182367  -1.070525
H    0.010255  2.120575  -2.982753
N    -3.798002  -1.009558  0.057880
C    -4.601980  -1.306293  -1.111746
H    -3.829676  -1.641626  0.848313
H    -5.669440  -1.349314  -0.857133
H    -4.305505  -2.260748  -1.569848
H    -4.435759  -0.502146  -1.836269
