35
Energy: -21190.6500224 eV PBE+vdW (tier 2 basis)
C    0.970459  -2.568971  2.382517
C    0.559686  -1.662202  3.525764
O    0.981853  -1.806346  4.674332
H    0.817408  -3.612343  2.683393
H    2.044439  -2.436722  2.197747
H    0.419914  -2.367525  1.455471
N    -0.315478  -0.671025  3.178938
C    -0.803585  0.291964  4.152925
C    -2.332057  0.409021  4.033084
O    -2.903730  1.440477  3.651077
H    -0.685107  -0.643550  2.222251
H    -0.587896  -0.173334  5.128687
C    -0.059554  1.654729  4.158999
C    0.541150  2.193027  2.849932
C    -0.404289  2.889894  1.858745
N    -1.435065  2.042530  1.254208
C    -1.126989  0.914768  0.522813
N    0.060305  0.963142  -0.195967
N    -1.818786  -0.189017  0.485806
H    0.778329  1.527653  4.858435
H    -0.732041  2.402501  4.604450
H    1.082090  1.387898  2.330849
H    1.307557  2.934329  3.127014
H    0.195406  3.369660  1.069110
H    -0.941833  3.705335  2.362802
H    -2.209520  1.889124  1.905555
H    0.345745  1.874529  -0.536333
H    0.108661  0.231264  -0.896652
H    -2.642873  -0.112120  1.088899
N    -3.058913  -0.688345  4.376650
C    -2.595736  -1.998946  4.805080
H    -4.056522  -0.563283  4.231052
H    -2.392908  -2.663730  3.952104
H    -3.367962  -2.457526  5.433475
H    -1.678083  -1.921104  5.398826
