35
Energy: -21190.3406711 eV PBE+vdW (tier 2 basis)
C    -1.253521  0.255434  -0.585022
C    -0.476759  0.286625  0.723748
O    0.701545  -0.058059  0.784034
H    -0.598276  -0.165465  -1.351997
H    -1.553922  1.267339  -0.893678
H    -2.164012  -0.355596  -0.513161
N    -1.141727  0.740878  1.830433
C    -2.543047  1.103263  1.951921
C    -2.632651  2.138999  3.086486
O    -1.972163  2.012238  4.115011
H    -0.611301  0.754435  2.700601
H    -2.874558  1.566641  1.008865
C    -3.444223  -0.115854  2.255393
C    -4.944271  0.176788  2.213046
C    -5.804245  -1.090412  2.306329
N    -5.606827  -2.001355  1.182560
C    -4.958041  -3.214805  1.358829
N    -5.021279  -4.016640  0.207910
N    -4.411392  -3.512967  2.485219
H    -3.159341  -0.530023  3.233336
H    -3.205711  -0.892520  1.515166
H    -5.194262  0.709720  1.277802
H    -5.232305  0.844179  3.040824
H    -6.867347  -0.812179  2.352413
H    -5.561762  -1.644312  3.223747
H    -6.341704  -2.014557  0.485366
H    -4.406683  -4.822987  0.240949
H    -4.925587  -3.511884  -0.670116
H    -3.898108  -4.394812  2.431846
N    -3.503686  3.164301  2.870595
C    -3.775110  4.188932  3.861823
H    -4.003366  3.188254  1.990219
H    -4.822525  4.157534  4.193877
H    -3.556213  5.189633  3.465534
H    -3.123826  3.995503  4.720473
