35
Energy: -21190.1684194 eV PBE+vdW (tier 2 basis)
C    0.388168  0.560644  0.321972
C    0.382436  0.484107  1.838375
O    1.411434  0.526925  2.504459
H    0.861805  -0.348063  -0.071731
H    1.007767  1.410870  0.014305
H    -0.609080  0.659796  -0.124628
N    -0.857562  0.379340  2.415574
C    -1.074039  0.150673  3.843524
C    -0.161579  1.029004  4.742751
O    0.515484  0.533090  5.643014
H    -1.661611  0.290331  1.805998
H    -2.109615  0.476674  4.045481
C    -0.939565  -1.329548  4.230934
C    -1.538512  -1.653413  5.610948
C    -0.646802  -2.604111  6.430327
N    -0.998939  -2.719226  7.834051
C    -0.734836  -1.733905  8.787351
N    0.235880  -0.812695  8.437297
N    -1.253653  -1.685286  9.973082
H    0.130775  -1.578903  4.212321
H    -1.422462  -1.928545  3.445949
H    -2.545088  -2.087105  5.504009
H    -1.665299  -0.729318  6.192230
H    0.396282  -2.264664  6.363333
H    -0.665370  -3.613580  5.991644
H    -1.836878  -3.251195  8.038265
H    0.325585  -0.086032  9.137953
H    0.304187  -0.475068  7.478530
H    -1.864071  -2.489716  10.140884
N    -0.221671  2.381811  4.586025
C    -0.911999  3.167591  3.580725
H    0.438700  2.866491  5.186178
H    -1.037082  4.187575  3.962692
H    -1.913241  2.765831  3.384286
H    -0.362850  3.216800  2.627721
