35
Energy: -21190.5602238 eV PBE+vdW (tier 2 basis)
C    -0.277978  -0.359869  -0.229906
C    -0.303162  -0.369023  1.286163
O    0.722202  -0.424144  1.965480
H    0.292751  -1.228770  -0.578918
H    0.255011  0.538424  -0.566907
H    -1.274648  -0.372706  -0.687463
N    -1.544742  -0.293505  1.850659
C    -1.740827  -0.340940  3.285585
C    -3.175513  -0.823100  3.527659
O    -4.063090  -0.651934  2.683744
H    -2.390443  -0.338239  1.287900
H    -1.016673  -1.063478  3.695412
C    -1.489083  1.014964  4.004376
C    -2.568204  2.090359  3.829035
C    -2.644818  2.723118  2.425961
N    -3.752985  3.640824  2.246941
C    -5.041768  3.284073  1.864493
N    -5.190723  1.979015  1.410366
N    -6.058502  4.083209  1.819197
H    -0.508962  1.377206  3.661262
H    -1.372171  0.801687  5.078241
H    -2.376570  2.893829  4.558049
H    -3.558128  1.684816  4.091724
H    -2.723244  1.955169  1.649012
H    -1.706315  3.261229  2.218026
H    -3.698208  4.526426  2.735060
H    -4.741373  1.220660  1.922202
H    -6.166944  1.788186  1.208872
H    -5.785771  5.043245  2.047750
N    -3.399423  -1.388680  4.738263
C    -4.712520  -1.816455  5.188212
H    -2.604444  -1.527458  5.351204
H    -4.743963  -2.903739  5.341239
H    -5.434976  -1.547055  4.411603
H    -4.987329  -1.314983  6.125651
