35
Energy: -21190.0488844 eV PBE+vdW (tier 2 basis)
C    -0.036276  0.146785  -0.413410
C    0.061998  0.079779  1.095753
O    1.142378  0.024726  1.679447
H    0.960949  0.371198  -0.800710
H    -0.750880  0.899742  -0.764927
H    -0.362484  -0.819974  -0.821535
N    -1.104371  0.057090  1.831198
C    -2.507385  0.138490  1.414625
C    -2.853095  -0.938815  0.352677
O    -3.242627  -0.644147  -0.776077
H    -0.920759  0.032067  2.829737
H    -3.075804  -0.129257  2.320774
C    -2.958632  1.545458  0.975932
C    -4.394227  1.913385  1.373245
C    -5.488662  1.046445  0.751679
N    -6.799676  1.590904  1.088464
C    -7.984275  0.923207  0.810064
N    -7.932037  0.101590  -0.316356
N    -8.989144  1.087981  1.603458
H    -2.841894  1.633253  -0.113020
H    -2.273434  2.266304  1.441488
H    -4.488282  1.877361  2.473404
H    -4.577975  2.959482  1.083812
H    -5.393084  -0.004009  1.085409
H    -5.348489  1.034013  -0.340000
H    -6.865517  2.031331  2.002750
H    -8.838469  -0.177900  -0.672185
H    -7.284646  0.370531  -1.051281
H    -9.831962  0.636213  1.240126
N    -2.707410  -2.241457  0.731989
C    -2.258410  -2.780720  2.005462
H    -2.920571  -2.897586  -0.012617
H    -2.549659  -3.835528  2.056025
H    -2.740935  -2.268967  2.849031
H    -1.168817  -2.709504  2.132556
