35
Energy: -21190.1745439 eV PBE+vdW (tier 2 basis)
C    0.633565  -0.052518  0.686619
C    -0.080338  -0.079827  2.019984
O    0.534391  -0.029898  3.081797
H    0.218858  -0.762249  -0.038829
H    1.686895  -0.282063  0.869093
H    0.571266  0.950945  0.244536
N    -1.460958  -0.188530  2.043778
C    -2.492903  -0.123287  0.999405
C    -2.735777  -1.456772  0.261918
O    -3.617254  -1.541388  -0.599161
H    -1.802273  -0.138680  2.999876
H    -3.424180  0.002228  1.571867
C    -2.415919  1.110799  0.049553
C    -1.857348  0.949189  -1.379283
C    -2.913459  0.858266  -2.505287
N    -3.929547  1.890122  -2.474325
C    -5.210843  1.790548  -1.942065
N    -5.614426  0.516913  -1.587029
N    -6.046962  2.773375  -1.822231
H    -1.835282  1.866648  0.593957
H    -3.424906  1.536584  -0.028364
H    -1.207303  0.066654  -1.467562
H    -1.209858  1.814155  -1.591705
H    -3.409856  -0.116661  -2.482377
H    -2.385522  0.908648  -3.471361
H    -3.631164  2.840435  -2.655807
H    -6.513803  0.527004  -1.120881
H    -4.941255  -0.154725  -1.216761
H    -5.664708  3.636153  -2.218455
N    -1.969923  -2.502480  0.650014
C    -2.128892  -3.840558  0.112979
H    -1.339227  -2.341126  1.428545
H    -1.166542  -4.231948  -0.241662
H    -2.829254  -3.785387  -0.726731
H    -2.534866  -4.528115  0.868246
