35
Energy: -21189.9942641 eV PBE+vdW (tier 2 basis)
C    -0.980297  -1.203792  2.064186
C    -1.716788  -0.621403  3.259297
O    -1.462932  -0.999805  4.404805
H    -0.235311  -1.907451  2.444827
H    -1.666228  -1.734700  1.391169
H    -0.463962  -0.428259  1.481334
N    -2.683464  0.320380  3.037456
C    -2.997491  1.070568  1.826257
C    -3.351698  0.122699  0.646716
O    -4.276947  -0.670107  0.803357
H    -3.094266  0.717822  3.897047
H    -3.994638  1.493553  2.033711
C    -2.079150  2.292671  1.597831
C    -2.252249  3.366248  2.688091
C    -1.470498  3.107151  3.995503
N    -2.073963  3.701569  5.179960
C    -3.201270  3.138961  5.741405
N    -3.698367  3.888637  6.814637
N    -3.716484  2.053027  5.262887
H    -2.339438  2.747715  0.631324
H    -1.022993  1.989368  1.532053
H    -3.321379  3.444246  2.935087
H    -1.953881  4.345391  2.283373
H    -0.447853  3.501390  3.911678
H    -1.380237  2.034161  4.191806
H    -2.003752  4.709183  5.273651
H    -4.440778  3.427300  7.329118
H    -2.988410  4.268613  7.435438
H    -4.454048  1.689062  5.868900
N    -2.732543  0.191574  -0.577723
C    -1.508121  0.826840  -1.039816
H    -3.165808  -0.465384  -1.220060
H    -1.189690  0.315259  -1.955087
H    -1.642298  1.891563  -1.279710
H    -0.691722  0.732982  -0.314214
