35
Energy: -21190.3251164 eV PBE+vdW (tier 2 basis)
C    -0.203868  0.961963  0.609871
C    -0.249476  0.257442  1.955836
O    0.684567  -0.428072  2.365426
H    0.774063  0.763969  0.163795
H    -0.343316  2.047818  0.702486
H    -0.986366  0.587027  -0.065065
N    -1.387008  0.418645  2.707976
C    -2.617683  1.106724  2.332031
C    -3.129410  1.822188  3.602358
O    -3.853203  1.244020  4.414109
H    -1.399682  -0.125454  3.567966
H    -2.358517  1.860579  1.580299
C    -3.696785  0.174514  1.762585
C    -4.812087  0.960048  1.062242
C    -4.391452  1.463707  -0.328733
N    -5.223480  2.528636  -0.863054
C    -4.986678  3.841688  -0.517425
N    -5.900732  4.746318  -1.065119
N    -3.944217  4.163671  0.180065
H    -4.106040  -0.422228  2.588762
H    -3.217260  -0.524957  1.059695
H    -5.098307  1.823752  1.681260
H    -5.711744  0.333166  0.969845
H    -4.390540  0.632005  -1.049289
H    -3.372481  1.869681  -0.297658
H    -6.174831  2.283027  -1.109879
H    -6.018913  5.601852  -0.535509
H    -6.781108  4.373118  -1.405818
H    -3.857435  5.180826  0.239068
N    -2.698068  3.097332  3.800127
C    -1.799055  3.873842  2.957800
H    -2.991762  3.492334  4.687799
H    -1.731040  4.885120  3.373208
H    -2.191208  3.955516  1.934061
H    -0.783737  3.448942  2.938040
