35
Energy: -21190.3874946 eV PBE+vdW (tier 2 basis)
C    -0.233683  -1.077305  0.089538
C    0.095869  0.172188  0.876620
O    1.248603  0.532760  1.099096
H    0.687815  -1.650000  -0.041575
H    -0.636099  -0.810061  -0.896926
H    -0.989090  -1.699710  0.588248
N    -0.962279  0.938201  1.331176
C    -2.375366  0.574572  1.385831
C    -3.083128  0.446897  0.014990
O    -4.070902  -0.284546  -0.081907
H    -0.643723  1.653242  1.978193
H    -2.492560  -0.426201  1.832873
C    -3.169337  1.552079  2.285525
C    -3.420863  2.962353  1.724178
C    -2.277862  3.993758  1.886634
N    -2.230009  4.984458  0.822535
C    -1.824955  4.630661  -0.453722
N    -2.385739  5.408555  -1.457284
N    -0.968610  3.710332  -0.768680
H    -2.673738  1.602480  3.269577
H    -4.140672  1.071327  2.460230
H    -4.325221  3.371161  2.198215
H    -3.656651  2.880195  0.653925
H    -1.296502  3.504028  1.926299
H    -2.372189  4.529986  2.840277
H    -2.874630  5.764176  0.890385
H    -2.077265  5.126297  -2.381880
H    -3.381619  5.594837  -1.395551
H    -0.470239  3.359034  0.052761
N    -2.584088  1.171774  -1.012687
C    -3.231889  1.169051  -2.310854
H    -1.858219  1.881314  -0.857751
H    -2.640764  1.793280  -2.988935
H    -4.259111  1.560831  -2.256068
H    -3.290444  0.149699  -2.714621
