35
Energy: -21190.5673456 eV PBE+vdW (tier 2 basis)
C    -1.116444  2.443649  2.435961
C    -0.379900  1.134408  2.223618
O    0.705927  0.896830  2.743753
H    -1.159307  3.026017  1.504216
H    -0.567544  3.020925  3.184107
H    -2.149133  2.289448  2.777421
N    -0.994448  0.191786  1.424544
C    -2.215046  0.328120  0.642282
C    -3.490054  -0.160416  1.370944
O    -4.587601  -0.124022  0.805490
H    -0.414496  -0.625728  1.249733
H    -2.399878  1.399400  0.474890
C    -2.068655  -0.310516  -0.755025
C    -1.738455  -1.807728  -0.822101
C    -2.831851  -2.769823  -0.316090
N    -4.151903  -2.559377  -0.883964
C    -4.422059  -2.939098  -2.181915
N    -5.670323  -2.479316  -2.627712
N    -3.560989  -3.615445  -2.868469
H    -1.284913  0.250749  -1.284124
H    -3.004914  -0.119883  -1.297016
H    -0.802805  -2.039139  -0.283496
H    -1.540147  -2.055749  -1.873891
H    -2.934264  -2.710295  0.777259
H    -2.524991  -3.795086  -0.559731
H    -4.645625  -1.739944  -0.531628
H    -6.001538  -2.941856  -3.467049
H    -6.391898  -2.426511  -1.913223
H    -3.950295  -3.898567  -3.770402
N    -3.312385  -0.584619  2.645031
C    -4.393279  -1.090407  3.467440
H    -2.357098  -0.607981  2.987878
H    -4.403194  -0.592200  4.445443
H    -4.304093  -2.175459  3.622915
H    -5.334888  -0.885626  2.947173
