35
Energy: -21190.3758858 eV PBE+vdW (tier 2 basis)
C    -0.938393  0.162613  -1.064618
C    -0.519402  0.564754  0.337975
O    0.641338  0.861490  0.612959
H    -1.846683  0.667623  -1.420157
H    -1.124537  -0.922035  -1.099481
H    -0.106876  0.385606  -1.738352
N    -1.489305  0.567474  1.311624
C    -2.900508  0.210552  1.191340
C    -3.694435  1.204043  2.071257
O    -4.113975  0.891671  3.186112
H    -1.131180  0.765949  2.243170
H    -3.195293  0.371004  0.146503
C    -3.177551  -1.241523  1.611342
C    -4.593065  -1.753346  1.295737
C    -4.767820  -2.375208  -0.098482
N    -4.501124  -1.498212  -1.240833
C    -5.214294  -0.342892  -1.504559
N    -6.571847  -0.421941  -1.218419
N    -4.579004  0.694388  -1.952478
H    -3.001917  -1.309164  2.693339
H    -2.424148  -1.882169  1.125213
H    -5.329293  -0.948456  1.437707
H    -4.862932  -2.529106  2.028222
H    -5.784872  -2.786286  -0.186771
H    -4.091348  -3.235067  -0.211255
H    -3.520590  -1.363344  -1.466316
H    -7.129220  0.350251  -1.562757
H    -7.014874  -1.326627  -1.344213
H    -5.227418  1.423001  -2.262186
N    -3.873559  2.457180  1.564145
C    -3.329025  3.012899  0.333190
H    -4.304356  3.095055  2.226548
H    -3.852605  3.950975  0.117111
H    -3.502051  2.332555  -0.511301
H    -2.251695  3.224494  0.410643
