35
Energy: -21190.13871 eV PBE+vdW (tier 2 basis)
C    -0.433395  -0.111904  -0.037188
C    -0.238980  -0.381189  1.446845
O    0.650595  -1.130449  1.846554
H    -0.741668  -1.046926  -0.522684
H    0.531527  0.177327  -0.469814
H    -1.176444  0.663073  -0.263420
N    -1.121444  0.281503  2.261608
C    -1.354859  0.174444  3.707157
C    -0.795269  1.299898  4.605023
O    -1.517587  1.690697  5.533930
H    -1.782220  0.878628  1.779706
H    -2.432561  0.356571  3.811396
C    -1.054219  -1.208359  4.344418
C    -2.288762  -2.104660  4.494199
C    -3.428209  -1.496373  5.342156
N    -3.019143  -0.826301  6.575590
C    -2.323604  -1.471944  7.592605
N    -2.658712  -2.818548  7.762047
N    -1.428158  -0.947613  8.359970
H    -0.618253  -1.040908  5.338572
H    -0.285589  -1.717121  3.754917
H    -1.962372  -3.044286  4.961645
H    -2.696289  -2.372059  3.504844
H    -4.165181  -2.283413  5.561404
H    -3.981461  -0.742370  4.762603
H    -2.673758  0.122788  6.418810
H    -3.649759  -3.028678  7.682331
H    -2.256148  -3.176569  8.623268
H    -1.191168  -0.002305  8.044273
N    0.441021  1.822689  4.422069
C    1.505262  1.427182  3.511582
H    0.651806  2.545724  5.104247
H    1.468285  1.988507  2.565444
H    1.460519  0.357487  3.281245
H    2.468011  1.629660  3.994918
