35
Energy: -21190.1868087 eV PBE+vdW (tier 2 basis)
C    -0.564886  0.729222  -0.444219
C    -0.571621  1.309483  0.950854
O    0.237411  2.177226  1.294324
H    0.457972  0.787178  -0.828406
H    -1.199503  1.351257  -1.091773
H    -0.937068  -0.298346  -0.507419
N    -1.500759  0.856957  1.859122
C    -2.792080  0.204212  1.604335
C    -2.631330  -1.248981  1.093678
O    -3.088776  -1.617323  0.013752
H    -1.454649  1.397489  2.723926
H    -3.246814  0.118520  2.603422
C    -3.750803  1.009003  0.700261
C    -3.689677  2.524964  0.914222
C    -4.047288  2.987894  2.334713
N    -3.639712  4.362276  2.621328
C    -2.582525  4.668887  3.467976
N    -1.498387  3.779148  3.386787
N    -2.697789  5.684180  4.256149
H    -4.770021  0.632141  0.876933
H    -3.534209  0.767144  -0.347954
H    -4.362075  3.015537  0.195057
H    -2.684627  2.899347  0.671605
H    -3.584222  2.327484  3.082993
H    -5.134220  2.906834  2.486610
H    -4.391826  5.029054  2.760065
H    -0.730218  4.051485  3.992335
H    -1.139554  3.570256  2.451954
H    -1.806277  5.906472  4.706720
N    -1.963688  -2.114703  1.912142
C    -1.371408  -1.871314  3.217393
H    -1.869358  -3.043081  1.512677
H    -0.421592  -1.322430  3.152491
H    -1.188230  -2.837976  3.699301
H    -2.052029  -1.305345  3.867890
