35
Energy: -21190.3735089 eV PBE+vdW (tier 2 basis)
C    -0.023479  0.365578  -0.022221
C    -0.043935  0.023759  1.455623
O    0.982403  -0.170631  2.099581
H    -0.966973  0.142936  -0.536635
H    0.793717  -0.180301  -0.504525
H    0.182551  1.440473  -0.122312
N    -1.296672  -0.045596  2.017450
C    -1.513839  -0.038595  3.465707
C    -0.650798  1.082196  4.120409
O    -0.637905  2.198612  3.602797
H    -2.055648  0.316228  1.453088
H    -2.536411  0.349522  3.594329
C    -1.517408  -1.441645  4.101030
C    -0.250865  -2.287363  3.941810
C    -0.225890  -3.542684  4.839308
N    -0.632926  -3.359409  6.232307
C    -0.049088  -2.420418  7.062701
N    -0.805783  -2.151191  8.206345
N    1.052835  -1.768299  6.877369
H    -2.376192  -1.991211  3.681033
H    -1.750785  -1.306081  5.169235
H    0.636895  -1.666824  4.110478
H    -0.152854  -2.626962  2.900977
H    0.783119  -3.982876  4.816088
H    -0.900980  -4.309004  4.433801
H    -1.620119  -3.511676  6.407276
H    -0.264430  -1.620039  8.882191
H    -1.254775  -2.958837  8.628730
H    1.486802  -2.009355  5.984619
N    -0.031827  0.807398  5.292384
C    0.779702  1.811494  5.958403
H    0.050202  -0.141801  5.648995
H    1.558972  2.197507  5.286384
H    1.247823  1.342335  6.829756
H    0.165135  2.661726  6.284018
