35
Energy: -21190.0943366 eV PBE+vdW (tier 2 basis)
C    0.073407  1.366476  1.194694
C    -0.076708  0.304662  2.264362
O    0.749779  0.138298  3.158607
H    -0.689285  2.150557  1.303768
H    -0.039188  0.951325  0.183962
H    1.064072  1.815804  1.298557
N    -1.196950  -0.493471  2.199398
C    -2.352035  -0.346484  1.326478
C    -3.177749  0.947519  1.528566
O    -3.560114  1.573091  0.539836
H    -1.247448  -1.172406  2.954196
H    -2.011105  -0.256501  0.284557
C    -3.229049  -1.607124  1.429621
C    -4.443831  -1.607485  0.501122
C    -5.237229  -2.907675  0.604359
N    -6.394119  -2.864487  -0.286881
C    -7.308920  -3.910299  -0.361392
N    -6.731811  -5.182002  -0.297820
N    -8.563614  -3.630591  -0.456281
H    -3.562013  -1.739806  2.472631
H    -2.582627  -2.469272  1.198741
H    -4.125508  -1.455843  -0.541036
H    -5.101601  -0.758173  0.743933
H    -5.536757  -3.084603  1.656258
H    -4.587934  -3.749842  0.320984
H    -6.907042  -1.985690  -0.250894
H    -7.364521  -5.931831  -0.553352
H    -5.823380  -5.277130  -0.743675
H    -9.122707  -4.467225  -0.643443
N    -3.488320  1.370984  2.789906
C    -3.150996  0.813637  4.092927
H    -4.014276  2.239518  2.778595
H    -2.096050  0.965075  4.360492
H    -3.378551  -0.258377  4.151407
H    -3.771621  1.314622  4.844040
