35
Energy: -21190.1788241 eV PBE+vdW (tier 2 basis)
C    -0.868513  -0.613827  -0.160829
C    -0.392391  -0.942228  1.245567
O    0.586548  -1.664611  1.436236
H    -1.179845  -1.546091  -0.649202
H    -0.022840  -0.213049  -0.732475
H    -1.700479  0.099908  -0.200355
N    -1.128313  -0.364309  2.243969
C    -1.091046  -0.589099  3.694855
C    -0.471028  0.568137  4.516339
O    -1.105487  1.017062  5.480496
H    -1.935837  0.170448  1.944129
H    -2.147061  -0.524288  3.986571
C    -0.555680  -1.971238  4.132491
C    -0.872913  -2.312754  5.599844
C    -2.217179  -3.028627  5.850071
N    -3.428438  -2.409787  5.314958
C    -3.795152  -1.092005  5.534250
N    -3.546354  -0.585448  6.806753
N    -4.358476  -0.444018  4.564877
H    0.525831  -2.026756  3.967657
H    -0.992596  -2.728559  3.463744
H    -0.811727  -1.403608  6.215707
H    -0.090149  -2.985752  5.982413
H    -2.332437  -3.195994  6.934472
H    -2.179396  -4.034400  5.408073
H    -3.690650  -2.693865  4.376433
H    -3.134545  0.344405  6.775183
H    -3.021046  -1.194682  7.426185
H    -4.703260  0.460916  4.895518
N    0.756639  1.070155  4.216063
C    1.686581  0.732293  3.151678
H    1.006696  1.842924  4.827013
H    2.711381  0.851195  3.524795
H    1.558951  1.384045  2.272910
H    1.560936  -0.304169  2.821956
