35
Energy: -21190.1213065 eV PBE+vdW (tier 2 basis)
C    0.560317  0.787860  0.617589
C    0.060749  -0.257379  1.598808
O    0.821400  -0.984825  2.229031
H    -0.229161  1.437675  0.219576
H    1.054579  0.275964  -0.218269
H    1.316201  1.405871  1.116075
N    -1.305801  -0.322938  1.739794
C    -1.943226  -1.410795  2.491092
C    -3.400077  -1.595049  2.036035
O    -3.789823  -2.684807  1.626943
H    -1.867027  0.157753  1.045833
H    -1.450031  -2.352885  2.211748
C    -1.794829  -1.249299  4.019138
C    -2.385829  -2.422102  4.802305
C    -2.193544  -2.249518  6.316570
N    -2.674809  -3.351794  7.129321
C    -1.936961  -4.520984  7.295730
N    -2.664868  -5.505256  7.976192
N    -0.733695  -4.776160  6.915826
H    -2.247072  -0.302547  4.349801
H    -0.717389  -1.171304  4.221022
H    -1.917672  -3.363407  4.477028
H    -3.461773  -2.529657  4.588166
H    -2.705662  -1.334887  6.654709
H    -1.127976  -2.100504  6.548752
H    -3.680012  -3.496906  7.113740
H    -2.068084  -6.297752  8.196170
H    -3.166077  -5.168952  8.794597
H    -0.355572  -4.044332  6.310519
N    -4.254611  -0.516522  2.061897
C    -4.135447  0.760650  2.751859
H    -5.188913  -0.783199  1.761440
H    -4.501242  0.712235  3.790101
H    -4.724341  1.514548  2.214498
H    -3.095229  1.099665  2.771178
