35
Energy: -21190.1210249 eV PBE+vdW (tier 2 basis)
C    -0.289855  0.058394  -0.461732
C    0.197214  -0.091873  0.969350
O    1.389197  -0.215660  1.237952
H    0.592056  0.095524  -1.106198
H    -0.877276  0.973999  -0.610823
H    -0.916203  -0.790194  -0.766647
N    -0.742259  -0.082568  1.974657
C    -2.200376  -0.033212  1.890272
C    -2.683813  0.996513  2.939559
O    -3.060235  0.643901  4.055103
H    -0.342276  -0.225513  2.900090
H    -2.459358  0.319913  0.883040
C    -2.870858  -1.391056  2.142104
C    -2.474038  -2.473524  1.140240
C    -3.115860  -3.823110  1.461607
N    -2.693963  -4.832284  0.504008
C    -3.301465  -6.067012  0.316347
N    -4.514278  -6.229971  0.986668
N    -2.888998  -7.008049  -0.465071
H    -3.961217  -1.238047  2.122491
H    -2.633961  -1.705635  3.169049
H    -1.377612  -2.590829  1.138632
H    -2.765754  -2.184052  0.118009
H    -4.210315  -3.731352  1.402712
H    -2.865729  -4.100461  2.506029
H    -1.714744  -4.811476  0.243161
H    -4.854525  -7.179824  0.869343
H    -4.541063  -5.922976  1.954364
H    -2.069527  -6.714112  -1.003566
N    -2.640810  2.314633  2.584718
C    -2.101835  2.904748  1.370931
H    -2.891151  2.938616  3.345664
H    -1.015725  2.756226  1.278569
H    -2.298369  3.981616  1.394638
H    -2.592343  2.505075  0.472299
