35
Energy: -21190.2873639 eV PBE+vdW (tier 2 basis)
C    -0.302172  1.317319  -0.748899
C    0.023368  0.984138  0.692099
O    1.140155  1.209489  1.156982
H    0.279752  2.200872  -1.028985
H    -1.362788  1.492419  -0.954523
H    0.018107  0.471918  -1.372127
N    -0.929319  0.385699  1.484576
C    -2.332583  0.056557  1.263565
C    -2.569590  -0.625154  -0.113156
O    -1.763709  -1.451958  -0.536668
H    -0.549609  0.145499  2.395335
H    -2.535555  -0.780150  1.953194
C    -3.288366  1.190689  1.695131
C    -3.095191  2.556124  1.028655
C    -4.207433  3.553766  1.379475
N    -5.538166  3.135975  0.898364
C    -5.701303  2.878697  -0.463735
N    -5.397877  3.956497  -1.275282
N    -6.069663  1.696418  -0.844193
H    -3.168708  1.315940  2.783796
H    -4.320453  0.830708  1.555725
H    -3.064542  2.456486  -0.066729
H    -2.125331  2.981488  1.325961
H    -3.968206  4.539925  0.960586
H    -4.290001  3.688013  2.467571
H    -5.893389  2.330607  1.409611
H    -5.590487  3.851204  -2.263372
H    -5.588476  4.880314  -0.902209
H    -6.320098  1.683360  -1.837896
N    -3.725505  -0.336672  -0.763395
C    -4.060165  -1.027009  -1.996169
H    -4.398073  0.363752  -0.444640
H    -5.106568  -0.813229  -2.237689
H    -3.925524  -2.109531  -1.878259
H    -3.421003  -0.702642  -2.831139
