35
Energy: -21190.2299126 eV PBE+vdW (tier 2 basis)
C    0.799367  0.483129  1.030699
C    0.169910  -0.377182  2.108986
O    0.721172  -1.374668  2.567829
H    0.191546  0.521679  0.113977
H    1.774745  0.051821  0.791198
H    0.942211  1.515737  1.379639
N    -1.066049  0.007097  2.582512
C    -1.912284  1.089839  2.093542
C    -2.617474  1.761035  3.290292
O    -2.246094  2.842620  3.733542
H    -1.432977  -0.612973  3.299527
H    -1.257882  1.877451  1.700883
C    -2.852693  0.644723  0.958059
C    -3.631470  1.804589  0.333326
C    -4.245257  1.467105  -1.034607
N    -3.272392  1.035162  -2.048178
C    -2.152841  1.819134  -2.333501
N    -2.453306  3.156544  -2.577917
N    -0.985144  1.269810  -2.319035
H    -3.537831  -0.148938  1.304598
H    -2.211428  0.173556  0.199114
H    -2.956479  2.665597  0.205710
H    -4.432525  2.145015  1.008264
H    -4.801549  2.338486  -1.408291
H    -4.979566  0.653663  -0.943112
H    -2.959538  0.075650  -1.921584
H    -1.682870  3.713247  -2.928516
H    -3.329458  3.335400  -3.059395
H    -0.267995  1.895393  -2.697626
N    -3.651491  1.043949  3.827891
C    -4.405359  1.499607  4.981086
H    -3.955873  0.203146  3.351305
H    -4.431723  0.728418  5.762443
H    -5.436786  1.767968  4.710072
H    -3.901821  2.390342  5.370933
