35
Energy: -21190.2119242 eV PBE+vdW (tier 2 basis)
C    0.565463  -0.466328  0.175014
C    0.419623  -0.451340  1.685349
O    1.335850  -0.765097  2.439777
H    1.430503  0.147909  -0.102075
H    -0.319696  -0.102077  -0.361256
H    0.777095  -1.494403  -0.145044
N    -0.808693  -0.056818  2.154050
C    -1.137260  -0.108071  3.580328
C    -2.650519  -0.341196  3.726170
O    -3.109739  -1.394844  4.155996
H    -1.558708  0.100984  1.491581
H    -0.657418  -1.004686  3.996009
C    -0.586945  1.122637  4.333769
C    -0.676503  1.046604  5.863024
C    -2.086156  1.218146  6.453364
N    -2.095168  1.314481  7.909937
C    -2.228135  2.494523  8.625563
N    -1.862097  3.642770  7.915442
N    -2.660772  2.621645  9.834735
H    -1.072506  2.044654  3.967390
H    0.469947  1.202521  4.046368
H    -0.024842  1.827965  6.284308
H    -0.252362  0.091793  6.211321
H    -2.721710  0.367040  6.174834
H    -2.558607  2.121598  6.037333
H    -2.404341  0.491928  8.411635
H    -1.869049  4.447775  8.535489
H    -0.993627  3.572618  7.391687
H    -3.038383  1.739815  10.192371
N    -3.437360  0.699293  3.308350
C    -4.881736  0.679496  3.463341
H    -2.989873  1.594304  3.143499
H    -5.354225  1.244871  2.651644
H    -5.195986  1.106907  4.428311
H    -5.215830  -0.362156  3.425765
