35
Energy: -21190.3902835 eV PBE+vdW (tier 2 basis)
C    0.404690  0.681634  0.486876
C    -0.106498  -0.725864  0.727426
O    0.506613  -1.720332  0.347269
H    0.507782  1.238476  1.428671
H    -0.269743  1.246226  -0.171534
H    1.383731  0.603398  0.006911
N    -1.316713  -0.854372  1.372367
C    -2.063746  0.199016  2.033231
C    -1.456886  0.531981  3.418204
O    -0.835734  -0.314722  4.057234
H    -1.476022  -1.803493  1.702912
H    -2.043748  1.089797  1.393873
C    -3.529026  -0.236028  2.239358
C    -4.299741  -0.665577  0.985379
C    -4.598914  0.425738  -0.050930
N    -3.486234  0.777684  -0.920230
C    -2.881304  2.008951  -0.919703
N    -1.913548  2.130800  -1.924246
N    -3.166724  2.900188  -0.023605
H    -4.068982  0.587215  2.730426
H    -3.529828  -1.070980  2.959153
H    -5.269291  -1.068631  1.317220
H    -3.783884  -1.505020  0.492374
H    -4.911499  1.356167  0.440070
H    -5.437605  0.086636  -0.680897
H    -2.980830  0.020795  -1.365991
H    -1.536524  3.065354  -2.032937
H    -2.141361  1.697728  -2.814946
H    -2.723153  3.794223  -0.244258
N    -1.644889  1.795011  3.905849
C    -2.452476  2.880838  3.373118
H    -1.276363  1.902961  4.847406
H    -1.929365  3.835460  3.519115
H    -3.431772  2.946892  3.874571
H    -2.632702  2.761076  2.297711
