35
Energy: -21190.1182536 eV PBE+vdW (tier 2 basis)
C    -0.428510  -0.535728  0.157068
C    -0.503024  -0.706765  1.655480
O    0.421214  -1.249439  2.274507
H    0.626334  -0.452833  -0.119571
H    -0.976261  0.325082  -0.236353
H    -0.851726  -1.435720  -0.310127
N    -1.618826  -0.311126  2.346834
C    -2.688396  0.629573  2.017661
C    -3.303211  0.318820  0.627334
O    -3.634815  -0.825967  0.340893
H    -1.538794  -0.550714  3.332081
H    -3.519763  0.358523  2.688902
C    -2.322039  2.098650  2.351261
C    -1.029376  2.654426  1.723125
C    0.222212  2.422968  2.585815
N    1.435078  2.516630  1.783110
C    2.664095  2.015976  2.227217
N    2.597720  0.808941  2.904795
N    3.717529  2.722193  1.977984
H    -2.241681  2.172402  3.447948
H    -3.189095  2.730913  2.102250
H    -1.146729  3.734719  1.546919
H    -0.844920  2.208457  0.735664
H    0.190271  1.427393  3.037661
H    0.222389  3.141275  3.429688
H    1.603364  3.438122  1.383370
H    1.886447  0.125845  2.631811
H    3.499308  0.386293  3.089323
H    4.571298  2.207898  2.210984
N    -3.498369  1.384666  -0.200412
C    -4.107432  1.248350  -1.510715
H    -3.159343  2.294130  0.084886
H    -4.962555  1.928738  -1.618243
H    -4.453869  0.214413  -1.608043
H    -3.383474  1.456710  -2.311429
