35
Energy: -21190.7848176 eV PBE+vdW (tier 2 basis)
C    -3.121865  -3.344442  -0.435630
C    -2.242008  -2.812326  0.675475
O    -1.038123  -3.104645  0.754259
H    -2.795407  -2.906107  -1.388049
H    -4.185382  -3.122297  -0.286020
H    -2.984097  -4.429407  -0.510785
N    -2.857604  -1.985746  1.559974
C    -2.139056  -1.396698  2.683646
C    -2.069535  -2.436283  3.827772
O    -2.880354  -2.484574  4.764982
H    -3.885132  -1.864437  1.566900
H    -1.108466  -1.242771  2.330575
C    -2.681208  -0.014281  3.083459
C    -4.075085  0.149984  3.719866
C    -5.310907  0.029810  2.821148
N    -5.553497  -1.276083  2.165370
C    -6.210078  -2.329761  2.845968
N    -5.748862  -2.580785  4.119189
N    -7.162050  -2.920946  2.205208
H    -2.611376  0.619926  2.184113
H    -1.953148  0.398458  3.798235
H    -4.115863  1.176388  4.119101
H    -4.165096  -0.502554  4.594281
H    -5.219775  0.753896  1.997863
H    -6.193444  0.325668  3.413419
H    -6.074783  -1.154560  1.297608
H    -6.144485  -3.403889  4.557629
H    -4.751748  -2.449317  4.328209
H    -7.493057  -3.748659  2.708857
N    -1.051830  -3.315664  3.671102
C    -0.890030  -4.478911  4.522739
H    -0.599589  -3.303008  2.751271
H    0.175406  -4.666857  4.702418
H    -1.390651  -4.284761  5.476619
H    -1.335700  -5.378390  4.070788
