35
Energy: -21190.5053374 eV PBE+vdW (tier 2 basis)
C    -2.832524  0.715491  0.060898
C    -2.128505  0.098611  1.254209
O    -1.105353  -0.567446  1.142107
H    -2.975977  -0.055766  -0.704847
H    -2.179653  1.485609  -0.370165
H    -3.801118  1.170421  0.303090
N    -2.732956  0.327047  2.473383
C    -2.087523  -0.019947  3.732778
C    -2.855471  -1.075776  4.560141
O    -2.586867  -1.263833  5.745509
H    -3.497950  0.992820  2.500816
H    -1.145590  -0.509277  3.435329
C    -1.755763  1.212761  4.586826
C    -2.974238  2.029917  5.021083
C    -2.585903  3.212722  5.921909
N    -3.687554  4.083117  6.294944
C    -4.231944  4.998226  5.401407
N    -5.414609  5.571600  5.882716
N    -3.788811  5.349403  4.242491
H    -1.057130  1.844021  4.016466
H    -1.220395  0.852519  5.476072
H    -3.678742  1.383670  5.567697
H    -3.517008  2.428501  4.148208
H    -1.816600  3.829188  5.431238
H    -2.126865  2.836553  6.847777
H    -4.359666  3.676953  6.938924
H    -5.705351  6.340415  5.285296
H    -5.384859  5.843691  6.862003
H    -2.990425  4.780453  3.952957
N    -3.798057  -1.777363  3.875728
C    -4.530893  -2.882051  4.460589
H    -3.903560  -1.564978  2.890023
H    -4.241141  -3.841358  4.007824
H    -5.613781  -2.744751  4.338109
H    -4.290427  -2.910441  5.528868
