35
Energy: -21190.3656144 eV PBE+vdW (tier 2 basis)
C    -2.432251  0.321801  -0.338510
C    -1.696894  0.290902  0.987353
O    -0.479189  0.449959  1.066182
H    -3.518823  0.209453  -0.241247
H    -2.043231  -0.483250  -0.974669
H    -2.212524  1.271084  -0.842034
N    -2.487599  0.095051  2.088219
C    -1.921351  -0.136227  3.401735
C    -2.671562  -1.326437  4.017140
O    -3.821392  -1.595677  3.661569
H    -3.447163  -0.229110  1.982492
H    -0.855131  -0.359915  3.246999
C    -2.049121  1.092239  4.331741
C    -1.296133  2.320298  3.820951
C    -1.429153  3.508592  4.769394
N    -0.723051  4.668217  4.230092
C    -0.602970  5.860630  4.932292
N    -1.726996  6.193274  5.695084
N    0.499296  6.524883  4.847454
H    -1.679550  0.821431  5.333640
H    -3.120687  1.322090  4.447315
H    -1.671897  2.606849  2.828337
H    -0.231787  2.069280  3.684972
H    -1.056278  3.234726  5.775619
H    -2.497356  3.750347  4.888271
H    0.169224  4.447031  3.793491
H    -1.728437  7.152172  6.024072
H    -2.624345  5.919023  5.304641
H    0.420899  7.441274  5.296246
N    -2.039710  -2.046439  4.985220
C    -0.702235  -1.866435  5.523722
H    -2.626417  -2.766355  5.396578
H    -0.337153  -2.829068  5.899513
H    -0.672667  -1.139346  6.350296
H    -0.008602  -1.532098  4.743984
