35
Energy: -21190.6942509 eV PBE+vdW (tier 2 basis)
C    -0.972696  -1.572948  0.433721
C    -1.457070  -1.579055  1.867206
O    -2.159680  -0.663909  2.320135
H    -1.842937  -1.507646  -0.231501
H    -0.380864  -2.455783  0.163391
H    -0.369185  -0.671898  0.267570
N    -1.088434  -2.650393  2.620087
C    -1.467830  -2.799746  4.025925
C    -0.396104  -2.126967  4.920493
O    0.490609  -2.760945  5.488650
H    -0.422333  -3.311529  2.234753
H    -2.408914  -2.247059  4.132840
C    -1.674416  -4.267900  4.399104
C    -2.745455  -5.023596  3.598315
C    -4.179305  -4.495357  3.731778
N    -4.358561  -3.249332  3.015442
C    -5.332625  -2.309202  3.326624
N    -5.244020  -1.186715  2.504778
N    -6.237583  -2.378537  4.244534
H    -1.928110  -4.297865  5.469240
H    -0.708932  -4.791319  4.320404
H    -2.740272  -6.071059  3.934546
H    -2.475188  -5.058705  2.529141
H    -4.402057  -4.306231  4.793781
H    -4.889582  -5.274711  3.395301
H    -4.028476  -3.227866  2.056640
H    -4.295036  -0.831953  2.371846
H    -5.897494  -0.468538  2.801523
H    -6.281261  -3.312373  4.659042
N    -0.540194  -0.774729  4.981070
C    0.404429  0.084874  5.667171
H    -1.255581  -0.359767  4.385972
H    1.070521  -0.551716  6.258882
H    -0.119320  0.779763  6.336673
H    1.010955  0.667713  4.957926
