35
Energy: -21190.411641 eV PBE+vdW (tier 2 basis)
C    0.937566  0.116174  0.003793
C    0.584179  -0.213479  1.440566
O    1.245185  -1.009557  2.109157
H    1.978390  0.459944  -0.032062
H    0.291811  0.879540  -0.446917
H    0.875563  -0.802421  -0.593179
N    -0.504631  0.446142  1.942727
C    -1.027603  0.183349  3.276967
C    -2.266032  -0.729350  3.141248
O    -3.313148  -0.286921  2.664493
H    -1.091836  0.981155  1.311693
H    -0.214708  -0.322054  3.811748
C    -1.396466  1.483234  3.996813
C    -1.849024  1.250329  5.440585
C    -2.184880  2.537843  6.193514
N    -1.009066  3.376762  6.361204
C    -1.115375  4.677280  6.845505
N    0.137750  5.257958  7.073512
N    -2.183501  5.352156  7.094324
H    -2.204897  1.981178  3.439102
H    -0.521561  2.147605  3.973042
H    -1.071842  0.694818  5.995005
H    -2.745624  0.612604  5.451517
H    -2.652088  2.285698  7.164418
H    -2.930405  3.109143  5.619006
H    -0.179842  2.885776  6.685775
H    0.038355  6.242076  7.305914
H    0.815175  5.107446  6.330454
H    -3.022379  4.771931  7.027058
N    -2.146185  -2.024011  3.540579
C    -0.980338  -2.702211  4.095829
H    -3.000213  -2.561062  3.421195
H    -1.119456  -3.781906  3.972096
H    -0.853286  -2.497743  5.170387
H    -0.065624  -2.416686  3.561410
