35
Energy: -21190.6003676 eV PBE+vdW (tier 2 basis)
C    -0.967686  1.354913  -0.457366
C    -0.241351  0.723285  0.711672
O    0.981313  0.752516  0.833471
H    -0.217953  1.768844  -1.136324
H    -1.628796  2.163571  -0.112467
H    -1.603875  0.636451  -0.994965
N    -1.021909  0.131811  1.685495
C    -2.450916  -0.146848  1.642147
C    -3.331581  0.875716  2.391313
O    -4.555003  0.741932  2.425346
H    -0.470988  -0.319010  2.413179
H    -2.790112  -0.079887  0.595282
C    -2.759290  -1.563608  2.152526
C    -2.144839  -2.699243  1.327035
C    -2.530345  -2.699436  -0.160787
N    -3.964250  -2.640574  -0.392843
C    -4.574225  -1.556377  -0.982320
N    -5.956322  -1.734718  -1.132303
N    -3.885316  -0.531518  -1.366005
H    -3.852217  -1.658487  2.174487
H    -2.421011  -1.652421  3.198875
H    -2.446768  -3.654598  1.785315
H    -1.044698  -2.671850  1.381454
H    -2.116142  -3.597878  -0.643222
H    -2.095378  -1.835789  -0.678656
H    -4.479152  -3.511388  -0.411744
H    -6.441200  -0.885560  -1.402844
H    -6.411347  -2.174043  -0.335276
H    -4.495422  0.220306  -1.691146
N    -2.662752  1.910221  2.966806
C    -3.330279  2.984398  3.671981
H    -1.653753  1.917211  2.858585
H    -3.153739  3.953543  3.184048
H    -2.990358  3.047817  4.715152
H    -4.404691  2.770110  3.659555
