35
Energy: -21190.467481 eV PBE+vdW (tier 2 basis)
C    0.334528  1.478999  0.439146
C    -0.350816  0.526031  1.398428
O    -0.476743  -0.677410  1.153460
H    1.329069  1.081204  0.200036
H    0.420805  2.500016  0.831672
H    -0.235375  1.500379  -0.498821
N    -0.816512  1.103374  2.545281
C    -1.511387  0.345782  3.577274
C    -3.006238  0.734888  3.547424
O    -3.390069  1.782946  4.071354
H    -0.662650  2.105616  2.677287
H    -1.368179  -0.708335  3.308460
C    -0.950054  0.613435  4.982455
C    0.570519  0.410537  5.104790
C    1.293335  1.591358  5.783474
N    1.040126  2.901795  5.178526
C    1.295070  3.176670  3.838517
N    2.436906  2.602432  3.321122
N    0.595383  3.962428  3.077644
H    -1.487319  -0.034918  5.688989
H    -1.240363  1.639352  5.251766
H    0.999441  0.257441  4.103229
H    0.797556  -0.503982  5.671777
H    2.379044  1.407504  5.816816
H    0.979543  1.673630  6.833526
H    0.168644  3.324482  5.479846
H    2.513658  2.671889  2.314252
H    2.793087  1.748184  3.727803
H    -0.179568  4.386956  3.594108
N    -3.865109  -0.095523  2.896025
C    -3.593564  -1.364716  2.232356
H    -4.826245  0.233084  2.918472
H    -4.341085  -1.512881  1.444180
H    -3.655947  -2.217488  2.926860
H    -2.605050  -1.358622  1.757307
