35
Energy: -21190.6681014 eV PBE+vdW (tier 2 basis)
C    -2.432862  1.300576  2.172372
C    -1.694455  0.313943  3.055210
O    -0.920271  0.665365  3.943365
H    -3.127792  1.875992  2.798214
H    -2.994399  0.820046  1.361211
H    -1.710794  2.012495  1.754580
N    -1.951633  -1.008382  2.773792
C    -1.413770  -2.078644  3.599931
C    -0.483593  -3.037418  2.836651
O    -0.272303  -4.186059  3.222376
H    -2.646402  -1.203078  2.051246
H    -0.746580  -1.540335  4.298275
C    -2.457837  -2.803890  4.479276
C    -3.319562  -3.933548  3.892772
C    -4.150369  -3.613370  2.646213
N    -3.348009  -3.613790  1.435399
C    -3.359599  -2.643114  0.464845
N    -2.396722  -2.850415  -0.521324
N    -4.119360  -1.590997  0.395202
H    -3.107249  -2.016659  4.891996
H    -1.914306  -3.229804  5.333724
H    -4.017225  -4.250477  4.683082
H    -2.682561  -4.805576  3.684500
H    -4.617820  -2.622651  2.745279
H    -4.977679  -4.337503  2.554704
H    -2.785345  -4.438611  1.259340
H    -1.474677  -3.093126  -0.165366
H    -2.373941  -2.073511  -1.174967
H    -4.902757  -1.647213  1.050600
N    0.121779  -2.499450  1.733675
C    1.225382  -3.162829  1.063413
H    -0.040775  -1.511721  1.566101
H    1.148976  -4.236773  1.264859
H    2.201239  -2.812161  1.432389
H    1.179273  -2.990309  -0.019935
