35
Energy: -21190.6757716 eV PBE+vdW (tier 2 basis)
C    -1.315031  -4.697645  2.299256
C    -1.070974  -3.215052  2.478708
O    -0.266878  -2.585243  1.775707
H    -0.652584  -5.257424  2.975268
H    -1.054662  -4.971030  1.272272
H    -2.353619  -4.990556  2.503033
N    -1.771523  -2.616766  3.481357
C    -1.737085  -1.174902  3.745616
C    -0.494189  -0.799087  4.608719
O    -0.594748  -0.400419  5.768529
H    -2.453994  -3.161861  4.000103
H    -1.620256  -0.678135  2.767344
C    -3.023270  -0.711557  4.427781
C    -4.273475  -0.631548  3.539971
C    -4.753142  -1.937627  2.896633
N    -4.939015  -2.987164  3.890683
C    -5.103977  -4.320054  3.518979
N    -5.452665  -5.133154  4.597773
N    -4.958704  -4.843347  2.350312
H    -2.826110  0.282794  4.848183
H    -3.208459  -1.350809  5.304431
H    -4.107119  0.092220  2.727069
H    -5.092915  -0.210916  4.146197
H    -4.006927  -2.290494  2.171705
H    -5.682028  -1.744932  2.329120
H    -5.497555  -2.712609  4.695228
H    -4.970953  -4.941088  5.471388
H    -5.433194  -6.116001  4.343528
H    -4.856480  -4.130448  1.625051
N    0.677126  -0.951643  3.940813
C    1.966107  -0.744227  4.569423
H    0.620119  -1.375715  3.008479
H    2.607399  -0.117751  3.935373
H    2.483796  -1.697183  4.757352
H    1.802982  -0.239627  5.527617
