35
Energy: -21190.2609553 eV PBE+vdW (tier 2 basis)
C    0.160357  -0.470960  0.020289
C    0.020602  -0.255657  1.519219
O    1.007882  -0.067201  2.231931
H    0.712194  -1.404921  -0.147823
H    0.764184  0.343810  -0.396723
H    -0.794063  -0.524600  -0.517769
N    -1.265581  -0.281081  1.981176
C    -1.769484  -0.300575  3.359412
C    -2.367889  1.014801  3.909274
O    -3.392375  0.934987  4.594231
H    -1.976969  -0.494358  1.291193
H    -2.669979  -0.926996  3.293086
C    -0.849825  -0.940960  4.417049
C    -0.439036  -2.391690  4.131067
C    -1.579343  -3.330116  3.707995
N    -2.731945  -3.292118  4.592916
C    -3.984006  -2.916519  4.164495
N    -4.937209  -2.955507  5.193170
N    -4.197476  -2.598011  2.928293
H    -1.427412  -0.902746  5.351669
H    0.055229  -0.339815  4.564351
H    0.047476  -2.785379  5.038307
H    0.329757  -2.418589  3.344941
H    -1.195267  -4.360320  3.635108
H    -1.958249  -3.066845  2.712833
H    -2.683753  -3.796348  5.468889
H    -5.813132  -2.514431  4.931752
H    -4.601629  -2.580071  6.077955
H    -5.147305  -2.242703  2.805023
N    -1.790062  2.224562  3.668925
C    -0.544363  2.566995  3.002554
H    -2.325923  2.983313  4.079998
H    -0.137560  3.473768  3.466562
H    -0.688084  2.764301  1.928366
H    0.199736  1.770045  3.107151
