35
Energy: -21190.5033278 eV PBE+vdW (tier 2 basis)
C    -5.796932  1.749077  1.643690
C    -4.323448  1.945923  1.946565
O    -3.685033  2.906801  1.513541
H    -6.221239  0.841949  2.090986
H    -5.929718  1.709322  0.555466
H    -6.352010  2.622032  2.009103
N    -3.754329  0.989089  2.734441
C    -2.345890  1.008825  3.076227
C    -1.926346  -0.451898  3.295727
O    -2.725374  -1.279657  3.739954
H    -4.268051  0.171097  3.052688
H    -1.810695  1.443550  2.219485
C    -2.098597  1.882342  4.335354
C    -0.634799  2.096152  4.735206
C    0.188187  2.836375  3.672837
N    1.602800  3.005034  4.021126
C    2.591855  2.174501  3.520037
N    2.200045  0.819357  3.434549
N    3.722700  2.675667  3.163831
H    -2.649828  1.428576  5.171864
H    -2.571282  2.854325  4.129955
H    -0.166203  1.127991  4.972288
H    -0.599280  2.675711  5.669493
H    -0.240389  3.837661  3.527135
H    0.111226  2.333697  2.696069
H    1.934935  3.964086  4.026716
H    1.749600  0.477807  4.282477
H    2.972290  0.214732  3.169921
H    4.412685  1.947433  2.961893
N    -0.637334  -0.746567  2.981459
C    -0.062150  -2.059813  3.201207
H    -0.021050  -0.008267  2.651462
H    0.647710  -2.059736  4.043012
H    0.459226  -2.407877  2.300371
H    -0.878280  -2.750295  3.436865
