35
Energy: -21190.1211078 eV PBE+vdW (tier 2 basis)
C    -0.413067  -2.249397  -0.608274
C    -0.123800  -1.803087  0.813287
O    0.897163  -2.155582  1.398374
H    -1.405363  -2.708863  -0.702901
H    0.350882  -2.980029  -0.886278
H    -0.359790  -1.401967  -1.304797
N    -1.016590  -0.963230  1.440751
C    -2.351136  -0.495950  1.048898
C    -3.365942  -1.672268  1.073803
O    -3.641983  -2.220045  2.136359
H    -0.765381  -0.816035  2.413477
H    -2.677167  0.117276  1.901117
C    -2.358373  0.429808  -0.180406
C    -3.600486  1.323393  -0.256537
C    -3.608257  2.188928  -1.523505
N    -4.708589  3.137284  -1.604207
C    -4.657830  4.316379  -0.876199
N    -5.858340  5.038228  -0.958378
N    -3.604021  4.628974  -0.203443
H    -2.236195  -0.138345  -1.118463
H    -1.462326  1.064352  -0.111541
H    -3.622106  1.991116  0.616793
H    -4.520899  0.717343  -0.220669
H    -3.646107  1.552985  -2.422223
H    -2.681533  2.775799  -1.570316
H    -5.636469  2.734752  -1.690657
H    -5.801962  5.970310  -0.562325
H    -6.290008  5.046101  -1.879328
H    -3.670533  5.577058  0.173128
N    -3.899688  -2.051896  -0.123762
C    -4.843875  -3.146132  -0.247598
H    -3.621217  -1.549812  -0.957435
H    -4.443320  -3.948212  -0.883595
H    -5.799125  -2.802458  -0.668562
H    -5.018154  -3.543570  0.757799
