35
Energy: -21190.2202798 eV PBE+vdW (tier 2 basis)
C    -0.107299  -0.462258  0.025492
C    0.028259  -0.061858  1.479051
O    1.145302  0.062312  1.996078
H    -0.423969  -1.512556  -0.040324
H    0.877860  -0.362532  -0.437669
H    -0.840750  0.131821  -0.531500
N    -1.094998  0.088286  2.260770
C    -2.458175  0.502389  1.903623
C    -3.025817  -0.195552  0.650027
O    -3.340400  0.431720  -0.360309
H    -0.836559  0.357776  3.216855
H    -3.087214  0.148376  2.738683
C    -2.635038  2.035073  1.846171
C    -1.600395  2.826961  1.019185
C    -0.676282  3.738311  1.847505
N    0.195979  3.054857  2.803796
C    -0.174401  2.678551  4.085771
N    -1.142415  3.484716  4.693673
N    0.278273  1.657042  4.739393
H    -2.625563  2.399223  2.883228
H    -3.644042  2.224571  1.458174
H    -2.122697  3.459323  0.286964
H    -0.979739  2.152588  0.413544
H    -1.281641  4.476611  2.389740
H    -0.034560  4.313287  1.162716
H    0.831772  2.377372  2.385698
H    -1.196555  3.268104  5.684908
H    -1.043707  4.481678  4.524898
H    0.917721  1.107150  4.154719
N    -3.197082  -1.548168  0.726588
C    -3.017871  -2.416341  1.880453
H    -3.631999  -1.939447  -0.103491
H    -2.972356  -3.454565  1.533673
H    -3.847175  -2.333528  2.601217
H    -2.077515  -2.189685  2.395737
