35
Energy: -21190.2152677 eV PBE+vdW (tier 2 basis)
C    0.050720  0.012365  -0.182815
C    0.071760  -0.120222  1.328571
O    1.089626  -0.408756  1.951504
H    0.832446  0.718717  -0.486446
H    -0.912900  0.347429  -0.586564
H    0.300003  -0.961971  -0.622015
N    -1.127053  0.108137  1.956427
C    -1.287728  -0.098752  3.396004
C    -2.741042  -0.522607  3.678677
O    -3.037067  -1.676648  3.965883
H    -1.954867  0.263985  1.393687
H    -0.670345  -0.965116  3.669245
C    -0.807697  1.113474  4.214545
C    -0.884664  0.883351  5.723697
C    -0.346651  2.076265  6.525512
N    -0.388831  1.884886  7.968935
C    0.702001  1.584055  8.771631
N    1.788068  1.037560  8.086936
N    0.797789  1.780416  10.043954
H    -1.378528  2.015949  3.931537
H    0.232325  1.310240  3.915412
H    -0.312006  -0.021348  5.984149
H    -1.921353  0.678686  6.035723
H    -0.931674  2.976552  6.277648
H    0.691091  2.290052  6.230047
H    -1.164656  2.303554  8.464722
H    2.502439  0.737122  8.743411
H    1.568757  0.321659  7.399956
H    0.006055  2.323201  10.399866
N    -3.668882  0.476609  3.539582
C    -5.082859  0.265448  3.793230
H    -3.333941  1.427764  3.435942
H    -5.689868  0.752763  3.019795
H    -5.384130  0.651094  4.778745
H    -5.266817  -0.813642  3.774065
