35
Energy: -21190.2349857 eV PBE+vdW (tier 2 basis)
C    -0.361865  0.893378  0.586436
C    -0.449931  0.286352  1.972303
O    0.500663  0.300131  2.747773
H    -0.661262  1.949503  0.641355
H    -0.993437  0.402333  -0.162602
H    0.684467  0.858608  0.269014
N    -1.642440  -0.301660  2.355749
C    -2.943659  -0.289674  1.681305
C    -2.957409  -1.138778  0.380183
O    -3.720192  -0.879872  -0.547955
H    -1.633706  -0.562363  3.337952
H    -3.612347  -0.834637  2.368379
C    -3.555532  1.108884  1.466566
C    -5.085572  1.122823  1.498007
C    -5.677124  2.529526  1.353433
N    -5.317451  3.430734  2.447786
C    -4.672483  4.653305  2.306994
N    -3.861464  4.757178  1.175543
N    -4.759683  5.663868  3.105452
H    -3.213516  1.512031  0.501481
H    -3.173357  1.763425  2.264095
H    -5.436418  0.682029  2.447238
H    -5.475971  0.492044  0.687126
H    -6.774682  2.454808  1.286804
H    -5.343734  2.988279  0.413131
H    -5.925478  3.397278  3.257700
H    -3.325131  5.619140  1.207518
H    -3.284849  3.946780  0.968868
H    -5.494195  5.525327  3.805148
N    -2.106849  -2.199685  0.390460
C    -1.990627  -3.125282  -0.719050
H    -1.464925  -2.267505  1.173118
H    -2.137012  -4.160462  -0.382617
H    -1.007818  -3.047108  -1.205762
H    -2.767413  -2.871677  -1.448114
