35
Energy: -21190.5308463 eV PBE+vdW (tier 2 basis)
C    -0.897306  1.246358  1.036632
C    -0.225244  0.350092  2.057781
O    0.700123  0.736003  2.769779
H    -0.400831  2.219599  1.066714
H    -1.967023  1.365477  1.255431
H    -0.811659  0.831583  0.021869
N    -0.673001  -0.948703  2.150513
C    -1.860622  -1.544769  1.544143
C    -3.110294  -1.250977  2.414109
O    -3.867699  -0.325597  2.103019
H    -0.239960  -1.461367  2.915613
H    -2.065240  -1.006475  0.610210
C    -1.563881  -3.014010  1.203034
C    -2.746146  -3.803879  0.606612
C    -3.473082  -4.731749  1.590486
N    -2.615173  -5.773734  2.151634
C    -2.091483  -5.725009  3.417865
N    -1.497837  -6.923623  3.820581
N    -2.193690  -4.658157  4.150116
H    -1.182350  -3.532522  2.095516
H    -0.728049  -2.997421  0.489677
H    -2.383395  -4.415659  -0.232698
H    -3.490406  -3.113841  0.177563
H    -4.306663  -5.227809  1.072856
H    -3.905229  -4.163989  2.422560
H    -2.682938  -6.691774  1.732545
H    -0.891064  -6.836599  4.628135
H    -1.066945  -7.476614  3.085027
H    -1.724347  -4.779634  5.048661
N    -3.266498  -1.993842  3.534347
C    -4.376613  -1.751071  4.437367
H    -2.722753  -2.856601  3.697267
H    -5.329435  -1.702941  3.891343
H    -4.255581  -0.799644  4.974785
H    -4.413848  -2.571040  5.163054
