35
Energy: -21190.4078421 eV PBE+vdW (tier 2 basis)
C    -2.521422  -1.325530  1.943667
C    -1.646561  -0.441948  2.803437
O    -0.594413  0.039681  2.348534
H    -2.018171  -2.300195  1.862738
H    -2.588650  -0.892430  0.939864
H    -3.530734  -1.477765  2.344836
N    -2.086925  -0.254388  4.074427
C    -1.489095  0.378338  5.271362
C    -0.904295  1.807878  5.174745
O    -0.923469  2.496711  6.198273
H    -2.962891  -0.721402  4.278040
H    -2.358295  0.538957  5.922406
C    -0.540629  -0.543012  6.086049
C    0.937318  -0.631330  5.684142
C    1.269842  -1.486739  4.458876
N    0.810808  -2.861361  4.631170
C    0.611427  -3.781069  3.607361
N    0.377484  -3.239642  2.346895
N    0.528605  -5.063344  3.746390
H    -0.982516  -1.550645  6.103952
H    -0.583120  -0.158598  7.114242
H    1.487927  -1.034085  6.550861
H    1.348236  0.376542  5.522430
H    2.361472  -1.439119  4.281980
H    0.782435  -1.052586  3.579045
H    1.132761  -3.307085  5.484596
H    0.431566  -3.952942  1.627752
H    0.843458  -2.372679  2.103246
H    0.634876  -5.340428  4.725661
N    -0.374813  2.210835  4.002520
C    0.228128  3.523202  3.864587
H    -0.313934  1.519311  3.240944
H    0.372333  3.735288  2.799829
H    1.201274  3.583643  4.375771
H    -0.423991  4.288584  4.303056
