35
Energy: -21190.5899216 eV PBE+vdW (tier 2 basis)
C    0.273618  -0.434878  -0.028464
C    0.128215  -0.149633  1.452023
O    1.103511  -0.043288  2.198643
H    0.927199  0.326616  -0.471033
H    -0.679606  -0.448410  -0.570857
H    0.770280  -1.405354  -0.153429
N    -1.154667  -0.000431  1.906001
C    -1.430240  0.198304  3.322939
C    -1.497543  -1.171959  4.038735
O    -2.508285  -1.871745  4.009330
H    -1.927668  -0.250980  1.299214
H    -0.565133  0.757735  3.703438
C    -2.719628  0.994458  3.538224
C    -3.038892  1.242421  5.018756
C    -2.006932  2.117743  5.750929
N    -2.192769  2.199508  7.188702
C    -1.755560  1.188388  8.040145
N    -2.163808  1.404319  9.361686
N    -1.058904  0.142764  7.755757
H    -3.555155  0.435606  3.090473
H    -2.630279  1.947661  2.993365
H    -3.132563  0.277491  5.537550
H    -4.026188  1.723659  5.092571
H    -2.025619  3.141198  5.345642
H    -0.985720  1.746918  5.581595
H    -3.039467  2.668079  7.496955
H    -1.730653  0.727083  9.982938
H    -2.041070  2.358004  9.692297
H    -0.952890  0.010646  6.747654
N    -0.349723  -1.495210  4.694853
C    -0.176823  -2.750022  5.404729
H    0.471374  -0.938314  4.471470
H    0.505439  -3.424764  4.867766
H    -1.158801  -3.227735  5.482064
H    0.213849  -2.565067  6.413503
