35
Energy: -21190.347307 eV PBE+vdW (tier 2 basis)
C    0.015954  -0.385117  -0.408747
C    0.346430  0.376922  0.860343
O    1.510537  0.650782  1.159671
H    -0.191066  0.335303  -1.213637
H    -0.855168  -1.045094  -0.326045
H    0.899089  -0.963720  -0.694826
N    -0.681007  0.786684  1.669764
C    -2.127423  0.647855  1.522786
C    -2.586738  -0.830989  1.493656
O    -3.221300  -1.304193  0.550680
H    -0.389405  1.368950  2.463794
H    -2.520231  1.053919  2.467693
C    -2.749283  1.432251  0.349743
C    -2.243720  2.868087  0.156560
C    -2.760828  3.930456  1.141279
N    -2.331832  3.799064  2.538547
C    -1.001394  3.794910  2.924973
N    -0.210173  4.727593  2.279941
N    -0.610462  2.919871  3.800855
H    -3.842715  1.425664  0.480975
H    -2.574658  0.862247  -0.571956
H    -2.549139  3.199364  -0.848563
H    -1.143459  2.885533  0.156436
H    -3.860552  3.927148  1.157994
H    -2.472869  4.925896  0.771613
H    -2.844432  3.110516  3.080271
H    0.746891  4.801137  2.600220
H    -0.637278  5.607565  2.012658
H    0.339625  3.113520  4.128198
N    -2.264710  -1.589976  2.581693
C    -1.509098  -1.221608  3.769506
H    -2.548301  -2.559798  2.482746
H    -1.774305  -1.913527  4.577528
H    -1.759208  -0.207712  4.105438
H    -0.422388  -1.264969  3.606806
