35
Energy: -21190.2042222 eV PBE+vdW (tier 2 basis)
C    1.018525  -1.819979  0.835105
C    0.291230  -1.431376  2.111317
O    0.573716  -1.925061  3.198304
H    1.234316  -2.892795  0.863669
H    1.977672  -1.283572  0.803503
H    0.464436  -1.581751  -0.081889
N    -0.647297  -0.437372  1.948041
C    -1.559582  0.050894  2.989979
C    -2.418852  1.210252  2.459083
O    -3.541271  1.415471  2.908643
H    -0.957232  -0.281781  0.994487
H    -2.278703  -0.741588  3.250989
C    -0.888006  0.483319  4.318338
C    0.037886  1.706841  4.301108
C    1.358936  1.516951  3.556950
N    2.232340  2.670553  3.774181
C    3.369159  2.906394  3.008664
N    3.934900  1.754166  2.461754
N    3.915515  4.049512  2.763208
H    -0.354124  -0.385741  4.720352
H    -1.723976  0.694018  5.000087
H    0.271937  1.953030  5.349110
H    -0.491990  2.585421  3.894807
H    1.185233  1.361585  2.478917
H    1.841442  0.599906  3.930480
H    1.748776  3.523863  4.034776
H    4.856118  1.952803  2.083149
H    3.922997  0.930045  3.055797
H    3.342066  4.820978  3.115001
N    -1.842191  1.990413  1.492837
C    -2.487460  3.192153  0.993610
H    -0.852909  1.860138  1.308069
H    -2.258628  3.328859  -0.069934
H    -2.169386  4.089611  1.545976
H    -3.568218  3.076502  1.123734
