35
Energy: -21190.6080857 eV PBE+vdW (tier 2 basis)
C    -2.018955  1.750281  4.931301
C    -1.450221  0.348569  4.824701
O    -0.707000  -0.127215  5.675068
H    -1.208480  2.445686  5.177793
H    -2.734372  1.774403  5.763887
H    -2.526684  2.092976  4.020912
N    -1.816703  -0.349258  3.691005
C    -1.546756  -1.773189  3.541760
C    -0.516647  -2.097151  2.437652
O    -0.365428  -3.252055  2.027412
H    -2.539840  0.054699  3.105441
H    -1.036897  -2.058884  4.477343
C    -2.834033  -2.610735  3.429373
C    -3.834186  -2.216689  2.332535
C    -3.333626  -2.365089  0.881029
N    -2.866552  -3.687669  0.522843
C    -3.739598  -4.734320  0.271536
N    -3.088768  -5.969007  0.206947
N    -5.020209  -4.696220  0.105116
H    -3.342199  -2.559529  4.402732
H    -2.530881  -3.657354  3.291965
H    -4.188105  -1.179591  2.473681
H    -4.727675  -2.844656  2.463659
H    -2.507795  -1.663784  0.685486
H    -4.138937  -2.073964  0.189436
H    -1.967837  -3.933115  0.940558
H    -2.172883  -5.954500  -0.232221
H    -3.698392  -6.683166  -0.179264
H    -5.397614  -3.763377  0.282709
N    0.223130  -1.047447  2.004063
C    1.312039  -1.184899  1.057349
H    0.040431  -0.149639  2.438855
H    1.307656  -2.216849  0.691113
H    2.282130  -0.981949  1.532730
H    1.181884  -0.500315  0.208495
