35
Energy: -21190.2385292 eV PBE+vdW (tier 2 basis)
C    -1.466476  -1.141934  0.397871
C    -0.750811  -0.943888  1.720088
O    -0.093177  -1.849864  2.244415
H    -0.983344  -1.974015  -0.122289
H    -1.458583  -0.247270  -0.236425
H    -2.516662  -1.421175  0.571071
N    -0.856804  0.275757  2.330004
C    -1.956704  1.215410  2.143387
C    -1.586486  2.518442  1.401153
O    -2.345256  2.945809  0.529013
H    -0.348980  0.330167  3.222690
H    -2.691138  0.758823  1.468896
C    -2.661190  1.531243  3.479014
C    -3.566362  0.434586  4.072488
C    -2.997826  -0.980387  4.338782
N    -1.636384  -1.088447  4.878932
C    -1.071636  -0.146792  5.714888
N    -1.869195  0.212866  6.796667
N    0.089130  0.347078  5.408794
H    -3.292891  2.416395  3.313375
H    -1.905669  1.832025  4.218127
H    -4.444123  0.297807  3.419962
H    -3.955761  0.837407  5.018009
H    -2.978231  -1.559184  3.405793
H    -3.715974  -1.504413  4.991920
H    -0.952960  -1.423680  4.195561
H    -2.434331  -0.529200  7.197900
H    -1.429336  0.809122  7.487518
H    0.488142  0.891143  6.178691
N    -0.451666  3.196475  1.739332
C    0.598475  2.866603  2.692610
H    -0.309116  4.014301  1.154174
H    1.127070  3.791214  2.953094
H    1.327247  2.150207  2.285878
H    0.195009  2.448552  3.622211
