35
Energy: -21190.4452137 eV PBE+vdW (tier 2 basis)
C    -0.381091  -0.837509  -0.076962
C    -0.776782  -0.100181  1.186717
O    -0.732416  1.135107  1.248722
H    -0.480611  -1.927482  -0.008623
H    0.661544  -0.590206  -0.313014
H    -0.998685  -0.471284  -0.906186
N    -1.177618  -0.885172  2.225542
C    -1.550806  -0.441924  3.578758
C    -2.927722  0.271807  3.654150
O    -3.807772  -0.167341  4.396167
H    -1.242929  -1.879974  2.050326
H    -1.712451  -1.365437  4.148958
C    -0.434577  0.368654  4.264135
C    -0.705849  0.627729  5.746005
C    0.330543  1.559434  6.386347
N    0.261161  2.931642  5.884936
C    1.318856  3.630971  5.315487
N    2.238723  2.832056  4.632007
N    1.510487  4.906652  5.363168
H    -0.310188  1.325312  3.738817
H    0.506984  -0.193332  4.149155
H    -0.715914  -0.323989  6.301655
H    -1.707885  1.064910  5.876455
H    1.348523  1.187420  6.208031
H    0.186492  1.563248  7.479140
H    -0.394397  3.534753  6.368274
H    1.829094  2.134886  4.015380
H    2.912313  3.419250  4.148409
H    0.864687  5.355584  6.018953
N    -3.036538  1.392755  2.900353
C    -4.244944  2.191634  2.859983
H    -2.244026  1.625589  2.292184
H    -4.708692  2.164791  1.863178
H    -4.028189  3.238018  3.115633
H    -4.950415  1.781192  3.590108
