35
Energy: -21189.9523581 eV PBE+vdW (tier 2 basis)
C    0.027428  -0.047876  -0.029039
C    0.207236  0.040922  1.470945
O    1.319522  0.018104  1.991610
H    -0.276494  0.924579  -0.441668
H    -0.721790  -0.799778  -0.299850
H    0.996082  -0.315794  -0.459454
N    -0.900555  0.201517  2.287527
C    -2.336308  0.127956  2.052935
C    -2.827282  -1.310208  1.760653
O    -2.174295  -2.102184  1.088812
H    -0.617657  0.197893  3.262977
H    -2.779458  0.448698  3.006156
C    -2.873758  1.077898  0.956027
C    -2.447555  2.541317  1.103199
C    -2.947395  3.217671  2.380044
N    -2.595622  4.627236  2.376261
C    -3.115250  5.590826  3.228482
N    -4.152115  5.141618  4.050970
N    -2.785755  6.837549  3.265020
H    -3.973240  1.011024  0.965449
H    -2.564630  0.703827  -0.028155
H    -2.830795  3.105477  0.239923
H    -1.348989  2.610547  1.065572
H    -2.532602  2.692257  3.264497
H    -4.044146  3.136680  2.434908
H    -1.697965  4.863839  1.970416
H    -4.423790  5.877425  4.696983
H    -3.994130  4.255491  4.522269
H    -2.121760  7.072110  2.522134
N    -4.057753  -1.645295  2.257985
C    -4.921743  -0.876158  3.139177
H    -4.341626  -2.589774  2.016597
H    -4.460171  -0.687137  4.120466
H    -5.837552  -1.451302  3.310838
H    -5.218525  0.086369  2.697939
