35
Energy: -21190.4983692 eV PBE+vdW (tier 2 basis)
C    -0.329690  0.103663  -0.029287
C    -0.249667  0.092378  1.484099
O    0.838551  -0.002912  2.066110
H    -1.346589  0.221059  -0.422679
H    0.090330  -0.837306  -0.406458
H    0.299436  0.917595  -0.409681
N    -1.440679  0.196282  2.137119
C    -1.670881  0.122236  3.589427
C    -1.166228  1.355216  4.386356
O    -1.950558  1.978689  5.103803
H    -2.264790  0.327040  1.564308
H    -2.759989  0.182215  3.709521
C    -1.190327  -1.212698  4.189750
C    -1.496454  -1.336760  5.684389
C    -1.140690  -2.708103  6.259201
N    -1.991865  -3.750427  5.705948
C    -1.717345  -5.097454  5.924042
N    -2.738620  -5.926674  5.443980
N    -0.687716  -5.622449  6.491648
H    -0.110449  -1.326038  4.022129
H    -1.681962  -2.027104  3.637190
H    -2.561231  -1.120355  5.877602
H    -0.938305  -0.574874  6.247668
H    -1.201886  -2.672098  7.363159
H    -0.097801  -2.952514  6.003890
H    -2.984819  -3.530793  5.715925
H    -2.461627  -6.902622  5.501024
H    -3.081654  -5.681145  4.518928
H    -0.092235  -4.913685  6.925151
N    0.156551  1.624263  4.267541
C    0.788181  2.736483  4.949220
H    0.688220  1.056836  3.596821
H    1.639796  2.392088  5.552126
H    0.045939  3.199819  5.607805
H    1.149130  3.490158  4.234203
