35
Energy: -21190.3771029 eV PBE+vdW (tier 2 basis)
C    0.107738  1.544757  0.712440
C    0.159423  0.462154  1.771662
O    1.172799  0.209032  2.415561
H    1.070052  2.062392  0.707377
H    -0.697571  2.267764  0.900563
H    -0.070751  1.112561  -0.282663
N    -1.007258  -0.241765  1.998743
C    -2.264707  -0.147574  1.265030
C    -3.112314  1.091643  1.636130
O    -3.956686  1.531618  0.857134
H    -0.887062  -1.023279  2.638654
H    -2.068108  -0.048659  0.186561
C    -3.069468  -1.442703  1.497934
C    -4.302228  -1.604045  0.608082
C    -5.067169  -2.884514  0.932826
N    -6.224720  -3.019132  0.061163
C    -6.930333  -4.210196  0.035409
N    -8.108271  -4.109595  -0.724622
N    -6.507307  -5.240465  0.684051
H    -3.363969  -1.489042  2.560234
H    -2.383948  -2.287968  1.323418
H    -3.997249  -1.620754  -0.449631
H    -4.958825  -0.728602  0.723401
H    -5.362038  -2.896340  1.999156
H    -4.441542  -3.774549  0.782528
H    -6.801604  -2.186631  -0.018102
H    -8.552222  -5.003922  -0.903818
H    -8.017402  -3.560333  -1.576068
H    -7.072815  -6.066278  0.472970
N    -2.872073  1.603818  2.872465
C    -3.582439  2.750418  3.402296
H    -2.100453  1.201198  3.394341
H    -2.898413  3.588990  3.594237
H    -4.102274  2.497547  4.336677
H    -4.321460  3.057605  2.654445
