35
Energy: -21190.4797456 eV PBE+vdW (tier 2 basis)
C    -2.622470  -1.409292  1.920540
C    -1.130986  -1.118601  1.873708
O    -0.316578  -2.032652  1.750125
H    -2.895904  -1.688212  2.948065
H    -2.816607  -2.274356  1.278667
H    -3.266842  -0.575255  1.622165
N    -0.701791  0.181624  2.038977
C    -1.482587  1.405051  1.837534
C    -2.615056  1.593146  2.876972
O    -3.635948  2.231344  2.627290
H    0.304283  0.311980  1.839555
H    -0.770565  2.214424  2.077636
C    -1.954385  1.669008  0.395521
C    -0.811696  2.066515  -0.548511
C    0.074758  0.899783  -1.036744
N    1.464422  1.301427  -1.246222
C    2.337284  1.374088  -0.183904
N    3.654834  1.627319  -0.580479
N    1.931716  1.188701  1.032674
H    -2.691435  2.480789  0.449056
H    -2.496744  0.793753  0.004730
H    -0.167762  2.794078  -0.033413
H    -1.223896  2.590829  -1.423078
H    -0.298377  0.522828  -1.997746
H    0.044480  0.057456  -0.333886
H    1.884963  1.030838  -2.126651
H    4.284525  1.851332  0.181827
H    3.757261  2.270215  -1.360810
H    2.686050  1.358446  1.700651
N    -2.335351  1.058537  4.096902
C    -3.246301  1.137960  5.218737
H    -1.488542  0.502584  4.163977
H    -2.747198  1.556431  6.103492
H    -3.654776  0.149924  5.479134
H    -4.073562  1.795306  4.929828
