35
Energy: -21190.3474072 eV PBE+vdW (tier 2 basis)
C    -0.097493  -0.715903  0.844102
C    -0.213032  -0.169272  2.259368
O    0.773571  -0.032279  2.979768
H    -0.439013  0.019318  0.100885
H    -0.690913  -1.629549  0.702837
H    0.955182  -0.943183  0.657409
N    -1.463376  0.173377  2.699318
C    -2.720486  0.118208  1.982483
C    -3.622111  1.216279  2.588969
O    -3.360826  1.704412  3.690562
H    -1.515485  0.644053  3.603856
H    -2.548685  0.346865  0.919171
C    -3.417484  -1.263815  2.070572
C    -3.842375  -1.668031  3.482992
C    -4.694951  -2.944383  3.508717
N    -5.948191  -2.860720  2.746947
C    -6.901209  -1.883139  3.009344
N    -7.162404  -1.691586  4.361286
N    -7.430783  -1.242044  2.018029
H    -2.728635  -2.016820  1.656779
H    -4.294982  -1.249393  1.408363
H    -4.416756  -0.856128  3.953797
H    -2.954366  -1.820934  4.114495
H    -4.918796  -3.212891  4.550902
H    -4.135874  -3.795030  3.092463
H    -5.828505  -2.937737  1.740646
H    -7.958567  -1.101580  4.569656
H    -7.099169  -2.511230  4.956873
H    -8.231332  -0.680980  2.322873
N    -4.720125  1.602084  1.886315
C    -5.235428  1.112982  0.614992
H    -5.296939  2.261791  2.400233
H    -5.748074  1.936404  0.102433
H    -5.945447  0.280904  0.752290
H    -4.414264  0.788632  -0.034749
