35
Energy: -21190.4227191 eV PBE+vdW (tier 2 basis)
C    -0.156519  0.204442  -0.649313
C    -0.035895  -0.709549  0.549369
O    0.956335  -1.432222  0.726075
H    0.786553  0.180312  -1.200726
H    -0.391060  1.236668  -0.356844
H    -0.965739  -0.129270  -1.315245
N    -1.059735  -0.711349  1.447597
C    -2.407545  -0.196900  1.241930
C    -2.573142  1.330759  1.403136
O    -3.329606  1.932698  0.641397
H    -0.962846  -1.394431  2.211111
H    -2.721555  -0.370449  0.200803
C    -3.389722  -0.937871  2.168156
C    -3.638345  -2.420960  1.833759
C    -2.424049  -3.359639  1.791529
N    -1.574285  -3.196801  2.984932
C    -0.444827  -4.036515  3.145725
N    0.419297  -4.033002  2.068634
N    -0.361409  -4.702239  4.247103
H    -4.351987  -0.410291  2.116469
H    -3.041993  -0.840377  3.208351
H    -4.146791  -2.493789  0.860141
H    -4.358393  -2.803893  2.575051
H    -1.813994  -3.161556  0.901839
H    -2.784570  -4.399440  1.696534
H    -2.116173  -3.294921  3.844923
H    1.271595  -4.561024  2.217127
H    0.585867  -3.136540  1.588557
H    0.546886  -5.168452  4.331353
N    -1.897920  1.987511  2.391721
C    -1.017019  1.485564  3.438319
H    -2.092485  2.984021  2.385718
H    -0.014634  1.238077  3.064022
H    -1.429658  0.597391  3.931921
H    -0.920577  2.267010  4.200631
