35
Energy: -21190.6747197 eV PBE+vdW (tier 2 basis)
C    1.140070  0.123937  0.849618
C    0.270601  -0.941401  1.502608
O    0.653792  -2.105812  1.600591
H    2.103936  -0.336461  0.617580
H    1.305165  0.988531  1.507213
H    0.694476  0.494673  -0.083405
N    -0.965001  -0.565150  1.960908
C    -1.531210  0.764374  2.068803
C    -2.000227  0.995618  3.518629
O    -2.359034  0.061207  4.236447
H    -1.439162  -1.273252  2.521946
H    -0.757469  1.507237  1.841688
C    -2.729935  0.975476  1.112038
C    -2.322602  1.162043  -0.349531
C    -1.591781  2.481226  -0.639011
N    -2.393366  3.674722  -0.414891
C    -2.227030  4.542341  0.631287
N    -3.018235  5.687790  0.506189
N    -1.441142  4.271966  1.631215
H    -3.305498  1.851747  1.445841
H    -3.398032  0.107772  1.210609
H    -3.219055  1.104021  -0.988369
H    -1.676946  0.329002  -0.669913
H    -1.249901  2.482884  -1.686009
H    -0.700519  2.590367  -0.009214
H    -3.228832  3.794682  -0.974847
H    -2.875167  6.382330  1.230127
H    -3.070956  6.095531  -0.422988
H    -1.306535  5.105018  2.208750
N    -2.004070  2.303872  3.875632
C    -2.530686  2.763689  5.143963
H    -1.748246  2.988011  3.150088
H    -1.794044  3.383229  5.674371
H    -2.760466  1.884319  5.755475
H    -3.452166  3.350739  5.010002
