35
Energy: -21190.2494425 eV PBE+vdW (tier 2 basis)
C    -1.247989  2.886987  1.414069
C    -0.509031  1.696542  1.990143
O    0.564963  1.802512  2.578746
H    -0.603568  3.763591  1.519185
H    -2.188097  3.047868  1.958799
H    -1.507703  2.745699  0.355804
N    -1.081512  0.454339  1.819886
C    -2.403565  0.144125  1.294104
C    -3.414455  0.089854  2.469339
O    -3.815436  1.128281  2.988160
H    -0.580467  -0.280862  2.313979
H    -2.752823  1.001516  0.701860
C    -2.354935  -1.081269  0.365151
C    -3.603286  -1.194988  -0.523597
C    -3.510016  -0.283781  -1.770415
N    -4.769914  0.294544  -2.210628
C    -5.287531  1.370419  -1.504352
N    -6.601890  1.679018  -1.880863
N    -4.583003  1.948465  -0.592618
H    -2.186698  -2.010662  0.936654
H    -1.458130  -0.979027  -0.265665
H    -4.494223  -0.910079  0.055134
H    -3.754683  -2.237900  -0.838478
H    -3.075601  -0.837770  -2.614393
H    -2.844666  0.562843  -1.560284
H    -5.464868  -0.361264  -2.553226
H    -6.933828  2.564742  -1.514384
H    -6.794446  1.589338  -2.875552
H    -5.048593  2.775920  -0.215666
N    -3.771584  -1.150028  2.918040
C    -4.662214  -1.347094  4.045454
H    -3.420047  -1.962292  2.427521
H    -4.913715  -0.356692  4.439547
H    -4.176857  -1.934916  4.837046
H    -5.588304  -1.855882  3.741483
