35
Energy: -21190.5914176 eV PBE+vdW (tier 2 basis)
C    0.817846  -2.237686  0.792300
C    0.232517  -1.820460  2.125683
O    0.228036  -2.581181  3.100354
H    0.635567  -1.500805  0.002551
H    0.386744  -3.204529  0.506278
H    1.899402  -2.383864  0.913306
N    -0.259105  -0.544126  2.164149
C    -0.903001  -0.071502  3.380778
C    -2.425672  -0.087015  3.180834
O    -2.983571  0.637410  2.343174
H    -0.366378  -0.050590  1.259996
H    -0.630952  -0.838626  4.114796
C    -0.367897  1.269472  3.958344
C    -0.998697  2.625331  3.588134
C    -0.612566  3.237937  2.239335
N    -1.077689  2.431273  1.116462
C    -0.285761  2.081946  0.057491
N    0.623126  3.060275  -0.342724
N    -0.388287  0.886369  -0.446302
H    0.712800  1.288016  3.746591
H    -0.456842  1.174556  5.051523
H    -0.686067  3.347585  4.358507
H    -2.094603  2.566232  3.660150
H    0.481937  3.338727  2.175728
H    -1.031648  4.259402  2.192736
H    -1.813298  1.748365  1.345408
H    1.141406  2.844664  -1.185998
H    0.295871  4.020992  -0.304982
H    0.121612  0.801361  -1.328591
N    -3.148913  -0.940581  3.949427
C    -2.667901  -1.925274  4.912863
H    -4.146009  -0.906883  3.757766
H    -3.476831  -2.638818  5.103766
H    -2.390960  -1.463394  5.872633
H    -1.807225  -2.480029  4.517210
