35
Energy: -21190.5241369 eV PBE+vdW (tier 2 basis)
C    1.237060  0.319354  0.118715
C    0.913342  -0.687353  1.195792
O    1.786357  -1.382297  1.732470
H    1.860354  -0.165086  -0.641874
H    1.833458  1.124464  0.572051
H    0.348337  0.752268  -0.355712
N    -0.393104  -0.738170  1.589815
C    -0.894055  -1.776117  2.473358
C    -2.006864  -2.520824  1.712881
O    -2.776679  -1.917000  0.965939
H    -1.103509  -0.295298  1.011580
H    -0.042336  -2.443547  2.675706
C    -1.473901  -1.246736  3.803932
C    -0.484267  -0.729069  4.859740
C    0.176364  0.636953  4.601520
N    1.529974  0.500696  4.073444
C    2.266617  1.575016  3.595008
N    1.835958  2.827748  4.039393
N    3.269790  1.513956  2.783163
H    -2.041141  -2.074685  4.258026
H    -2.216559  -0.467699  3.570457
H    0.301722  -1.478096  5.047938
H    -1.048018  -0.654937  5.800669
H    0.219819  1.179870  5.560060
H    -0.462013  1.238738  3.928803
H    1.713037  -0.355741  3.551437
H    1.501822  2.870726  4.997279
H    2.536631  3.534869  3.837816
H    3.418022  0.552728  2.462551
N    -2.086116  -3.854870  1.966079
C    -3.108103  -4.710303  1.390530
H    -1.369021  -4.271540  2.547829
H    -3.699173  -5.203618  2.174259
H    -2.664242  -5.477821  0.741734
H    -3.767967  -4.076533  0.789301
