35
Energy: -21190.4980219 eV PBE+vdW (tier 2 basis)
C    -0.608931  0.251121  -0.749547
C    0.018629  0.110234  0.624373
O    1.191355  0.459189  0.810652
H    -1.583528  -0.232633  -0.868083
H    0.092873  -0.167023  -1.480933
H    -0.713085  1.319461  -0.981529
N    -0.715002  -0.436430  1.643187
C    -2.164528  -0.609854  1.732289
C    -2.705016  -1.773737  0.849458
O    -3.882637  -1.826242  0.500545
H    -0.214199  -0.466830  2.548138
H    -2.328458  -0.978360  2.759429
C    -3.011504  0.666576  1.554464
C    -3.285842  1.517855  2.803394
C    -2.135210  2.345199  3.403679
N    -1.226045  1.591386  4.261376
C    0.072847  1.240358  3.960082
N    0.852039  2.180107  3.312044
N    0.480122  0.052759  4.309396
H    -3.979144  0.328291  1.158139
H    -2.564503  1.298910  0.773577
H    -3.721178  0.884834  3.596074
H    -4.081430  2.232034  2.537961
H    -2.570289  3.176366  3.982248
H    -1.551563  2.801758  2.591285
H    -1.660575  0.882250  4.845360
H    0.415049  3.063696  3.074390
H    1.418044  1.789498  2.557609
H    1.495527  -0.017510  4.201928
N    -1.788146  -2.736816  0.573030
C    -2.105568  -3.937083  -0.173016
H    -0.838493  -2.570626  0.889236
H    -1.895276  -4.838178  0.419617
H    -1.531970  -3.988438  -1.109437
H    -3.174074  -3.908421  -0.411788
