35
Energy: -21190.5125461 eV PBE+vdW (tier 2 basis)
C    1.571039  -1.910673  -0.099963
C    1.638279  -0.964662  1.080068
O    2.601506  -0.955198  1.855494
H    0.657899  -1.806203  -0.698416
H    1.643936  -2.941678  0.267518
H    2.441299  -1.730417  -0.743282
N    0.580268  -0.117500  1.227748
C    0.511075  0.873396  2.303987
C    -0.012381  0.177885  3.592005
O    -1.191378  0.231775  3.939599
H    -0.229155  -0.226048  0.627019
H    1.547744  1.199392  2.478586
C    -0.355954  2.065375  1.893011
C    -0.016355  3.372679  2.622989
C    -0.266250  3.372407  4.139012
N    0.046149  4.648353  4.784546
C    1.344918  5.141087  4.898699
N    2.322692  4.155441  5.040097
N    1.704663  6.380054  4.891457
H    -1.412892  1.800673  2.052952
H    -0.212418  2.231657  0.814933
H    -0.613449  4.183120  2.175674
H    1.039186  3.630683  2.443406
H    0.317316  2.582502  4.628738
H    -1.316448  3.134587  4.356390
H    -0.623385  5.386120  4.589159
H    3.212977  4.573443  5.293275
H    2.074055  3.373186  5.638712
H    0.922738  6.992740  4.643675
N    0.961717  -0.492201  4.263459
C    0.669723  -1.335114  5.407625
H    1.841675  -0.621757  3.757735
H    0.534357  -2.388921  5.118379
H    -0.259095  -0.983642  5.868917
H    1.485950  -1.273540  6.137795
