35
Energy: -21190.4319466 eV PBE+vdW (tier 2 basis)
C    -0.899942  3.133663  0.638677
C    -0.198258  1.872097  1.101979
O    0.997449  1.841743  1.378705
H    -0.189112  3.960768  0.707989
H    -1.786677  3.359899  1.246496
H    -1.231198  3.038627  -0.405447
N    -0.971443  0.735846  1.219769
C    -2.372326  0.550868  0.864795
C    -3.370958  0.793899  2.023791
O    -4.581411  0.729020  1.819838
H    -0.431434  -0.091309  1.463917
H    -2.643126  1.294450  0.100389
C    -2.610685  -0.840781  0.264130
C    -1.911016  -1.063138  -1.076555
C    -2.328196  -2.379983  -1.748599
N    -3.737737  -2.419784  -2.098306
C    -4.232384  -1.838055  -3.259584
N    -5.610036  -2.033075  -3.399603
N    -3.584139  -1.192414  -4.166624
H    -3.695368  -0.953925  0.139343
H    -2.295929  -1.607375  0.994931
H    -0.816412  -1.064284  -0.958605
H    -2.148172  -0.226761  -1.752798
H    -2.138347  -3.220683  -1.065989
H    -1.698751  -2.558478  -2.638452
H    -4.273204  -3.205810  -1.750222
H    -5.967608  -1.507890  -4.192377
H    -6.149887  -1.864564  -2.554642
H    -2.573309  -1.241491  -4.020065
N    -2.810419  1.075863  3.228865
C    -3.595170  1.342610  4.417683
H    -1.797428  1.116350  3.268023
H    -4.652180  1.258941  4.142701
H    -3.404046  2.354379  4.801478
H    -3.372967  0.615784  5.211217
