35
Energy: -21190.1246437 eV PBE+vdW (tier 2 basis)
C    -1.018376  -0.501826  -0.086860
C    -0.092674  -0.266698  1.087774
O    1.032600  0.205793  0.936996
H    -0.428507  -0.376932  -0.999016
H    -1.827579  0.242378  -0.092772
H    -1.457041  -1.505321  -0.060088
N    -0.531016  -0.542136  2.368661
C    -1.719231  -1.195426  2.903911
C    -1.715270  -2.723414  2.664597
O    -1.289568  -3.225263  1.628249
H    0.206608  -0.358060  3.041612
H    -1.659612  -1.013268  3.987008
C    -3.068904  -0.608043  2.437511
C    -3.211756  0.886054  2.719673
C    -4.568424  1.426616  2.250542
N    -4.812770  2.819946  2.592905
C    -5.197109  3.159734  3.878868
N    -5.241289  4.549438  4.067852
N    -5.443150  2.248505  4.758703
H    -3.868474  -1.154253  2.962462
H    -3.215880  -0.823649  1.370012
H    -2.398674  1.442643  2.228736
H    -3.121657  1.070493  3.800608
H    -5.377381  0.843680  2.710122
H    -4.663138  1.326261  1.158330
H    -4.214024  3.500062  2.135336
H    -5.671073  4.829587  4.942728
H    -5.610759  5.076851  3.280615
H    -5.833782  2.656224  5.611097
N    -2.256179  -3.495045  3.657209
C    -2.727684  -3.085459  4.971082
H    -2.251660  -4.486462  3.438834
H    -3.532056  -2.338694  4.912192
H    -1.919619  -2.682621  5.600706
H    -3.135765  -3.965537  5.479164
