35
Energy: -21190.1195612 eV PBE+vdW (tier 2 basis)
C    -0.330937  0.153165  -0.115420
C    -0.215195  0.403111  1.378685
O    0.810476  0.833128  1.896146
H    -1.345796  -0.096229  -0.450229
H    0.341387  -0.671638  -0.385092
H    0.016236  1.045186  -0.649784
N    -1.343012  0.126732  2.107274
C    -1.396229  0.179603  3.569233
C    -0.802955  1.484766  4.165785
O    -0.043116  1.452458  5.126967
H    -2.140624  -0.262235  1.620404
H    -2.472007  0.197812  3.821727
C    -0.761451  -1.049570  4.229986
C    -1.476485  -2.356303  3.885202
C    -0.857135  -3.587630  4.548074
N    -0.932481  -3.505855  5.998954
C    -0.122557  -4.302878  6.787480
N    -0.416963  -4.155982  8.155622
N    0.754312  -5.085039  6.258115
H    -0.758161  -0.888166  5.314615
H    0.295604  -1.098808  3.931865
H    -1.461024  -2.528891  2.797272
H    -2.544819  -2.286094  4.164696
H    0.206366  -3.676832  4.291005
H    -1.342886  -4.505201  4.169673
H    -1.856006  -3.332293  6.383945
H    0.254644  -4.615987  8.761291
H    -0.578734  -3.194120  8.446130
H    1.352568  -5.504316  6.974051
N    -1.242307  2.681285  3.664107
C    -2.141451  2.967411  2.563032
H    -0.763894  3.467242  4.092521
H    -2.537836  3.981706  2.694250
H    -2.997603  2.281437  2.558647
H    -1.648650  2.913672  1.579465
