35
Energy: -21190.3695589 eV PBE+vdW (tier 2 basis)
C    -2.409278  1.465381  -0.788962
C    -1.739221  1.592289  0.569021
O    -0.940408  2.492376  0.815568
H    -3.490873  1.284028  -0.735519
H    -1.957417  0.632367  -1.348870
H    -2.219784  2.389618  -1.341319
N    -2.050072  0.649615  1.518439
C    -2.895538  -0.533244  1.382321
C    -3.558035  -0.749835  2.762848
O    -2.976523  -1.376746  3.649808
H    -1.508820  0.734432  2.376431
H    -3.667277  -0.309789  0.638223
C    -2.113975  -1.790737  0.966684
C    -3.011521  -3.001672  0.664585
C    -3.447320  -3.149522  -0.806361
N    -4.042547  -1.984078  -1.445692
C    -5.294451  -1.494616  -1.128641
N    -5.574658  -0.272859  -1.757463
N    -6.174446  -1.995849  -0.328910
H    -1.429062  -2.033958  1.789682
H    -1.489708  -1.540343  0.094243
H    -3.891568  -2.977864  1.324901
H    -2.479929  -3.927493  0.928823
H    -4.150863  -3.991616  -0.898521
H    -2.571939  -3.416611  -1.415520
H    -3.396082  -1.311425  -1.841404
H    -6.557429  -0.037299  -1.649404
H    -5.281646  -0.215967  -2.729570
H    -5.817417  -2.816562  0.163478
N    -4.773656  -0.175982  2.962283
C    -5.559832  0.617696  2.025890
H    -5.137322  -0.313996  3.899979
H    -5.982009  -0.001150  1.220598
H    -4.965156  1.435014  1.595458
H    -6.389198  1.071106  2.579197
