35
Energy: -21190.1370355 eV PBE+vdW (tier 2 basis)
C    0.426665  0.800992  0.552285
C    -0.057015  -0.284683  1.496237
O    0.711214  -1.059624  2.057046
H    1.171378  1.414224  1.073675
H    -0.371952  1.452329  0.175802
H    0.931474  0.326183  -0.298532
N    -1.417621  -0.328968  1.692404
C    -2.042627  -1.436616  2.423070
C    -3.515491  -1.595681  2.012208
O    -3.926283  -2.671031  1.584155
H    -1.998071  0.197048  1.049245
H    -1.566548  -2.371074  2.093141
C    -1.842691  -1.332345  3.950458
C    -2.430418  -2.526314  4.703535
C    -2.191215  -2.429230  6.207880
N    -2.746094  -3.584235  6.891366
C    -2.640410  -3.719438  8.270651
N    -3.365006  -4.815706  8.753342
N    -1.987350  -2.974646  9.094359
H    -2.271306  -0.393833  4.330255
H    -0.758723  -1.278735  4.121399
H    -1.989211  -3.460806  4.324636
H    -3.514699  -2.598671  4.512483
H    -2.620052  -1.481590  6.591976
H    -1.108585  -2.391814  6.407877
H    -3.616110  -3.936533  6.501786
H    -3.163668  -4.970123  9.737251
H    -3.257793  -5.665429  8.205325
H    -1.617659  -2.139437  8.634953
N    -4.360724  -0.514603  2.103033
C    -4.209637  0.737627  2.832285
H    -5.306928  -0.765376  1.826879
H    -3.166094  1.066613  2.834451
H    -4.546988  0.656120  3.877813
H    -4.805615  1.514704  2.337658
