35
Energy: -21190.1166089 eV PBE+vdW (tier 2 basis)
C    -0.701040  -0.172143  0.174990
C    -0.454777  0.105315  1.645310
O    0.669800  0.381003  2.068918
H    -0.023864  0.448157  -0.420494
H    -1.738140  0.008907  -0.136008
H    -0.467838  -1.231404  -0.006979
N    -1.573081  0.003167  2.432080
C    -1.707596  -0.029308  3.894197
C    -2.284122  1.258420  4.535717
O    -3.218450  1.134353  5.333113
H    -2.409857  -0.288345  1.940916
H    -2.528889  -0.732443  4.082483
C    -0.475618  -0.542125  4.675445
C    -0.352058  -2.069843  4.803411
C    -0.398563  -2.905403  3.518879
N    -1.772817  -3.098458  3.068428
C    -2.071405  -3.456012  1.772150
N    -3.448393  -3.611382  1.539156
N    -1.147061  -3.522566  0.872693
H    -0.548564  -0.131063  5.692610
H    0.433895  -0.130776  4.224809
H    -1.128337  -2.443465  5.495098
H    0.605903  -2.279750  5.302246
H    0.091140  -3.879507  3.694213
H    0.154006  -2.430290  2.699898
H    -2.422248  -3.407445  3.783641
H    -4.033296  -3.787731  2.351467
H    -3.667729  -4.238832  0.773280
H    -1.552339  -3.701629  -0.049503
N    -1.764608  2.485616  4.260917
C    -0.666258  2.882916  3.396582
H    -2.267958  3.222421  4.746941
H    -0.147830  3.736613  3.850884
H    -1.016698  3.181670  2.395931
H    0.058967  2.072844  3.269780
