35
Energy: -21190.1701061 eV PBE+vdW (tier 2 basis)
C    0.263730  1.371814  0.538180
C    -0.010292  0.154843  1.405898
O    0.714141  -0.835372  1.388667
H    1.149931  1.156015  -0.063873
H    0.457115  2.269705  1.141718
H    -0.577584  1.595404  -0.132130
N    -1.106404  0.205046  2.236982
C    -2.142508  1.231374  2.302999
C    -2.517795  1.437927  3.785849
O    -3.548378  0.963297  4.270433
H    -1.281140  -0.666243  2.733446
H    -1.688063  2.162567  1.939361
C    -3.356305  0.884632  1.419578
C    -4.569848  1.820628  1.534370
C    -4.237743  3.323026  1.539672
N    -5.364619  4.186546  1.837982
C    -5.825585  4.497153  3.110591
N    -5.066580  3.971992  4.158571
N    -6.821107  5.272811  3.386503
H    -3.677627  -0.138505  1.659773
H    -2.987540  0.857789  0.382006
H    -5.117417  1.575195  2.453106
H    -5.258801  1.611090  0.701850
H    -3.821547  3.625230  0.565268
H    -3.462404  3.549264  2.286212
H    -6.013074  4.388257  1.088161
H    -5.508942  4.204477  5.043231
H    -4.823664  2.983507  4.107252
H    -7.198756  5.710249  2.541290
N    -1.651735  2.168437  4.540028
C    -0.404304  2.791999  4.130561
H    -1.940860  2.264579  5.508363
H    0.008123  3.331315  4.989057
H    -0.557594  3.525451  3.324929
H    0.337874  2.050570  3.803632
