35
Energy: -21190.3260456 eV PBE+vdW (tier 2 basis)
C    -1.006985  0.543479  -1.330046
C    -0.038029  0.581940  -0.157082
O    1.173941  0.698109  -0.327337
H    -1.707215  1.390977  -1.297763
H    -1.603698  -0.378741  -1.346801
H    -0.421328  0.605260  -2.250859
N    -0.571867  0.491946  1.100159
C    -1.963081  0.398267  1.488315
C    -2.076094  1.013765  2.895397
O    -1.073791  1.103007  3.609673
H    0.070125  0.634134  1.881713
H    -2.583264  0.969366  0.781609
C    -2.496460  -1.064853  1.505232
C    -1.843548  -2.020018  2.516150
C    -2.328434  -1.936021  3.970929
N    -3.762511  -2.158234  4.096259
C    -4.556227  -1.535239  5.030133
N    -5.810312  -2.153366  5.170275
N    -4.180708  -0.446788  5.622272
H    -2.337992  -1.467670  0.494869
H    -3.585161  -1.052663  1.659223
H    -0.752578  -1.876758  2.516716
H    -2.001902  -3.050173  2.155486
H    -2.112466  -0.964091  4.422104
H    -1.771210  -2.683010  4.563679
H    -4.141188  -2.995278  3.669381
H    -6.365420  -1.775865  5.930541
H    -5.800550  -3.170270  5.186742
H    -4.869283  -0.159640  6.320450
N    -3.308988  1.362816  3.346572
C    -4.580350  1.265226  2.653690
H    -3.367281  1.367310  4.366462
H    -4.459968  1.480460  1.586090
H    -5.264160  2.018118  3.064395
H    -5.052186  0.276605  2.766865
