35
Energy: -21190.4404359 eV PBE+vdW (tier 2 basis)
C    1.005635  0.011181  -0.129167
C    0.211743  0.415914  1.098825
O    -0.659393  1.285958  1.062020
H    1.457933  0.908107  -0.569028
H    0.314135  -0.405661  -0.872541
H    1.790297  -0.726755  0.077975
N    0.515350  -0.266475  2.240701
C    -0.102697  0.056647  3.510815
C    0.910522  -0.311729  4.601256
O    1.828573  -1.106037  4.373080
H    1.325166  -0.879569  2.298945
H    -0.298196  1.140614  3.505917
C    -1.467777  -0.653251  3.729621
C    -1.433371  -2.135181  4.120045
C    -0.885919  -3.086586  3.044482
N    -1.035606  -4.496917  3.379444
C    -2.260916  -5.125682  3.264648
N    -2.232283  -6.438316  3.770003
N    -3.278767  -4.509668  2.766233
H    -2.041764  -0.515578  2.802067
H    -2.020080  -0.101276  4.504336
H    -2.464352  -2.447996  4.337869
H    -0.855939  -2.270532  5.050331
H    0.182569  -2.909528  2.869141
H    -1.417962  -2.918559  2.099172
H    -0.447160  -4.836885  4.132838
H    -3.064907  -6.973043  3.546189
H    -1.386582  -6.957982  3.546412
H    -4.068251  -5.146341  2.636559
N    0.748407  0.236441  5.836485
C    -0.257187  1.180532  6.292578
H    1.415440  -0.114008  6.517516
H    -1.161611  0.681574  6.672841
H    -0.549567  1.858071  5.482495
H    0.165977  1.791530  7.098527
