35
Energy: -21189.7259871 eV PBE+vdW (tier 2 basis)
C    -0.080841  0.076772  0.078621
C    -0.024919  -0.175069  1.572386
O    1.038572  -0.378980  2.150836
H    -0.580009  1.024198  -0.161784
H    -0.614757  -0.735656  -0.432855
H    0.946604  0.112087  -0.292094
N    -1.202124  -0.169331  2.287157
C    -2.601240  -0.067110  1.858996
C    -3.005654  -1.320126  1.022566
O    -3.004310  -2.401435  1.607146
H    -1.054096  -0.476608  3.243436
H    -3.164250  -0.261388  2.783534
C    -3.008041  1.349003  1.416992
C    -4.523654  1.566327  1.462527
C    -4.934415  2.927006  0.901841
N    -6.376178  3.093210  0.942201
C    -7.112577  3.990623  0.182297
N    -6.366505  4.708792  -0.755617
N    -8.392086  4.152012  0.218286
H    -2.618738  1.598984  0.422075
H    -2.516173  2.044835  2.112881
H    -4.866342  1.478012  2.507589
H    -5.055682  0.781272  0.903484
H    -4.615156  2.998231  -0.148714
H    -4.400002  3.724780  1.457183
H    -6.850567  2.750436  1.768846
H    -6.959508  5.391939  -1.218452
H    -5.500061  5.118560  -0.418082
H    -8.839532  3.469685  0.836445
N    -3.354525  -1.274065  -0.303231
C    -3.442867  -0.206239  -1.289761
H    -3.601059  -2.205012  -0.627809
H    -4.268319  0.492122  -1.092983
H    -3.634279  -0.672136  -2.262198
H    -2.508765  0.360210  -1.379400
