35
Energy: -21190.3447285 eV PBE+vdW (tier 2 basis)
C    -0.010101  -0.111000  -0.056117
C    0.030049  0.016381  1.454472
O    1.106710  0.165777  2.046624
H    0.588296  -0.983731  -0.346269
H    0.468593  0.772529  -0.495756
H    -1.018737  -0.217975  -0.472865
N    -1.181843  -0.033642  2.073717
C    -1.537119  -0.037214  3.508304
C    -1.084533  1.158833  4.384369
O    -1.826316  1.509501  5.304987
H    -1.977210  -0.127671  1.454210
H    -2.627716  0.083294  3.505260
C    -1.261465  -1.380910  4.221713
C    0.197509  -1.719255  4.533170
C    0.315183  -3.041386  5.287479
N    1.717807  -3.337189  5.569692
C    2.122659  -4.510490  6.193219
N    1.248091  -4.966700  7.183986
N    3.216694  -5.074637  5.807134
H    -1.710249  -2.179689  3.609724
H    -1.835818  -1.345546  5.160543
H    0.652038  -0.922325  5.140241
H    0.784758  -1.771940  3.605049
H    -0.164949  -3.853146  4.706680
H    -0.242649  -2.962875  6.233686
H    2.347579  -3.138143  4.795374
H    1.644878  -5.682411  7.782236
H    0.763059  -4.247262  7.713156
H    3.476459  -5.849505  6.423128
N    0.109159  1.725714  4.107791
C    0.637768  2.807170  4.917210
H    0.703339  1.260230  3.408624
H    1.351618  3.387727  4.322018
H    1.148712  2.435133  5.819226
H    -0.183517  3.456512  5.240779
