35
Energy: -21190.6891945 eV PBE+vdW (tier 2 basis)
C    -1.228113  -0.100345  0.366266
C    -0.828041  0.110253  1.810572
O    0.288537  0.550588  2.127814
H    -1.285506  0.880942  -0.123804
H    -2.192399  -0.611981  0.260413
H    -0.443586  -0.674269  -0.141032
N    -1.774725  -0.210438  2.729456
C    -1.631331  0.067887  4.160153
C    -0.807621  -1.020434  4.908532
O    -1.273540  -1.669878  5.846588
H    -2.655909  -0.596798  2.382628
H    -1.044100  0.998475  4.230860
C    -2.999152  0.297876  4.809035
C    -3.977764  -0.891746  4.727171
C    -5.414511  -0.514533  4.316316
N    -5.551548  0.330678  3.130049
C    -5.039134  -0.016876  1.897119
N    -4.949723  1.051860  1.005983
N    -4.606272  -1.178024  1.515630
H    -3.433041  1.181939  4.317477
H    -2.831025  0.569232  5.858775
H    -4.025025  -1.403217  5.696317
H    -3.586775  -1.653741  4.039414
H    -5.905835  0.034896  5.130944
H    -6.005774  -1.432264  4.170423
H    -5.580738  1.326989  3.313209
H    -4.794123  0.728921  0.055962
H    -5.695100  1.738993  1.062762
H    -4.688152  -1.870759  2.261681
N    0.459028  -1.139580  4.439649
C    1.401930  -2.105228  4.964367
H    0.719013  -0.531197  3.654070
H    2.314848  -1.608698  5.322268
H    1.683782  -2.844319  4.200090
H    0.926924  -2.625208  5.803214
