35
Energy: -21190.1123024 eV PBE+vdW (tier 2 basis)
C    0.123880  -0.099323  0.177343
C    -0.157371  -0.402559  1.633572
O    0.736368  -0.687354  2.427996
H    1.201883  0.047222  0.071383
H    -0.410323  0.784646  -0.189365
H    -0.179852  -0.943518  -0.457282
N    -1.465555  -0.378937  2.069355
C    -2.706768  -0.046399  1.365266
C    -2.882725  -0.893971  0.077424
O    -2.964653  -0.379836  -1.036323
H    -1.536998  -0.577513  3.062745
H    -3.505218  -0.367514  2.055025
C    -2.899320  1.459679  1.095578
C    -4.345767  1.950581  1.241960
C    -5.331716  1.385690  0.218704
N    -6.661229  1.926163  0.448182
C    -7.758360  1.435516  -0.254007
N    -8.922639  2.167240  0.007653
N    -7.801048  0.439873  -1.069647
H    -2.525569  1.692884  0.089059
H    -2.272564  2.000906  1.816647
H    -4.340902  3.050067  1.158903
H    -4.716436  1.722478  2.255396
H    -5.400445  0.291541  0.316783
H    -4.963781  1.581166  -0.804867
H    -6.694920  2.927611  0.620164
H    -9.729711  1.719104  -0.416677
H    -9.075758  2.382375  0.989404
H    -6.864760  0.094667  -1.293038
N    -2.952002  -2.247509  0.237985
C    -2.871881  -3.032469  1.459204
H    -3.040493  -2.746359  -0.641749
H    -3.266454  -4.033359  1.252852
H    -3.489813  -2.596917  2.255944
H    -1.842095  -3.129335  1.831445
