35
Energy: -21190.5002548 eV PBE+vdW (tier 2 basis)
C    -1.564905  1.582574  -0.100307
C    -1.141704  1.380140  1.340556
O    -0.165849  0.674248  1.627442
H    -2.407038  2.273600  -0.226123
H    -1.841150  0.607594  -0.521774
H    -0.705492  1.953538  -0.671591
N    -1.899606  2.022914  2.272161
C    -1.791534  1.928285  3.737156
C    -0.536498  2.600966  4.352340
O    -0.674270  3.412013  5.270931
H    -2.640377  2.617787  1.923006
H    -2.613433  2.545585  4.117656
C    -1.978639  0.477770  4.237462
C    -1.904650  0.315034  5.759758
C    -3.027460  1.016341  6.524893
N    -2.917565  0.742076  7.948779
C    -3.936411  1.102852  8.825669
N    -3.579681  0.892850  10.162243
N    -5.100236  1.579867  8.546213
H    -1.215951  -0.158055  3.770342
H    -2.953897  0.122318  3.867942
H    -0.930887  0.683159  6.122114
H    -1.938313  -0.758370  5.997681
H    -3.998697  0.627563  6.179597
H    -3.011432  2.102663  6.321907
H    -1.984704  0.879180  8.329852
H    -4.377968  1.037514  10.773652
H    -3.113376  0.007569  10.341605
H    -5.176470  1.826577  7.557102
N    0.653969  2.188549  3.856184
C    1.919300  2.704555  4.339302
H    0.628441  1.515518  3.080658
H    2.552789  1.893330  4.724986
H    1.713326  3.412831  5.148761
H    2.466556  3.223956  3.539777
