35
Energy: -21189.8094394 eV PBE+vdW (tier 2 basis)
C    0.600552  -0.004822  1.623098
C    -0.455577  -0.671786  2.481316
O    -0.193815  -1.648194  3.178936
H    1.551571  -0.508509  1.813525
H    0.353717  -0.104754  0.557380
H    0.707258  1.062214  1.855676
N    -1.735004  -0.162335  2.473605
C    -2.364341  0.894920  1.672197
C    -2.508165  0.433355  0.190061
O    -3.273928  -0.503943  -0.030138
H    -2.373999  -0.774517  2.971625
H    -3.415723  0.847941  1.989023
C    -1.880170  2.312686  2.016292
C    -2.860815  3.412849  1.584330
C    -4.108043  3.526940  2.479369
N    -3.794119  3.832763  3.865234
C    -3.531800  5.132294  4.291832
N    -3.331123  5.200844  5.672513
N    -3.474988  6.207184  3.584864
H    -0.885008  2.518292  1.609279
H    -1.769204  2.355335  3.109830
H    -3.205918  3.253974  0.549950
H    -2.335748  4.378581  1.589176
H    -4.667843  2.581454  2.476767
H    -4.792826  4.281325  2.052357
H    -4.233008  3.243088  4.563016
H    -3.028216  6.129577  5.950676
H    -2.741392  4.468790  6.058667
H    -3.781572  6.047251  2.622645
N    -1.828658  1.003430  -0.855868
C    -0.889214  2.111470  -0.965256
H    -2.087931  0.547910  -1.726525
H    -0.543129  2.146592  -2.003794
H    -0.004794  1.976887  -0.331619
H    -1.346739  3.083311  -0.735110
