35
Energy: -21190.5023035 eV PBE+vdW (tier 2 basis)
C    -0.374893  -0.446404  -0.068569
C    -0.227895  -0.299915  1.430821
O    0.881479  -0.269943  1.978009
H    0.131410  0.397575  -0.553708
H    -1.416798  -0.479140  -0.409290
H    0.137488  -1.362262  -0.387470
N    -1.387138  -0.194904  2.138330
C    -1.417094  0.014966  3.586917
C    -1.263034  -1.346470  4.324872
O    -2.214796  -1.920544  4.853833
H    -2.272880  -0.290784  1.654632
H    -0.535755  0.632367  3.821006
C    -2.695379  0.741500  3.992416
C    -2.664873  1.238703  5.440351
C    -3.951465  1.948526  5.862593
N    -4.159041  3.161278  5.086542
C    -5.294034  3.954085  5.141102
N    -6.471612  3.285220  5.483275
N    -5.191473  5.192156  4.788247
H    -3.547878  0.054680  3.869976
H    -2.849371  1.589849  3.310165
H    -1.809441  1.920563  5.587231
H    -2.508883  0.388098  6.117939
H    -3.912298  2.148036  6.951633
H    -4.793305  1.259899  5.685539
H    -3.336903  3.743436  4.950618
H    -7.228921  3.900226  5.755644
H    -6.389845  2.476526  6.090445
H    -6.100772  5.659719  4.791320
N    0.011673  -1.814376  4.309155
C    0.368178  -3.118742  4.832147
H    0.669926  -1.311584  3.707495
H    1.307172  -3.058714  5.396952
H    0.487803  -3.862178  4.029036
H    -0.434610  -3.453331  5.497448
