35
Energy: -21189.9783832 eV PBE+vdW (tier 2 basis)
C    0.355047  0.135363  -0.072836
C    0.181607  -0.240338  1.388343
O    1.086102  -0.767146  2.032190
H    1.243502  0.771858  -0.166276
H    -0.506999  0.656304  -0.508002
H    0.548097  -0.778637  -0.648621
N    -1.035577  0.087097  1.930265
C    -1.520987  -0.376545  3.238542
C    -2.972917  0.070219  3.492163
O    -3.724050  -0.687432  4.100441
H    -1.760062  0.336772  1.265517
H    -1.609165  -1.474009  3.205284
C    -0.629016  -0.087616  4.472393
C    -0.286766  1.362289  4.833595
C    0.825675  2.016261  3.987613
N    2.118540  1.353435  4.044007
C    2.886073  1.264793  5.195702
N    2.872773  2.400912  6.012387
N    3.615421  0.216196  5.379341
H    0.295710  -0.666534  4.362078
H    -1.176179  -0.541794  5.311156
H    0.046987  1.363072  5.883208
H    -1.182557  2.002553  4.813458
H    0.933954  3.072568  4.284995
H    0.537266  2.051998  2.928930
H    2.180123  0.496083  3.495438
H    2.099125  3.048321  5.911015
H    3.116506  2.225836  6.979324
H    4.236336  0.333426  6.184521
N    -3.452448  1.265252  3.001569
C    -2.767473  2.499731  2.637334
H    -4.435582  1.367101  3.245257
H    -2.805543  3.237860  3.453155
H    -3.240548  2.942864  1.749997
H    -1.718781  2.305137  2.404352
