35
Energy: -21190.0361651 eV PBE+vdW (tier 2 basis)
C    -0.994062  -0.130897  -0.247764
C    -0.498858  0.129181  1.166768
O    0.702675  0.211587  1.415432
H    -0.563626  -1.077215  -0.597943
H    -0.611945  0.662137  -0.902698
H    -2.085687  -0.179727  -0.345889
N    -1.491843  0.278069  2.096505
C    -1.426413  0.435776  3.556996
C    -1.758820  1.848096  4.098169
O    -2.391441  1.922671  5.152434
H    -2.435643  0.195571  1.737732
H    -2.287464  -0.138855  3.924167
C    -0.194998  -0.168504  4.274956
C    1.032313  0.723418  4.466159
C    2.128196  -0.009799  5.236034
N    3.307319  0.834221  5.373378
C    4.303919  0.491170  6.269951
N    5.434144  1.320389  6.143168
N    4.157569  -0.502095  7.078265
H    0.085775  -1.091131  3.747554
H    -0.558271  -0.471949  5.268034
H    0.758509  1.634465  5.019941
H    1.417458  1.025834  3.482454
H    2.374815  -0.963147  4.732792
H    1.798880  -0.273511  6.249500
H    3.648143  1.233057  4.503331
H    6.103257  1.205406  6.897089
H    5.218307  2.302075  5.985124
H    4.929271  -0.546676  7.748355
N    -1.372867  2.975732  3.434988
C    -0.527501  3.160141  2.265668
H    -1.692823  3.812708  3.913653
H    0.237626  2.381228  2.191482
H    -0.012622  4.123856  2.359031
H    -1.107566  3.170036  1.329639
