35
Energy: -21190.169796 eV PBE+vdW (tier 2 basis)
C    0.384020  -0.933232  0.893472
C    0.136791  -0.038238  2.098471
O    1.063983  0.396021  2.776415
H    1.465694  -1.005681  0.754881
H    -0.063077  -0.527282  -0.024908
H    -0.017717  -1.945197  1.038559
N    -1.164434  0.264643  2.419142
C    -2.380258  -0.064717  1.705765
C    -3.199148  1.225553  1.520201
O    -3.175653  2.111851  2.371041
H    -1.270948  0.965389  3.152236
H    -2.107468  -0.482832  0.729543
C    -3.258462  -1.083018  2.481370
C    -2.611740  -2.459326  2.646069
C    -2.613175  -3.284480  1.360234
N    -1.793009  -4.483594  1.523782
C    -1.374952  -5.261979  0.446002
N    -2.259229  -5.254553  -0.633178
N    -0.287309  -5.948038  0.362912
H    -4.234666  -1.179987  1.978366
H    -3.466380  -0.645729  3.468444
H    -3.134444  -3.020171  3.434784
H    -1.576821  -2.322777  3.001624
H    -2.252983  -2.679791  0.508089
H    -3.652867  -3.566804  1.124020
H    -1.083443  -4.403438  2.245302
H    -1.993807  -5.958184  -1.316110
H    -3.245620  -5.296500  -0.393343
H    0.335946  -5.763996  1.153757
N    -3.985779  1.307100  0.408593
C    -4.046363  0.378242  -0.709152
H    -4.524303  2.165831  0.351504
H    -3.093623  0.317507  -1.256549
H    -4.810021  0.731538  -1.409568
H    -4.333878  -0.634444  -0.391943
