35
Energy: -21190.2640873 eV PBE+vdW (tier 2 basis)
C    -0.244457  -0.892522  0.203020
C    -0.355930  -0.243358  1.567022
O    0.630116  0.003870  2.254805
H    0.690659  -1.459352  0.175211
H    -0.190302  -0.110102  -0.566663
H    -1.085150  -1.550377  -0.046361
N    -1.618543  0.065898  2.041493
C    -2.911481  0.016922  1.353322
C    -3.425143  -1.427757  1.106246
O    -4.232568  -1.671660  0.213042
H    -1.576292  0.578464  2.917835
H    -3.621986  0.423497  2.091354
C    -3.008979  0.881300  0.075661
C    -4.379054  1.537894  -0.142987
C    -4.733324  2.643966  0.866158
N    -3.848847  3.798318  0.877613
C    -3.897287  4.778520  -0.108040
N    -2.836135  5.685969  -0.000938
N    -4.761389  4.927475  -1.051407
H    -2.777553  0.262739  -0.800247
H    -2.231467  1.658223  0.130171
H    -5.161277  0.765509  -0.119092
H    -4.395489  1.965079  -1.156314
H    -4.757067  2.244433  1.892346
H    -5.754682  3.003044  0.672694
H    -2.924148  3.644497  1.266412
H    -2.968545  6.462833  -0.642473
H    -2.645510  6.005600  0.945439
H    -5.405731  4.136420  -1.109974
N    -2.957652  -2.356289  1.983132
C    -3.349490  -3.750966  1.933034
H    -2.242625  -2.055578  2.636719
H    -2.497128  -4.397565  1.680187
H    -4.115120  -3.854160  1.156797
H    -3.767189  -4.076895  2.895243
