35
Energy: -21190.2369913 eV PBE+vdW (tier 2 basis)
C    -0.901713  2.650923  0.667798
C    -0.769076  2.012252  2.039552
O    -0.634313  2.673769  3.064132
H    -1.065278  1.933766  -0.146431
H    0.010266  3.223632  0.457514
H    -1.735517  3.363123  0.691380
N    -0.817724  0.642854  2.057577
C    -0.670309  -0.149293  3.275557
C    -1.634356  0.261549  4.420252
O    -1.252147  0.342777  5.588078
H    -0.946957  0.152007  1.182186
H    -1.005919  -1.163602  3.002837
C    0.780634  -0.206399  3.777262
C    1.670147  -1.238610  3.077045
C    1.124016  -2.684275  3.087234
N    0.523915  -3.084067  4.349574
C    -0.847356  -3.218991  4.518688
N    -1.267457  -2.930025  5.814264
N    -1.710786  -3.601615  3.631075
H    0.742882  -0.402192  4.855488
H    1.220430  0.795093  3.682470
H    2.657693  -1.220455  3.563998
H    1.853541  -0.958121  2.026760
H    1.929505  -3.380659  2.806024
H    0.347518  -2.800287  2.318306
H    1.037653  -2.848878  5.192478
H    -2.270507  -3.065660  5.902519
H    -0.982921  -2.013119  6.160065
H    -1.243198  -3.972389  2.799007
N    -2.949340  0.430734  4.104987
C    -3.649739  0.102495  2.874955
H    -3.509670  0.680235  4.913101
H    -4.709444  -0.044044  3.112848
H    -3.281384  -0.840681  2.448511
H    -3.574395  0.896793  2.118211
