35
Energy: -21190.1469559 eV PBE+vdW (tier 2 basis)
C    0.209932  -0.226306  2.401276
C    -0.366261  -0.759255  3.695624
O    0.363347  -1.022232  4.654866
H    -0.340472  0.629752  1.995244
H    0.198038  -1.011881  1.633071
H    1.246785  0.059300  2.596630
N    -1.718051  -1.012230  3.794457
C    -2.855105  -0.425870  3.076222
C    -2.656577  -0.327888  1.548185
O    -2.677450  0.748369  0.952586
H    -1.960318  -1.315634  4.742889
H    -3.672225  -1.157687  3.204054
C    -3.377898  0.894683  3.680106
C    -2.376464  2.026316  3.965636
C    -1.603929  1.956688  5.300269
N    -2.458004  1.776229  6.468464
C    -2.733238  0.520606  6.998686
N    -3.959928  0.471998  7.674992
N    -2.032440  -0.558534  6.918939
H    -3.910081  0.642933  4.609735
H    -4.139302  1.271995  2.984212
H    -2.947577  2.968963  3.964279
H    -1.657543  2.130909  3.140942
H    -1.033955  2.890080  5.422514
H    -0.860070  1.152583  5.304132
H    -3.242545  2.421307  6.504986
H    -4.216416  1.321144  8.170767
H    -4.002547  -0.343921  8.279084
H    -1.145812  -0.429172  6.423175
N    -2.492209  -1.504743  0.874571
C    -2.606912  -2.862244  1.385758
H    -2.433281  -1.376830  -0.131178
H    -2.158741  -3.548971  0.659253
H    -3.655039  -3.165422  1.540463
H    -2.064226  -2.967928  2.331930
