35
Energy: -21190.1132799 eV PBE+vdW (tier 2 basis)
C    -0.546622  0.825733  -0.612513
C    0.570568  0.865041  0.406952
O    1.685038  1.308481  0.134673
H    -1.111033  1.767406  -0.549029
H    -1.258705  0.004135  -0.479091
H    -0.093988  0.774198  -1.606978
N    0.314153  0.429533  1.689224
C    -0.890032  -0.157997  2.284158
C    -1.349178  -1.440928  1.543557
O    -2.475114  -1.544391  1.060858
H    1.121496  0.547237  2.293475
H    -0.565386  -0.482747  3.286739
C    -2.065221  0.809716  2.483232
C    -1.716714  2.093426  3.253457
C    -1.236394  3.260358  2.368607
N    -1.076717  4.522172  3.067226
C    -2.156258  5.322090  3.418542
N    -1.775405  6.398563  4.230225
N    -3.396591  5.184490  3.096650
H    -2.844055  0.252426  3.020910
H    -2.514723  1.052662  1.510025
H    -0.953381  1.887922  4.023144
H    -2.608526  2.430104  3.801051
H    -1.952868  3.417400  1.546989
H    -0.275341  3.023007  1.894770
H    -0.279808  4.583284  3.692596
H    -2.555622  7.037556  4.355842
H    -0.937573  6.884183  3.919459
H    -3.571500  4.300131  2.614795
N    -0.445697  -2.461621  1.453226
C    0.910506  -2.542354  1.970153
H    -0.800235  -3.254206  0.927164
H    1.633741  -1.994793  1.348815
H    1.206193  -3.596904  2.002435
H    0.971073  -2.157057  2.997097
