35
Energy: -21190.1989548 eV PBE+vdW (tier 2 basis)
C    0.021266  1.090136  0.383691
C    0.030730  1.313290  1.883765
O    0.813570  2.107273  2.397916
H    0.119900  2.067503  -0.100958
H    -0.856424  0.569597  -0.007834
H    0.911824  0.502655  0.121062
N    -0.790812  0.545009  2.691370
C    -1.996147  -0.234398  2.383255
C    -1.761599  -1.361265  1.347657
O    -2.650255  -1.743687  0.591359
H    -0.692471  0.829542  3.663450
H    -2.185044  -0.806049  3.308538
C    -3.279981  0.597273  2.163469
C    -3.293720  1.695868  1.093475
C    -3.593819  1.217605  -0.335181
N    -3.595290  2.289130  -1.322672
C    -4.666208  3.158155  -1.423879
N    -4.416337  4.199155  -2.336181
N    -5.729578  2.988843  -0.713993
H    -3.499903  1.065956  3.134474
H    -4.095582  -0.116290  1.975151
H    -2.351132  2.265997  1.113400
H    -4.080733  2.415397  1.358160
H    -4.587886  0.754137  -0.358051
H    -2.883614  0.451761  -0.670660
H    -2.692247  2.704869  -1.526721
H    -5.237540  4.756834  -2.545450
H    -3.937073  3.909633  -3.185664
H    -6.469181  3.635102  -0.998265
N    -0.532925  -1.944241  1.426038
C    -0.128116  -3.040366  0.569515
H    0.142691  -1.519351  2.051888
H    0.265523  -3.876342  1.162862
H    0.640291  -2.726708  -0.152834
H    -1.012593  -3.376974  0.018432
