35
Energy: -21190.7492185 eV PBE+vdW (tier 2 basis)
C    0.947450  0.807828  1.112430
C    0.248563  1.981368  1.759815
O    0.859782  3.002223  2.110709
H    2.023866  0.996208  1.116753
H    0.607398  0.677945  0.075189
H    0.736696  -0.131461  1.641990
N    -1.097518  1.890801  1.952075
C    -2.024743  0.864504  1.514623
C    -2.267162  0.785756  -0.014842
O    -2.662736  -0.267748  -0.513727
H    -1.524429  2.715454  2.391865
H    -1.636509  -0.130872  1.776864
C    -3.378293  1.028583  2.247205
C    -4.245294  2.254291  1.886247
C    -4.043861  3.562135  2.677789
N    -2.719966  4.179584  2.594817
C    -2.258963  4.816876  1.429432
N    -0.980763  5.321000  1.588819
N    -2.880786  4.915602  0.300421
H    -3.185039  0.998839  3.331587
H    -3.955910  0.126040  2.008624
H    -5.296837  1.978879  2.057567
H    -4.173365  2.449114  0.807072
H    -4.214924  3.360066  3.744432
H    -4.830368  4.274141  2.367041
H    -2.402988  4.633378  3.446906
H    -0.641511  5.740382  0.728042
H    -0.292658  4.675818  2.002621
H    -3.861476  4.638156  0.386538
N    -2.051311  1.925455  -0.718231
C    -2.353450  2.032306  -2.134018
H    -1.842270  2.788232  -0.221094
H    -3.100237  1.275682  -2.400565
H    -1.459854  1.866183  -2.753922
H    -2.743321  3.035892  -2.339957
