35
Energy: -21190.2000472 eV PBE+vdW (tier 2 basis)
C    0.269505  -0.687929  0.050302
C    0.275534  -0.252221  1.505181
O    1.109920  -0.673493  2.300686
H    -0.503464  -0.205656  -0.560877
H    0.130281  -1.775554  0.011855
H    1.254190  -0.471391  -0.382111
N    -0.691924  0.667988  1.837770
C    -1.046299  1.057533  3.212254
C    -2.174266  2.102678  3.194254
O    -2.971237  2.182446  4.122518
H    -1.447723  0.755982  1.165456
H    -1.474019  0.189010  3.737810
C    0.113108  1.574637  4.100778
C    0.882864  2.818660  3.636425
C    1.975102  2.576458  2.573769
N    3.030876  1.655630  2.964164
C    3.914050  1.899712  4.005314
N    4.350955  3.223657  4.120253
N    4.336423  0.905077  4.710889
H    0.810887  0.747685  4.276946
H    -0.361727  1.791616  5.068174
H    0.194285  3.597715  3.268975
H    1.366649  3.253176  4.525008
H    2.414149  3.544971  2.281389
H    1.533805  2.178966  1.650764
H    2.765636  0.671863  2.933601
H    4.678518  3.480664  5.043081
H    3.790847  3.946940  3.683149
H    5.086196  1.193429  5.345234
N    -2.211214  2.927789  2.100918
C    -3.142373  4.038724  2.012358
H    -1.414905  2.910105  1.472573
H    -3.467297  4.178511  0.974340
H    -2.699447  4.977394  2.379089
H    -4.009483  3.803940  2.638020
