35
Energy: -21190.3376433 eV PBE+vdW (tier 2 basis)
C    0.191319  -0.275934  0.421634
C    0.016720  0.595612  1.655417
O    0.773208  1.531711  1.899262
H    1.050390  0.103152  -0.137597
H    -0.696850  -0.243118  -0.225932
H    0.373245  -1.327275  0.683183
N    -1.031319  0.301428  2.489718
C    -2.035640  -0.731972  2.356079
C    -3.298256  -0.225590  3.086772
O    -3.231719  0.631088  3.965628
H    -1.185866  0.948980  3.262962
H    -2.281911  -0.873221  1.291435
C    -1.593592  -2.105073  2.929650
C    -1.260666  -2.085287  4.421235
C    -0.798227  -3.451143  4.922127
N    -0.454510  -3.391848  6.331052
C    0.025612  -4.513632  6.997992
N    0.160202  -4.295576  8.373232
N    0.331165  -5.662377  6.501041
H    -0.712307  -2.437275  2.359825
H    -2.385799  -2.844469  2.727331
H    -2.143745  -1.763294  4.997100
H    -0.472947  -1.342651  4.614968
H    0.095918  -3.767491  4.360870
H    -1.584059  -4.207735  4.722865
H    -1.051178  -2.792490  6.894579
H    0.633762  -5.078320  8.815173
H    0.582410  -3.404463  8.620900
H    0.057361  -5.732954  5.518593
N    -4.457519  -0.832306  2.712319
C    -5.737789  -0.540506  3.332728
H    -4.426995  -1.501012  1.951981
H    -6.447069  -0.127226  2.602804
H    -5.562690  0.203371  4.116463
H    -6.174066  -1.442161  3.783911
