35
Energy: -21190.2934333 eV PBE+vdW (tier 2 basis)
C    -0.256124  0.966466  0.541661
C    0.029323  -0.136374  1.541270
O    1.179708  -0.486741  1.812613
H    0.702524  1.367949  0.204083
H    -0.849615  1.774388  0.991801
H    -0.804211  0.590437  -0.333291
N    -1.034266  -0.757652  2.140338
C    -2.462994  -0.577926  1.935730
C    -3.078145  -0.006969  3.228551
O    -2.729038  -0.426048  4.328471
H    -0.783769  -1.326085  2.948459
H    -2.608224  0.122096  1.101558
C    -3.152461  -1.930353  1.618983
C    -3.126899  -2.410474  0.156420
C    -1.791838  -2.417965  -0.594002
N    -0.746450  -3.155135  0.095863
C    0.487317  -3.367163  -0.538208
N    1.557979  -3.319677  0.347044
N    0.682759  -3.653394  -1.780590
H    -4.207501  -1.862511  1.925056
H    -2.709217  -2.685929  2.285318
H    -3.818464  -1.786899  -0.432946
H    -3.544135  -3.428699  0.143475
H    -1.476622  -1.379736  -0.819951
H    -1.966899  -2.889581  -1.570811
H    -0.631601  -2.867814  1.063402
H    2.440148  -3.457811  -0.136657
H    1.577046  -2.514860  0.976227
H    -0.202527  -3.795224  -2.273472
N    -4.041063  0.939933  3.043950
C    -4.788903  1.526710  4.142202
H    -4.251961  1.233822  2.097925
H    -4.657006  2.616585  4.172294
H    -4.400690  1.095251  5.070594
H    -5.860590  1.297945  4.061826
