35
Energy: -21190.2217698 eV PBE+vdW (tier 2 basis)
C    -0.822250  -0.981618  0.362022
C    -1.677429  0.201000  0.771647
O    -1.343718  1.368176  0.551836
H    -0.099408  -1.195984  1.163233
H    -0.264528  -0.717325  -0.541924
H    -1.406277  -1.892367  0.177269
N    -2.846183  -0.125139  1.396463
C    -3.784300  0.815154  2.012795
C    -4.070602  2.078228  1.161889
O    -4.065337  3.193907  1.673171
H    -2.984668  -1.104255  1.617662
H    -4.746587  0.273078  2.042997
C    -3.433804  1.177335  3.466775
C    -2.172618  2.040575  3.691869
C    -1.077024  1.365896  4.522955
N    -0.487520  0.167775  3.911291
C    0.745785  0.173168  3.274317
N    1.042959  1.357072  2.602003
N    1.489440  -0.883348  3.372133
H    -3.339578  0.224276  4.012531
H    -4.310687  1.687415  3.887164
H    -2.459670  2.967508  4.206931
H    -1.763628  2.365870  2.728977
H    -1.489342  1.061263  5.497057
H    -0.282184  2.098279  4.730056
H    -0.578112  -0.687421  4.449321
H    0.278212  1.746962  2.049280
H    1.899088  1.303784  2.061178
H    2.305815  -0.814763  2.758695
N    -4.457127  1.907148  -0.139048
C    -4.540129  0.702103  -0.942063
H    -4.588361  2.794852  -0.613641
H    -5.224373  0.889162  -1.778440
H    -4.951015  -0.133433  -0.362669
H    -3.566095  0.393904  -1.353275
