35
Energy: -21190.4945068 eV PBE+vdW (tier 2 basis)
C    -0.186150  -0.668617  -0.162888
C    -0.040635  -0.617317  1.346536
O    0.896065  -1.159857  1.932710
H    -0.286019  -1.717482  -0.469677
H    0.732083  -0.280795  -0.620487
H    -1.044530  -0.100881  -0.541723
N    -1.012620  0.088158  2.000976
C    -1.128538  0.083986  3.444635
C    -2.621663  -0.027631  3.784261
O    -3.484832  0.271700  2.954156
H    -1.871335  0.354121  1.520461
H    -0.577911  -0.797291  3.809210
C    -0.530309  1.345233  4.108864
C    0.993095  1.305968  4.215791
C    1.572265  2.417459  5.112337
N    0.945191  2.571994  6.421274
C    0.959915  1.572054  7.382773
N    0.034419  1.806338  8.413711
N    1.675065  0.501705  7.421900
H    -0.954199  1.438475  5.119296
H    -0.871891  2.227125  3.544217
H    1.457558  1.383279  3.222487
H    1.289174  0.319693  4.600713
H    1.479576  3.391910  4.612114
H    2.650554  2.249161  5.255441
H    0.103761  3.138593  6.425630
H    0.203657  1.162716  9.182513
H    0.004941  2.769567  8.740237
H    2.231229  0.383254  6.573248
N    -2.949057  -0.439527  5.039695
C    -2.070582  -0.804460  6.142398
H    -3.949120  -0.421299  5.216704
H    -1.821703  0.050252  6.790342
H    -1.132518  -1.231318  5.771977
H    -2.563155  -1.571261  6.751925
