35
Energy: -21190.9857436 eV PBE+vdW (tier 2 basis)
C    1.501726  -0.933058  0.301684
C    1.053205  -0.441922  1.663049
O    1.818418  -0.471820  2.638519
H    2.381649  -0.357004  -0.010629
H    0.727749  -0.852097  -0.470531
H    1.813043  -1.981301  0.391092
N    -0.216510  0.036763  1.724205
C    -0.869317  0.399952  2.967172
C    -2.296540  -0.164407  2.951460
O    -2.879047  -0.421845  1.892933
H    -0.857067  -0.112468  0.945486
H    -0.316202  -0.088503  3.772430
C    -0.908297  1.927319  3.214721
C    0.413876  2.551076  3.671801
C    0.837357  2.202590  5.107352
N    1.264276  0.821729  5.296044
C    0.501602  -0.107820  5.955276
N    1.142285  -1.335342  6.107501
N    -0.688762  0.165585  6.415510
H    -1.676322  2.133694  3.974585
H    -1.249792  2.405358  2.283886
H    0.313136  3.646762  3.622658
H    1.223922  2.292829  2.971346
H    0.010895  2.380991  5.807197
H    1.669861  2.863376  5.398082
H    1.832867  0.441839  4.536240
H    0.527096  -2.140728  6.110677
H    1.979923  -1.477482  5.550531
H    -1.001391  -0.589231  7.032163
N    -2.819036  -0.307555  4.191856
C    -4.186676  -0.722964  4.426168
H    -2.212053  -0.069627  4.990977
H    -4.763978  0.069631  4.924080
H    -4.223208  -1.626379  5.051292
H    -4.647417  -0.943434  3.457243
