35
Energy: -21190.3395147 eV PBE+vdW (tier 2 basis)
C    -0.540257  -1.439254  0.362506
C    -0.589830  -0.951178  1.796918
O    -0.233106  -1.658685  2.739621
H    0.485888  -1.752470  0.134428
H    -0.856606  -0.688445  -0.371844
H    -1.181810  -2.324438  0.269280
N    -1.036796  0.331655  1.964819
C    -1.218426  0.925137  3.282680
C    -2.709332  0.811486  3.670368
O    -3.556461  1.483782  3.077360
H    -1.459774  0.811114  1.177414
H    -0.582758  0.339064  3.956754
C    -0.781777  2.392685  3.296737
C    -0.832303  3.002621  4.699633
C    -0.477179  4.497311  4.753899
N    0.870889  4.844824  4.327444
C    1.301857  4.952334  3.011863
N    0.400625  5.541303  2.127117
N    2.514434  4.601612  2.737567
H    -1.445180  2.957327  2.622240
H    0.238423  2.447969  2.891661
H    -1.842758  2.884777  5.124825
H    -0.147575  2.450955  5.365679
H    -0.597402  4.855983  5.786928
H    -1.207259  5.074060  4.165847
H    1.617376  4.445206  4.890526
H    -0.578208  5.562854  2.389425
H    0.545393  5.303290  1.153954
H    2.771988  4.865531  1.783266
N    -3.043061  -0.058412  4.660171
C    -2.169498  -0.933096  5.434829
H    -4.039063  -0.077814  4.859124
H    -1.649891  -0.392169  6.240838
H    -1.430294  -1.422763  4.788377
H    -2.785986  -1.713263  5.894704
