35
Energy: -21190.5512611 eV PBE+vdW (tier 2 basis)
C    0.269131  -0.214404  0.189233
C    0.042538  -0.159233  1.685132
O    0.976935  -0.228357  2.491028
H    0.954762  0.594611  -0.091590
H    -0.651011  -0.123417  -0.400651
H    0.762581  -1.162209  -0.059318
N    -1.253305  -0.015879  2.087997
C    -1.626254  0.051220  3.501889
C    -1.747212  -1.395102  4.058046
O    -2.827416  -1.978660  4.140283
H    -1.995695  -0.077566  1.400204
H    -0.786132  0.552712  4.005688
C    -2.914092  0.855851  3.690702
C    -3.071509  1.479617  5.084340
C    -3.193041  0.480027  6.235134
N    -3.378849  1.182789  7.493930
C    -3.374869  0.488171  8.699822
N    -3.702832  1.311514  9.784398
N    -3.119130  -0.757825  8.900045
H    -3.771178  0.201061  3.469743
H    -2.915241  1.670444  2.951619
H    -3.974056  2.113012  5.069471
H    -2.224623  2.154642  5.287473
H    -2.270112  -0.112972  6.322295
H    -4.007943  -0.237066  6.026468
H    -4.042194  1.952616  7.463482
H    -3.571685  0.813976  10.660613
H    -3.233291  2.213421  9.784492
H    -3.046123  -1.273874  8.020195
N    -0.549636  -1.928278  4.414304
C    -0.409372  -3.306120  4.845981
H    0.279374  -1.406021  4.125269
H    0.285528  -3.369317  5.692584
H    -0.039569  -3.952222  4.035240
H    -1.393977  -3.669531  5.157641
