35
Energy: -21190.2920942 eV PBE+vdW (tier 2 basis)
C    0.512590  -1.251031  2.002979
C    0.165282  0.198128  2.312788
O    1.030744  1.015813  2.618257
H    1.585562  -1.380922  2.165903
H    0.281671  -1.498832  0.956399
H    -0.036246  -1.958909  2.638894
N    -1.153032  0.558580  2.229362
C    -2.280822  -0.252966  1.819196
C    -3.303703  0.719414  1.185838
O    -3.194450  1.935213  1.344404
H    -1.357955  1.556414  2.302052
H    -1.956773  -0.968965  1.046852
C    -2.909095  -1.054195  2.992395
C    -3.798400  -0.226862  3.917724
C    -4.359328  -1.022637  5.107291
N    -4.973244  -2.309505  4.793151
C    -6.127319  -2.421155  4.049264
N    -6.491717  -3.763028  3.834926
N    -6.733656  -1.374852  3.594678
H    -2.077644  -1.501883  3.559497
H    -3.488177  -1.893753  2.582119
H    -4.645903  0.182002  3.352584
H    -3.235498  0.629066  4.320552
H    -5.110235  -0.407016  5.620999
H    -3.560240  -1.236074  5.832238
H    -4.353653  -3.109872  4.756740
H    -7.411150  -3.868711  3.419177
H    -6.379555  -4.368586  4.644826
H    -7.638590  -1.624224  3.188191
N    -4.328638  0.193334  0.459649
C    -4.699768  -1.198255  0.264302
H    -4.999828  0.899528  0.171547
H    -5.264174  -1.283657  -0.671961
H    -5.321478  -1.582651  1.087966
H    -3.807732  -1.828135  0.165136
