35
Energy: -21190.3455904 eV PBE+vdW (tier 2 basis)
C    0.164425  -0.135744  0.435762
C    0.150433  0.033111  1.939058
O    1.190352  0.058344  2.604822
H    1.175083  0.082741  0.080510
H    -0.550605  0.521269  -0.075979
H    -0.076807  -1.175845  0.169480
N    -1.064447  0.167351  2.559025
C    -2.380084  -0.167300  2.014919
C    -3.446016  0.666127  2.759576
O    -4.293402  0.145989  3.481898
H    -0.980710  0.184180  3.572890
H    -2.390427  0.158498  0.963518
C    -2.695543  -1.673017  2.037885
C    -2.509341  -2.387872  3.392483
C    -1.486539  -3.531531  3.344062
N    -0.141214  -3.098648  3.020689
C    0.548502  -3.395267  1.857486
N    1.852420  -2.902440  1.877991
N    0.133846  -4.048370  0.819582
H    -2.046437  -2.142193  1.284522
H    -3.726769  -1.799932  1.682731
H    -3.471559  -2.787067  3.740381
H    -2.201354  -1.676995  4.173605
H    -1.798483  -4.279656  2.600491
H    -1.476534  -4.057693  4.312029
H    0.419982  -2.731176  3.779963
H    2.300387  -3.036491  0.976958
H    1.952447  -1.947997  2.228160
H    -0.785563  -4.467838  0.973814
N    -3.398970  2.019956  2.576414
C    -2.487425  2.796904  1.751662
H    -4.099157  2.519400  3.115555
H    -1.482518  2.871993  2.190353
H    -2.897588  3.806216  1.639075
H    -2.392283  2.367918  0.744642
