35
Energy: -21190.5238973 eV PBE+vdW (tier 2 basis)
C    -1.674022  -1.567958  0.074104
C    -1.104136  -1.257712  1.441631
O    -0.344093  -2.041227  2.024783
H    -2.200979  -2.528791  0.118260
H    -0.842621  -1.682324  -0.632917
H    -2.357926  -0.798585  -0.304200
N    -1.470789  -0.064943  1.986340
C    -0.935885  0.427651  3.257333
C    -1.730342  -0.185701  4.448050
O    -2.553833  0.463664  5.093186
H    -2.125922  0.525922  1.487411
H    0.101241  0.061108  3.313004
C    -0.964883  1.951896  3.295065
C    -0.081541  2.529323  4.404724
C    -0.225481  4.047791  4.584930
N    0.081178  4.851656  3.407103
C    -0.786481  5.086196  2.348939
N    -2.104781  5.362752  2.700691
N    -0.297773  5.128244  1.152758
H    -2.006474  2.274073  3.451509
H    -0.632055  2.335484  2.319557
H    0.974434  2.290796  4.193769
H    -0.328013  2.053003  5.366273
H    0.437384  4.379359  5.397890
H    -1.243813  4.280018  4.929565
H    1.022663  4.729761  3.041764
H    -2.792875  5.166450  1.985268
H    -2.412904  5.119705  3.634919
H    -0.988497  5.476026  0.482530
N    -1.417938  -1.486162  4.678267
C    -2.114501  -2.292774  5.661046
H    -0.825834  -1.938931  3.975757
H    -1.400233  -2.899850  6.231899
H    -2.848951  -2.964331  5.190512
H    -2.645324  -1.620590  6.343283
