35
Energy: -21190.4735158 eV PBE+vdW (tier 2 basis)
C    0.172983  0.788511  0.126985
C    0.039374  0.418867  1.591181
O    1.014284  0.133382  2.290765
H    0.806068  1.681022  0.044923
H    -0.786792  0.984896  -0.365948
H    0.687723  -0.026346  -0.396665
N    -1.229167  0.430473  2.089211
C    -1.510638  0.060325  3.458628
C    -2.960454  -0.445895  3.487676
O    -3.783097  -0.075258  2.649144
H    -2.046323  0.594628  1.505334
H    -0.813068  -0.747573  3.731469
C    -1.321920  1.246066  4.453096
C    -0.773908  0.845001  5.826852
C    0.742238  0.573011  5.800059
N    1.302376  0.110745  7.057015
C    1.525888  0.955711  8.134686
N    1.906687  0.254943  9.288277
N    1.423386  2.239426  8.184379
H    -2.278190  1.778528  4.557094
H    -0.624454  1.953101  3.981711
H    -1.296411  -0.045949  6.215923
H    -0.987509  1.640692  6.554924
H    1.273182  1.489805  5.502094
H    0.990972  -0.162926  5.023088
H    1.101458  -0.852116  7.305844
H    2.194552  0.907020  10.012923
H    2.612491  -0.460004  9.128533
H    1.024822  2.622841  7.324698
N    -3.262276  -1.282309  4.516439
C    -4.602450  -1.782887  4.763290
H    -2.513497  -1.563061  5.137681
H    -4.633605  -2.879223  4.701383
H    -5.258238  -1.365501  3.992679
H    -4.965928  -1.470420  5.751855
