35
Energy: -21190.3669697 eV PBE+vdW (tier 2 basis)
C    -0.319900  0.460897  -0.197906
C    -0.577152  1.003647  1.192503
O    -0.026089  2.042154  1.579857
H    -1.142804  0.741871  -0.868931
H    -0.224960  -0.632768  -0.218929
H    0.603832  0.915150  -0.566932
N    -1.425500  0.329523  2.026369
C    -2.264374  -0.833888  1.800151
C    -2.944741  -0.820779  0.415064
O    -3.564086  0.153629  -0.001995
H    -1.380440  0.679645  2.991346
H    -1.671838  -1.765119  1.906604
C    -3.424926  -0.859645  2.825972
C    -3.028696  -0.758244  4.313541
C    -3.635730  0.457272  5.051445
N    -3.428348  1.758000  4.424783
C    -2.154765  2.274557  4.278613
N    -2.056496  3.439278  3.523815
N    -1.154053  1.662812  4.832894
H    -3.994466  -1.782115  2.643769
H    -4.091439  -0.030057  2.546776
H    -1.938646  -0.713534  4.434959
H    -3.355734  -1.660876  4.849627
H    -3.210108  0.498026  6.062917
H    -4.723111  0.330233  5.153852
H    -4.090728  2.012670  3.701924
H    -1.235341  3.419875  2.914484
H    -2.891971  3.708860  3.011569
H    -0.295711  2.201552  4.694996
N    -2.855774  -2.002754  -0.260122
C    -3.490634  -2.223380  -1.545010
H    -2.289608  -2.739618  0.142888
H    -4.161013  -3.092915  -1.511582
H    -2.745778  -2.377945  -2.338639
H    -4.075621  -1.327810  -1.779769
