35
Energy: -21190.2319029 eV PBE+vdW (tier 2 basis)
C    0.579739  1.426728  0.930218
C    0.387610  1.090849  2.402124
O    1.030223  1.668502  3.276310
H    1.641457  1.308308  0.682220
H    0.325099  2.483370  0.778298
H    -0.017493  0.815048  0.242463
N    -0.554951  0.125030  2.640807
C    -0.997716  -0.489556  3.898246
C    -2.410905  -0.082321  4.367564
O    -3.164040  -0.996534  4.748717
H    -1.026589  -0.236579  1.820244
H    -1.122451  -1.558391  3.672155
C    0.010206  -0.399027  5.069031
C    -0.337745  -1.309075  6.272151
C    -0.873206  -0.599631  7.526029
N    -2.219991  -0.069693  7.366292
C    -2.659238  1.157387  7.779307
N    -1.898276  1.741924  8.796841
N    -3.685316  1.705335  7.193866
H    0.123975  0.638904  5.401441
H    0.990805  -0.686192  4.667984
H    0.577276  -1.832082  6.586087
H    -1.046113  -2.096762  5.974133
H    -0.199488  0.229642  7.788799
H    -0.836512  -1.321092  8.363374
H    -2.816208  -0.514511  6.666038
H    -1.550990  1.112014  9.514552
H    -2.305808  2.584966  9.184395
H    -3.998073  2.537768  7.697469
N    -2.772645  1.213892  4.468051
C    -1.984849  2.410890  4.216070
H    -3.562205  1.348226  5.115892
H    -2.128731  2.780101  3.189194
H    -0.910898  2.263937  4.375238
H    -2.329692  3.183134  4.912974
