35
Energy: -21190.4724638 eV PBE+vdW (tier 2 basis)
C    -0.658569  1.138382  0.434096
C    -0.580395  0.222747  1.642473
O    0.468277  0.026026  2.245795
H    -1.639798  1.145919  -0.057075
H    0.103487  0.829035  -0.291101
H    -0.411039  2.159828  0.750275
N    -1.770065  -0.379922  1.995105
C    -1.914381  -1.170543  3.211983
C    -2.609040  -2.526482  2.974244
O    -3.150346  -3.145321  3.892436
H    -2.616912  -0.024804  1.561264
H    -0.884612  -1.451593  3.490743
C    -2.576859  -0.375948  4.350798
C    -1.634861  0.597627  5.076973
C    -0.797625  -0.013416  6.219577
N    0.097519  -1.112064  5.879037
C    -0.293184  -2.430799  5.686978
N    -1.287939  -2.924716  6.532075
N    0.319386  -3.122154  4.782352
H    -3.015218  -1.095944  5.054552
H    -3.425970  0.183887  3.925693
H    -2.230926  1.408264  5.526228
H    -0.960297  1.082934  4.355194
H    -1.472525  -0.339548  7.025389
H    -0.182872  0.783107  6.665121
H    0.838166  -0.876405  5.221162
H    -1.966739  -3.495609  6.033962
H    -1.748351  -2.242830  7.126151
H    0.044615  -4.106016  4.841784
N    -2.528099  -2.999047  1.702065
C    -2.953362  -4.335822  1.337007
H    -1.979310  -2.453038  1.046842
H    -3.500425  -4.320114  0.385665
H    -3.613738  -4.706309  2.127968
H    -2.098453  -5.022556  1.245711
