35
Energy: -21190.4694135 eV PBE+vdW (tier 2 basis)
C    -1.175106  -1.638471  -0.236944
C    -0.716122  -0.968121  1.042665
O    -0.113217  0.103722  1.042014
H    -1.889146  -0.976061  -0.742284
H    -1.647301  -2.616269  -0.080409
H    -0.312684  -1.757818  -0.903873
N    -1.000565  -1.650700  2.197135
C    -0.760396  -1.086575  3.519293
C    0.079733  -2.051348  4.383903
O    -0.309508  -2.491753  5.471137
H    -1.557409  -2.494623  2.131251
H    -0.127843  -0.206319  3.320977
C    -2.048302  -0.583146  4.211435
C    -3.344381  -1.372595  3.978899
C    -3.392609  -2.817624  4.504140
N    -3.122407  -2.961092  5.921923
C    -4.082849  -2.635493  6.852681
N    -3.577493  -2.622888  8.163374
N    -5.292937  -2.351286  6.495429
H    -2.218791  0.441927  3.853024
H    -1.842885  -0.506203  5.287936
H    -3.587288  -1.385289  2.903202
H    -4.163151  -0.821411  4.462180
H    -2.668576  -3.460691  3.976829
H    -4.393827  -3.224021  4.311170
H    -2.146592  -2.794983  6.169088
H    -2.840665  -3.300291  8.343647
H    -4.297252  -2.650789  8.877263
H    -5.895649  -2.225124  7.311674
N    1.312797  -2.390508  3.915203
C    2.006455  -1.949071  2.715702
H    1.795326  -3.042516  4.526482
H    3.083662  -1.926136  2.919332
H    1.696197  -0.939904  2.422939
H    1.826174  -2.620335  1.862165
