35
Energy: -21190.1210624 eV PBE+vdW (tier 2 basis)
C    -1.046693  0.230287  -0.318919
C    -0.003687  0.276930  0.781764
O    1.045233  0.900787  0.645164
H    -1.940794  0.801086  -0.034591
H    -1.356624  -0.796201  -0.553744
H    -0.607726  0.687874  -1.209259
N    -0.262970  -0.371240  1.970998
C    -1.326517  -1.313405  2.339673
C    -1.140838  -2.661193  1.588156
O    -0.125774  -3.325740  1.775622
H    0.559759  -0.382513  2.566456
H    -1.078182  -1.590296  3.374255
C    -2.734228  -0.690982  2.365620
C    -3.740974  -1.424837  3.263804
C    -3.435818  -1.361297  4.771986
N    -3.295950  -0.023678  5.328598
C    -4.399125  0.793481  5.497882
N    -4.043697  2.081853  5.926846
N    -5.585383  0.358498  5.239298
H    -3.151114  -0.594833  1.351476
H    -2.626228  0.347324  2.714562
H    -3.812154  -2.488626  2.984985
H    -4.737381  -0.990397  3.108534
H    -2.514686  -1.910788  5.015920
H    -4.256018  -1.853661  5.309560
H    -2.425271  0.460062  5.139731
H    -3.297707  2.114201  6.617519
H    -4.835621  2.651369  6.204787
H    -6.297647  1.031732  5.530319
N    -2.133456  -3.034592  0.731505
C    -2.086643  -4.269160  -0.029632
H    -2.950631  -2.442704  0.650399
H    -1.145323  -4.771376  0.216601
H    -2.113845  -4.070274  -1.110090
H    -2.925576  -4.929140  0.231570
