35
Energy: -21190.1048748 eV PBE+vdW (tier 2 basis)
C    -0.789594  2.024449  -0.772424
C    -0.248133  1.342625  0.465779
O    0.858192  1.620594  0.924268
H    -1.612167  2.704272  -0.507443
H    -1.157226  1.296574  -1.504268
H    0.027165  2.607893  -1.206435
N    -1.030805  0.421459  1.139528
C    -2.290094  -0.241246  0.823064
C    -2.137937  -1.283081  -0.311590
O    -1.373726  -1.113796  -1.255989
H    -0.514460  0.027939  1.920333
H    -2.556045  -0.772665  1.749647
C    -3.462772  0.709149  0.494167
C    -3.733983  1.738561  1.592417
C    -4.711196  2.844172  1.170013
N    -4.214116  3.665975  0.078409
C    -4.624570  3.532152  -1.243187
N    -4.038928  4.495445  -2.070535
N    -5.442938  2.676138  -1.749917
H    -4.361742  0.096645  0.323310
H    -3.267307  1.209749  -0.461410
H    -2.786737  2.206981  1.897697
H    -4.135414  1.237915  2.489501
H    -5.685721  2.411453  0.889356
H    -4.910540  3.499280  2.029958
H    -3.882160  4.589833  0.329149
H    -4.253373  4.307804  -3.045683
H    -3.043400  4.638664  -1.920411
H    -5.900647  2.111870  -1.030850
N    -2.929488  -2.397053  -0.229584
C    -3.833215  -2.794714  0.837079
H    -2.817655  -3.024147  -1.019979
H    -4.283188  -3.755501  0.566269
H    -3.312484  -2.932428  1.796613
H    -4.653981  -2.076912  0.982829
