35
Energy: -21190.1933261 eV PBE+vdW (tier 2 basis)
C    0.651689  -1.331291  1.598262
C    0.190553  0.084935  1.894713
O    0.809946  1.071932  1.506689
H    1.629756  -1.486745  2.071082
H    0.789934  -1.437866  0.515734
H    -0.040143  -2.107363  1.949107
N    -0.968319  0.184377  2.620066
C    -1.465421  1.475045  3.104025
C    -2.250452  1.267824  4.414630
O    -1.820614  1.733322  5.468246
H    -1.368225  -0.660768  3.009764
H    -0.591047  2.064785  3.409864
C    -2.218970  2.263990  2.012600
C    -2.973781  3.478417  2.553221
C    -3.896152  4.094278  1.492940
N    -4.887632  5.015353  2.027709
C    -6.008482  4.532402  2.672106
N    -6.866962  5.531762  3.141251
N    -6.239506  3.260243  2.730410
H    -2.925887  1.597253  1.499886
H    -1.475771  2.563498  1.259917
H    -2.269204  4.234120  2.935043
H    -3.606416  3.180467  3.401459
H    -4.455341  3.292996  0.991681
H    -3.316674  4.626425  0.724471
H    -4.546376  5.921182  2.327791
H    -7.402797  5.281007  3.963641
H    -6.504843  6.479151  3.180179
H    -7.172574  3.082960  3.109247
N    -3.397768  0.513213  4.403537
C    -4.267969  0.145644  3.288274
H    -3.825001  0.493515  5.326017
H    -4.893451  0.987373  2.948693
H    -4.923638  -0.667576  3.622084
H    -3.685807  -0.233396  2.440926
