35
Energy: -21190.1997622 eV PBE+vdW (tier 2 basis)
C    -0.304173  0.113415  -0.013814
C    -0.164804  0.322666  1.484811
O    0.850741  0.789724  1.991187
H    -1.306041  -0.202748  -0.330514
H    0.421955  -0.646531  -0.330054
H    -0.042541  1.047159  -0.525489
N    -1.259567  -0.031345  2.228437
C    -1.283566  -0.026861  3.691477
C    -0.753475  1.291580  4.315080
O    0.041591  1.275508  5.248423
H    -2.039993  -0.463573  1.749972
H    -2.351587  -0.086363  3.966325
C    -0.561953  -1.233255  4.304663
C    -1.142600  -2.575993  3.864417
C    -0.460668  -3.782209  4.528194
N    -0.581825  -3.845935  5.978683
C    -1.764876  -4.246004  6.570355
N    -1.735014  -4.103090  7.967364
N    -2.755356  -4.665901  5.857015
H    -0.627470  -1.120944  5.395531
H    0.506463  -1.162553  4.052579
H    -1.034639  -2.698788  2.774335
H    -2.220137  -2.627847  4.086652
H    0.613928  -3.785141  4.290192
H    -0.896190  -4.707486  4.131434
H    -0.049013  -3.160611  6.503173
H    -2.515119  -4.548566  8.438126
H    -0.847666  -4.342626  8.403060
H    -3.502066  -5.036742  6.449092
N    -1.281472  2.472745  3.867252
C    -2.241824  2.730811  2.811825
H    -0.842684  3.274920  4.307747
H    -2.700975  3.710430  2.992413
H    -3.048375  1.987237  2.816684
H    -1.786374  2.741878  1.809088
