35
Energy: -21190.8696308 eV PBE+vdW (tier 2 basis)
C    -2.408177  -0.980523  4.282867
C    -1.487176  0.151738  3.879770
O    -1.926957  1.181867  3.349588
H    -2.943025  -1.332621  3.391999
H    -3.159579  -0.594452  4.982790
H    -1.885862  -1.825316  4.746966
N    -0.168293  -0.034331  4.154012
C    0.855311  0.885405  3.696691
C    1.983527  0.068666  3.046195
O    2.220908  -1.085699  3.418238
H    0.177682  -0.954532  4.421130
H    0.387343  1.508237  2.930145
C    1.419398  1.774085  4.825807
C    0.437457  2.777314  5.446507
C    -0.226376  3.780462  4.473930
N    0.669224  4.315023  3.448054
C    0.816389  3.760174  2.183394
N    -0.328894  3.279550  1.586229
N    1.932682  3.715531  1.507923
H    2.290005  2.311250  4.420446
H    1.810392  1.117989  5.618253
H    0.986938  3.335782  6.221255
H    -0.368364  2.244252  5.974427
H    -0.641523  4.617560  5.054857
H    -1.079072  3.299290  3.984446
H    1.553235  4.657713  3.811552
H    -0.135941  2.802921  0.712530
H    -1.047656  2.831494  2.153377
H    2.687205  4.181372  2.019707
N    2.663267  0.728054  2.078817
C    3.803418  0.144022  1.397831
H    2.391671  1.691605  1.831342
H    3.823531  -0.929472  1.612914
H    4.750584  0.588547  1.738934
H    3.715729  0.299046  0.315077
