35
Energy: -21190.4832331 eV PBE+vdW (tier 2 basis)
C    -1.482149  -1.993027  3.255433
C    -0.927774  -0.586341  3.142300
O    -1.568467  0.331487  2.640045
H    -1.815389  -2.320950  2.263501
H    -2.366472  -1.971285  3.905015
H    -0.765549  -2.722524  3.652969
N    0.353545  -0.418080  3.623735
C    0.957595  0.905207  3.720267
C    2.409545  0.942068  3.206011
O    3.192312  1.828321  3.558517
H    0.746397  -1.165464  4.187594
H    0.397449  1.495365  2.977447
C    0.793015  1.558977  5.114039
C    -0.234915  2.702144  5.141612
C    0.315131  4.058653  4.641910
N    1.075755  4.041380  3.400568
C    0.545540  3.861182  2.132748
N    -0.835347  4.028096  2.021930
N    1.233764  3.620895  1.062212
H    1.773707  1.924159  5.450994
H    0.483574  0.775999  5.820913
H    -0.587499  2.857100  6.173297
H    -1.121043  2.397243  4.562799
H    0.991426  4.462876  5.409609
H    -0.507335  4.782720  4.546852
H    2.018259  3.665213  3.488602
H    -1.136349  3.772649  1.085572
H    -1.397354  3.564801  2.730528
H    2.236800  3.647220  1.267744
N    2.732471  -0.021270  2.306585
C    3.973218  0.005091  1.554499
H    1.981563  -0.631670  2.002529
H    4.714860  0.561297  2.136798
H    3.846290  0.507098  0.583489
H    4.334428  -1.016632  1.386337
