35
Energy: -21189.9753227 eV PBE+vdW (tier 2 basis)
C    -0.191844  0.717743  2.265949
C    -0.795485  -0.601064  2.703141
O    -0.103329  -1.448878  3.267588
H    -0.670950  1.583764  2.738158
H    -0.257679  0.863849  1.180557
H    0.862914  0.695305  2.551902
N    -2.129867  -0.888328  2.487478
C    -3.285495  -0.258558  1.838501
C    -3.848932  -1.121061  0.681583
O    -5.049664  -1.396036  0.667930
H    -2.338308  -1.808032  2.871217
H    -4.109108  -0.293432  2.568731
C    -3.130097  1.211830  1.430662
C    -4.442719  1.839484  0.954396
C    -4.330744  3.346724  0.674622
N    -3.974927  4.163615  1.822388
C    -2.673375  4.510825  2.157557
N    -2.600935  5.137916  3.407190
N    -1.584415  4.317856  1.493788
H    -2.369529  1.326926  0.645853
H    -2.765843  1.768051  2.304095
H    -5.228551  1.669789  1.708448
H    -4.802313  1.345825  0.038756
H    -5.292813  3.707879  0.281426
H    -3.591522  3.539899  -0.116763
H    -4.618231  4.118870  2.606352
H    -1.669515  5.513216  3.562386
H    -3.322026  5.834209  3.577638
H    -1.741380  3.750517  0.658771
N    -3.023109  -1.551904  -0.317804
C    -1.591721  -1.370864  -0.508743
H    -3.514910  -2.127972  -0.993864
H    -1.301088  -0.315253  -0.439570
H    -1.339829  -1.710236  -1.519331
H    -0.991809  -1.945902  0.209496
