35
Energy: -21190.3686395 eV PBE+vdW (tier 2 basis)
C    -0.626964  -0.746322  -0.288216
C    -0.269172  -0.586521  1.176135
O    0.851478  -0.827459  1.612436
H    0.293798  -0.964561  -0.835064
H    -1.088863  0.158576  -0.706361
H    -1.330945  -1.577919  -0.441750
N    -1.260608  -0.125877  2.028690
C    -2.693443  -0.098315  1.749477
C    -3.388204  1.064509  2.496455
O    -4.568011  0.998890  2.834325
H    -0.985430  -0.210311  3.006363
H    -2.801601  0.144982  0.680174
C    -3.393136  -1.449281  1.991939
C    -4.637582  -1.659282  1.126598
C    -5.092711  -3.128221  1.051748
N    -4.077974  -4.083228  0.621550
C    -3.515031  -4.049278  -0.647320
N    -2.350290  -4.821690  -0.739585
N    -3.919133  -3.402510  -1.686968
H    -3.641477  -1.554350  3.059144
H    -2.652337  -2.226150  1.751014
H    -4.420609  -1.297895  0.108914
H    -5.467581  -1.047469  1.503950
H    -5.959584  -3.210479  0.378521
H    -5.441477  -3.465077  2.038338
H    -3.442362  -4.390418  1.350027
H    -2.066710  -4.922100  -1.710261
H    -2.393917  -5.720275  -0.265785
H    -4.714337  -2.798390  -1.471797
N    -2.598509  2.153879  2.701713
C    -3.080620  3.368922  3.327633
H    -1.632444  2.086510  2.397736
H    -4.120968  3.199318  3.625019
H    -3.043849  4.218195  2.630752
H    -2.488288  3.616892  4.219042
