35
Energy: -21190.256416 eV PBE+vdW (tier 2 basis)
C    -0.160625  -0.296776  0.191538
C    -0.229047  -0.616170  1.674828
O    0.595771  -1.329758  2.235122
H    0.808962  0.168453  -0.024041
H    -0.960857  0.366645  -0.160454
H    -0.203483  -1.237350  -0.371859
N    -1.282519  -0.052832  2.348782
C    -1.490206  -0.254387  3.773815
C    -1.935630  -1.673716  4.181595
O    -1.557728  -2.127795  5.268551
H    -1.939388  0.523870  1.837301
H    -0.516095  -0.145497  4.271577
C    -2.455611  0.825604  4.304650
C    -2.586075  0.905148  5.840717
C    -3.944392  0.455738  6.395705
N    -4.199921  -0.966501  6.230645
C    -5.213136  -1.566120  5.517531
N    -6.188496  -0.707475  4.989205
N    -5.314619  -2.831803  5.261381
H    -2.082460  1.787553  3.922846
H    -3.453172  0.679319  3.859005
H    -1.789635  0.316494  6.318819
H    -2.431476  1.944713  6.164477
H    -4.739136  1.020359  5.890709
H    -3.994797  0.724087  7.465243
H    -3.402872  -1.574537  6.407815
H    -6.505952  0.025140  5.618052
H    -6.969440  -1.264414  4.651620
H    -4.517472  -3.340803  5.654675
N    -2.754221  -2.391997  3.369848
C    -3.578965  -1.962906  2.250037
H    -3.021760  -3.274946  3.793994
H    -4.423990  -2.655991  2.180563
H    -4.005986  -0.964718  2.410159
H    -3.029889  -1.974443  1.298287
