35
Energy: -21190.2375931 eV PBE+vdW (tier 2 basis)
C    -0.088478  0.566533  1.048098
C    -0.224686  0.275574  2.530824
O    0.763621  0.016266  3.226838
H    -0.608820  1.487698  0.752357
H    -0.497473  -0.254134  0.442022
H    0.976841  0.665753  0.824265
N    -1.474839  0.322294  3.081680
C    -2.734690  0.201102  2.359995
C    -3.877327  0.913916  3.122548
O    -4.948005  0.354907  3.348873
H    -1.487962  0.107375  4.083990
H    -2.623605  0.752568  1.411155
C    -3.108060  -1.249724  1.994305
C    -3.295470  -2.267772  3.137415
C    -2.071701  -3.097519  3.576048
N    -1.054218  -2.441916  4.398094
C    -1.334531  -1.791858  5.593460
N    -2.442835  -2.277337  6.281851
N    -0.686965  -0.781712  6.079220
H    -2.344262  -1.619795  1.290203
H    -4.046588  -1.191634  1.426427
H    -4.047518  -2.996662  2.798428
H    -3.745648  -1.782732  4.012842
H    -1.545985  -3.492284  2.693697
H    -2.443595  -3.987101  4.110891
H    -0.292746  -1.996763  3.892601
H    -2.474304  -1.913101  7.228511
H    -2.601871  -3.278090  6.230056
H    0.062684  -0.487094  5.443868
N    -3.659503  2.204973  3.513813
C    -2.533591  3.085625  3.242914
H    -4.445637  2.590155  4.027688
H    -1.691295  2.920427  3.928613
H    -2.874980  4.121755  3.349820
H    -2.170189  2.965019  2.214264
