35
Energy: -21190.1643467 eV PBE+vdW (tier 2 basis)
C    1.028412  -1.787376  2.104409
C    0.329543  -0.566445  2.677223
O    0.849554  0.145397  3.530640
H    2.052149  -1.510261  1.828330
H    1.096656  -2.550844  2.890494
H    0.524406  -2.224542  1.233429
N    -0.917072  -0.317324  2.163342
C    -1.834303  0.718892  2.641584
C    -1.135757  2.041093  3.057765
O    -1.371387  2.566764  4.140968
H    -1.290122  -0.981679  1.495562
H    -2.454570  0.988363  1.768757
C    -2.791148  0.216796  3.736801
C    -2.121426  -0.374987  4.977917
C    -3.148490  -0.780488  6.031702
N    -2.488854  -1.362203  7.188397
C    -3.220318  -1.921877  8.228077
N    -2.411077  -2.290171  9.309220
N    -4.492535  -2.120481  8.291320
H    -3.455214  -0.536700  3.280680
H    -3.425119  1.066517  4.028036
H    -1.427410  0.366491  5.397158
H    -1.526154  -1.260333  4.708960
H    -3.835551  -1.535061  5.615046
H    -3.764739  0.097434  6.308259
H    -1.644726  -0.877776  7.481892
H    -2.945542  -2.818413  9.992808
H    -1.547100  -2.759515  9.051121
H    -4.979163  -1.677425  7.508954
N    -0.374014  2.680415  2.118299
C    0.064680  2.222705  0.814175
H    0.072818  3.510407  2.495569
H    -0.746389  1.710898  0.282123
H    0.348475  3.096405  0.215397
H    0.929653  1.542647  0.867944
