35
Energy: -21190.4468037 eV PBE+vdW (tier 2 basis)
C    3.051131  -1.316586  -0.134191
C    2.736115  -0.257710  0.904833
O    3.265661  0.854411  0.894151
H    2.807635  -0.919274  -1.127439
H    2.509383  -2.258097  0.017566
H    4.129709  -1.515900  -0.117367
N    1.824263  -0.619539  1.854145
C    1.437085  0.272639  2.928879
C    1.036884  -0.611263  4.117819
O    0.429402  -1.668989  3.945415
H    1.403549  -1.544500  1.874262
H    2.314398  0.893273  3.170756
C    0.279046  1.204637  2.500983
C    -0.079789  2.285968  3.519524
C    -1.126575  3.274275  2.975534
N    -1.498409  4.337649  3.890847
C    -0.796850  5.515639  4.104759
N    0.229886  5.767113  3.195872
N    -1.066292  6.409681  4.997260
H    -0.599707  0.581192  2.273470
H    0.594178  1.675434  1.557727
H    0.828973  2.842231  3.808395
H    -0.470376  1.836616  4.445922
H    -2.041759  2.722851  2.710909
H    -0.771835  3.730494  2.039523
H    -2.138225  4.094458  4.636518
H    0.750330  6.594757  3.469350
H    0.831153  4.989382  2.944192
H    -1.921085  6.179899  5.511362
N    1.376398  -0.125890  5.341806
C    1.016266  -0.785515  6.583544
H    1.903635  0.738206  5.380396
H    0.384265  -0.138360  7.207381
H    1.910522  -1.067720  7.155549
H    0.458033  -1.691462  6.326347
