35
Energy: -21190.7199672 eV PBE+vdW (tier 2 basis)
C    0.240307  -0.107348  1.127480
C    -0.912566  0.116217  2.087330
O    -1.448596  1.219420  2.224897
H    1.066963  0.556369  1.410194
H    -0.079019  0.179519  0.117930
H    0.602118  -1.142605  1.109340
N    -1.317496  -0.979182  2.787566
C    -2.382534  -0.905437  3.768181
C    -2.108080  -2.003310  4.809297
O    -1.650470  -3.094815  4.450213
H    -0.863330  -1.884754  2.699891
H    -2.321698  0.089825  4.229009
C    -3.771616  -1.079277  3.102600
C    -4.948055  -0.664329  3.990384
C    -5.084500  0.866389  4.169839
N    -5.582702  1.259825  5.488412
C    -4.771636  1.075624  6.597678
N    -5.451282  0.797561  7.776261
N    -3.474918  1.103382  6.622643
H    -3.874779  -2.130816  2.797493
H    -3.765965  -0.478313  2.181091
H    -4.840880  -1.128026  4.982398
H    -5.882235  -1.065682  3.570670
H    -5.766440  1.287866  3.420035
H    -4.122812  1.368736  3.995422
H    -6.558054  1.018121  5.640240
H    -6.408436  1.125530  7.844006
H    -4.898009  1.002742  8.601963
H    -3.102481  1.376644  5.710687
N    -2.424442  -1.690605  6.086421
C    -2.267135  -2.637650  7.173725
H    -2.735504  -0.736668  6.319920
H    -2.170031  -3.643119  6.751045
H    -3.142584  -2.597862  7.834396
H    -1.368102  -2.421974  7.770343
