35
Energy: -21190.4674693 eV PBE+vdW (tier 2 basis)
C    0.265127  -1.320104  0.987626
C    -0.095430  -0.705106  2.330518
O    0.686325  -0.738513  3.278600
H    -0.188565  -2.316932  0.893549
H    1.351827  -1.435915  0.952355
H    -0.068275  -0.719942  0.130280
N    -1.335211  -0.134007  2.459928
C    -2.333220  0.118992  1.439957
C    -3.223268  1.270962  1.982111
O    -2.940059  1.850867  3.032006
H    -1.482263  0.405789  3.315702
H    -1.855616  0.508275  0.523078
C    -3.156873  -1.125629  1.051481
C    -4.012805  -1.693090  2.187040
C    -5.054639  -2.710485  1.699633
N    -5.968635  -2.190997  0.671083
C    -6.680610  -1.013326  0.876617
N    -7.462934  -0.997966  2.011931
N    -6.603615  -0.070714  -0.011646
H    -2.471234  -1.899517  0.676223
H    -3.791794  -0.856966  0.193220
H    -4.538988  -0.873760  2.702900
H    -3.370664  -2.164469  2.945423
H    -5.634886  -3.090011  2.554345
H    -4.564967  -3.591466  1.261031
H    -5.554030  -2.156423  -0.256496
H    -7.704441  -0.104436  2.417017
H    -7.434850  -1.784047  2.648120
H    -7.320067  0.644083  0.147901
N    -4.292109  1.612507  1.220242
C    -5.207427  2.648173  1.665642
H    -4.656417  0.972965  0.511625
H    -5.844795  2.939200  0.824178
H    -4.641766  3.519795  2.012443
H    -5.843479  2.310072  2.500311
