35
Energy: -21190.1672036 eV PBE+vdW (tier 2 basis)
C    -0.403255  -1.168998  -0.810540
C    -0.034127  -0.420413  0.453033
O    1.135019  -0.171587  0.740970
H    0.451072  -1.790271  -1.094456
H    -0.570627  -0.439082  -1.615784
H    -1.305765  -1.784747  -0.730363
N    -1.043021  0.018283  1.282977
C    -2.495795  -0.154895  1.202750
C    -2.917465  -1.645705  1.151087
O    -3.606592  -2.092770  0.235965
H    -0.680444  0.557341  2.063235
H    -2.872941  0.236947  2.162362
C    -3.170704  0.647013  0.082405
C    -2.870279  2.143041  0.155457
C    -3.546192  2.925211  -0.981446
N    -3.341210  4.362254  -0.942688
C    -4.050917  5.183081  -0.072623
N    -3.559443  6.493635  -0.064673
N    -5.051020  4.880737  0.681921
H    -4.253837  0.468829  0.151124
H    -2.871190  0.237191  -0.892729
H    -1.783228  2.312905  0.105419
H    -3.203471  2.552582  1.122992
H    -4.631027  2.738081  -0.982499
H    -3.178011  2.560027  -1.952232
H    -2.390426  4.670036  -1.123720
H    -4.177697  7.101766  0.464832
H    -3.350614  6.873069  -0.984627
H    -5.235502  3.875336  0.685935
N    -2.495753  -2.445610  2.174310
C    -1.713854  -2.103131  3.351363
H    -2.783103  -3.412616  2.061012
H    -0.640379  -2.009856  3.133536
H    -1.851549  -2.892145  4.099051
H    -2.060416  -1.163776  3.803082
