35
Energy: -21190.495504 eV PBE+vdW (tier 2 basis)
C    -3.814414  0.413336  0.500841
C    -3.563608  0.084273  1.961513
O    -4.480803  -0.182576  2.740198
H    -4.328172  -0.434381  0.030396
H    -2.900080  0.635389  -0.062784
H    -4.490072  1.275964  0.445964
N    -2.254714  0.089211  2.343461
C    -1.856943  -0.086597  3.725728
C    -0.500432  0.631364  3.869379
O    0.103066  1.039580  2.871329
H    -1.520016  0.467488  1.746147
H    -2.612064  0.405086  4.361970
C    -1.797490  -1.579386  4.134357
C    -0.546488  -2.322263  3.669792
C    -0.506329  -3.754724  4.219568
N    0.809113  -4.379319  4.178400
C    1.771472  -4.012222  5.100964
N    3.016934  -4.599019  4.831007
N    1.495260  -3.194538  6.063210
H    -2.712188  -2.046981  3.742979
H    -1.866384  -1.654860  5.228877
H    0.349842  -1.804067  4.039230
H    -0.484789  -2.329964  2.570287
H    -1.208020  -4.405842  3.678126
H    -0.811562  -3.745250  5.274423
H    1.168707  -4.602845  3.256007
H    3.697780  -4.475776  5.572486
H    2.975113  -5.564319  4.513675
H    2.273558  -3.135711  6.723958
N    0.018335  0.798618  5.114341
C    -0.473208  0.307771  6.392783
H    0.950139  1.202381  5.095332
H    -0.091187  0.959835  7.187235
H    -0.146016  -0.724225  6.594352
H    -1.567770  0.354086  6.429723
