35
Energy: -21190.7146113 eV PBE+vdW (tier 2 basis)
C    0.668757  1.648505  1.636647
C    0.446531  0.747358  2.827910
O    1.362658  0.431855  3.606849
H    1.688340  1.508230  1.264975
H    0.547631  2.694710  1.958032
H    -0.045986  1.459800  0.825283
N    -0.829765  0.326988  3.026303
C    -1.259086  -0.416250  4.210185
C    -1.068357  -1.945655  3.987291
O    -2.011451  -2.730780  3.911707
H    -1.540162  0.584792  2.350778
H    -0.566224  -0.120576  5.012664
C    -2.700173  -0.069872  4.594113
C    -2.887608  1.101325  5.568680
C    -2.354638  2.472406  5.132883
N    -0.917129  2.571434  5.290145
C    -0.134390  3.470893  4.588209
N    1.220031  3.347009  4.904608
N    -0.517185  4.341289  3.711375
H    -3.145321  -0.974743  5.028868
H    -3.283772  0.113077  3.676040
H    -2.445287  0.841602  6.545752
H    -3.966211  1.208288  5.758343
H    -2.881097  3.265103  5.697196
H    -2.587921  2.640045  4.069352
H    -0.534571  2.266056  6.178797
H    1.774681  3.986395  4.342553
H    1.571025  2.390401  4.843174
H    -1.535100  4.439229  3.697727
N    0.240949  -2.296811  3.897167
C    0.672330  -3.649930  3.608724
H    0.926339  -1.537971  3.931174
H    1.411650  -3.988294  4.347147
H    1.118121  -3.726241  2.605791
H    -0.205264  -4.303323  3.654799
