35
Energy: -21190.3049535 eV PBE+vdW (tier 2 basis)
C    -0.413535  -0.094609  0.018211
C    -0.225902  -0.005928  1.524520
O    0.868859  0.207934  2.035952
H    0.168960  -0.945488  -0.357302
H    -0.000802  0.811679  -0.441167
H    -1.457725  -0.214180  -0.297366
N    -1.366114  -0.168538  2.264429
C    -1.406309  -0.190245  3.727230
C    -0.634411  0.986254  4.362406
O    0.202190  0.820507  5.249664
H    -2.232700  -0.359902  1.776750
H    -2.469609  -0.036483  3.980447
C    -0.967709  -1.557670  4.277484
C    -1.201686  -1.820366  5.773757
C    -2.581110  -1.446054  6.332442
N    -2.718403  -0.025156  6.640157
C    -3.664533  0.788148  6.068309
N    -3.597350  2.106094  6.541921
N    -4.466700  0.350298  5.148215
H    0.097715  -1.699150  4.050294
H    -1.524602  -2.309119  3.695357
H    -0.425632  -1.308005  6.359319
H    -1.055709  -2.897647  5.947534
H    -2.757372  -2.022167  7.255726
H    -3.389491  -1.700028  5.634261
H    -1.885318  0.437455  6.990453
H    -4.390286  2.679478  6.277101
H    -3.369676  2.201111  7.528146
H    -5.174964  1.049742  4.916265
N    -0.990513  2.243682  3.966234
C    -2.059810  2.657987  3.079143
H    -0.446896  2.965919  4.426439
H    -2.352718  3.681755  3.341705
H    -2.944918  2.021076  3.206818
H    -1.764222  2.643568  2.018618
