35
Energy: -21190.3616798 eV PBE+vdW (tier 2 basis)
C    0.141713  0.842027  0.150737
C    -0.111895  0.021268  1.399727
O    0.767007  -0.189030  2.229877
H    -0.088717  1.896170  0.359070
H    -0.454830  0.536115  -0.716148
H    1.206757  0.771510  -0.088800
N    -1.378470  -0.504123  1.586239
C    -2.605277  -0.236646  0.833625
C    -2.592256  -0.859837  -0.583229
O    -3.283820  -0.397193  -1.495944
H    -1.479198  -0.938350  2.499384
H    -3.389509  -0.818666  1.342344
C    -3.063129  1.244411  0.815971
C    -4.486782  1.509217  1.328913
C    -5.631648  0.871737  0.533349
N    -5.781541  -0.558408  0.837158
C    -6.396864  -1.463847  -0.043097
N    -6.145195  -1.225373  -1.381703
N    -7.129401  -2.469393  0.307828
H    -2.973244  1.632489  -0.207748
H    -2.367932  1.816858  1.444543
H    -4.644037  2.598833  1.325513
H    -4.565986  1.204633  2.387388
H    -5.443672  0.977696  -0.540113
H    -6.570251  1.415069  0.747042
H    -6.103059  -0.720155  1.788395
H    -6.480347  -1.988118  -1.960324
H    -5.202500  -0.905951  -1.613054
H    -7.342708  -2.442355  1.309045
N    -1.826092  -1.967728  -0.714218
C    -1.747702  -2.741906  -1.937375
H    -1.267942  -2.235854  0.089792
H    -0.705818  -2.842866  -2.269310
H    -2.320140  -2.214214  -2.707134
H    -2.176473  -3.744507  -1.800917
