35
Energy: -21190.2991312 eV PBE+vdW (tier 2 basis)
C    -0.052164  -0.003204  0.161695
C    -0.112188  0.116396  1.671611
O    0.893523  0.318765  2.344451
H    0.777787  0.615334  -0.192231
H    -0.973668  0.280478  -0.356895
H    0.168678  -1.047512  -0.101187
N    -1.330203  -0.084956  2.299516
C    -2.678647  -0.067873  1.723123
C    -2.904122  -1.219432  0.706569
O    -3.614646  -1.079794  -0.286103
H    -1.263120  0.083356  3.300112
H    -3.343148  -0.310546  2.569400
C    -3.125048  1.298743  1.168435
C    -4.639478  1.512497  1.224419
C    -5.053959  2.856129  0.606564
N    -6.471375  3.159228  0.699230
C    -7.048245  3.625305  1.875247
N    -8.445557  3.664896  1.798671
N    -6.466736  4.000998  2.962549
H    -2.777025  1.408109  0.130824
H    -2.619517  2.076088  1.761518
H    -4.984585  1.471792  2.270194
H    -5.144515  0.699395  0.684065
H    -4.776978  2.872692  -0.458241
H    -4.500422  3.684293  1.076405
H    -7.077769  2.562218  0.144809
H    -8.832045  4.140076  2.609413
H    -8.810681  4.042278  0.927925
H    -5.463468  3.806003  2.944283
N    -2.294093  -2.387202  1.044530
C    -2.381554  -3.584138  0.231909
H    -1.657846  -2.361671  1.834440
H    -2.690815  -4.445896  0.838068
H    -1.420085  -3.816976  -0.249218
H    -3.130040  -3.405174  -0.547064
