35
Energy: -21190.3285585 eV PBE+vdW (tier 2 basis)
C    -0.525482  -0.910230  -0.199807
C    -0.441008  -0.318405  1.197410
O    0.556765  0.285738  1.591539
H    0.474668  -1.235893  -0.503903
H    -0.848723  -0.126587  -0.900048
H    -1.231732  -1.745872  -0.266150
N    -1.542027  -0.524491  1.983494
C    -1.670206  0.169174  3.262755
C    -0.442486  0.106532  4.197960
O    -0.143906  1.108659  4.844179
H    -2.398504  -0.824789  1.492617
H    -1.779254  1.252045  3.085104
C    -2.891444  -0.306049  4.076801
C    -4.234611  -0.254428  3.325620
C    -4.675413  -1.640923  2.818413
N    -5.635716  -1.616729  1.726848
C    -5.212114  -1.331657  0.449677
N    -6.222296  -1.314674  -0.507722
N    -3.947365  -1.182526  0.204668
H    -2.924905  0.335716  4.966621
H    -2.714863  -1.328531  4.448749
H    -4.161821  0.431331  2.469232
H    -5.018020  0.153056  3.981259
H    -5.113894  -2.224208  3.640774
H    -3.805461  -2.205688  2.458408
H    -6.595638  -1.392991  1.959686
H    -7.182906  -1.270379  -0.185367
H    -6.043958  -0.735773  -1.319191
H    -3.771462  -1.095459  -0.797779
N    0.187976  -1.086732  4.435491
C    0.106088  -2.351479  3.725813
H    0.983240  -0.960827  5.054487
H    -0.932833  -2.617681  3.505433
H    0.666848  -2.343592  2.777899
H    0.523849  -3.134692  4.370416
