35
Energy: -21190.5499651 eV PBE+vdW (tier 2 basis)
C    -0.695971  0.035250  -0.024203
C    -0.446432  0.385072  1.427364
O    0.547026  1.031135  1.781560
H    0.170064  -0.515681  -0.410758
H    -0.775106  0.966356  -0.599309
H    -1.602828  -0.560079  -0.185671
N    -1.385635  -0.045163  2.315997
C    -1.322212  0.259734  3.746516
C    -0.388225  -0.757564  4.463109
O    -0.824524  -1.692821  5.133999
H    -2.140118  -0.637900  1.989044
H    -0.867620  1.259399  3.822620
C    -2.719199  0.269140  4.359048
C    -2.745107  0.897399  5.755002
C    -4.103518  0.765226  6.457657
N    -5.253372  1.315287  5.733299
C    -5.357485  2.654540  5.361744
N    -4.778776  3.546184  6.262463
N    -5.925481  3.117265  4.299144
H    -3.084021  -0.769864  4.414900
H    -3.382790  0.832988  3.685866
H    -2.475613  1.962324  5.687453
H    -1.993212  0.410221  6.393715
H    -4.043631  1.228323  7.453339
H    -4.329024  -0.296326  6.635092
H    -5.633914  0.695622  5.026484
H    -4.902259  3.322674  7.245386
H    -5.035536  4.502812  6.039181
H    -6.187245  2.361920  3.659429
N    0.929071  -0.502195  4.254524
C    1.977039  -1.388174  4.722238
H    1.144663  0.212104  3.553955
H    1.556220  -2.038915  5.495860
H    2.805877  -0.807585  5.147013
H    2.369802  -2.019703  3.910575
