35
Energy: -21190.4938956 eV PBE+vdW (tier 2 basis)
C    -0.769620  1.487372  -0.155354
C    -0.689259  0.682862  1.128078
O    0.144057  -0.210012  1.296625
H    0.192804  1.988576  -0.317806
H    -1.570758  2.236333  -0.144897
H    -0.924666  0.799663  -0.996214
N    -1.616026  1.022350  2.071106
C    -1.675733  0.366418  3.368398
C    -3.124837  -0.074871  3.643595
O    -3.823551  0.435673  4.526122
H    -2.312834  1.751293  1.866280
H    -1.060432  -0.539591  3.252926
C    -1.045195  1.187632  4.524700
C    -1.159646  2.716387  4.444534
C    -2.532085  3.341016  4.804418
N    -2.934052  4.426001  3.906261
C    -3.318868  4.121331  2.610628
N    -3.051896  5.118255  1.677068
N    -3.852545  3.013222  2.200155
H    0.025719  0.939538  4.527973
H    -1.460204  0.816406  5.472565
H    -0.890708  3.029794  3.424540
H    -0.386877  3.148018  5.097748
H    -2.516117  3.750679  5.822719
H    -3.314017  2.572301  4.805876
H    -2.352915  5.256408  3.982615
H    -3.627014  5.027620  0.845586
H    -3.011004  6.069271  2.027760
H    -4.044036  2.391248  2.990399
N    -3.619672  -1.074873  2.861312
C    -3.004936  -1.739875  1.724050
H    -4.599849  -1.267404  3.046218
H    -3.421585  -2.750382  1.636692
H    -1.921189  -1.831709  1.856004
H    -3.186171  -1.200525  0.781558
