35
Energy: -21190.0932383 eV PBE+vdW (tier 2 basis)
C    0.373224  0.218850  0.305137
C    0.039216  0.321832  1.783877
O    0.787181  0.926062  2.554314
H    0.308437  1.222907  -0.135440
H    -0.278395  -0.457517  -0.261440
H    1.412153  -0.115097  0.204268
N    -1.143400  -0.259370  2.138009
C    -1.813665  -0.399673  3.442685
C    -2.703079  0.755608  3.972269
O    -3.405496  0.486946  4.952134
H    -1.645947  -0.687161  1.370568
H    -2.597311  -1.141051  3.219490
C    -0.991248  -1.097576  4.558041
C    0.186657  -0.412176  5.267092
C    -0.147881  0.686867  6.285369
N    -0.832180  1.861230  5.760766
C    -0.240810  3.033589  5.348910
N    1.082137  2.888772  4.917827
N    -0.934793  4.128840  5.404686
H    -0.616683  -2.027114  4.102657
H    -1.734900  -1.399368  5.310013
H    0.906596  -0.039925  4.531642
H    0.708293  -1.201598  5.833768
H    0.786365  0.995744  6.780099
H    -0.800892  0.266669  7.064123
H    -1.784591  2.002425  6.076940
H    1.465864  3.750179  4.543838
H    1.223442  2.111343  4.270557
H    -0.432776  4.895712  4.949778
N    -2.843234  1.949561  3.333976
C    -1.991921  2.637152  2.371289
H    -3.474726  2.548824  3.858912
H    -2.244546  3.701067  2.413941
H    -2.163031  2.282914  1.344608
H    -0.929495  2.541625  2.618253
