35
Energy: -21190.4558606 eV PBE+vdW (tier 2 basis)
C    -0.413173  -0.399305  -0.427075
C    -0.039322  0.282308  0.879489
O    1.094533  0.720843  1.068673
H    -0.380715  -1.491462  -0.307358
H    0.328538  -0.115355  -1.178695
H    -1.418020  -0.133875  -0.782431
N    -1.000635  0.370329  1.850828
C    -2.410682  0.034958  1.776746
C    -3.099899  0.819639  2.924212
O    -2.482775  1.653132  3.592018
H    -0.765962  0.967055  2.647051
H    -2.847928  0.419969  0.837461
C    -2.710501  -1.472634  1.858911
C    -2.265552  -2.136972  3.174416
C    -3.220117  -3.243930  3.660009
N    -4.295923  -2.805434  4.544821
C    -5.550703  -2.429818  4.150234
N    -6.504511  -2.454644  5.164358
N    -5.800798  -2.116630  2.912881
H    -2.229480  -1.975884  1.009167
H    -3.788752  -1.629979  1.714809
H    -2.170392  -1.388228  3.976220
H    -1.260245  -2.563768  3.053182
H    -2.652976  -4.002676  4.217853
H    -3.686311  -3.750817  2.803574
H    -4.086750  -2.771944  5.533600
H    -7.233260  -1.754139  5.106103
H    -6.203521  -2.658780  6.110654
H    -6.808299  -2.038739  2.758280
N    -4.412049  0.540670  3.115421
C    -5.145998  1.162275  4.201196
H    -4.818861  -0.321537  2.732056
H    -6.219865  1.053542  4.010361
H    -4.894307  2.226853  4.258704
H    -4.909139  0.708108  5.177883
