35
Energy: -21190.1316333 eV PBE+vdW (tier 2 basis)
C    -0.145850  -0.428403  0.108688
C    -0.180095  0.361246  1.407327
O    0.511841  1.366958  1.562410
H    0.865886  -0.831449  -0.027589
H    -0.336961  0.259381  -0.723751
H    -0.863849  -1.256491  0.062838
N    -1.028567  -0.144051  2.356636
C    -1.280126  0.286720  3.737910
C    -2.630816  1.016377  3.963081
O    -3.364359  0.610145  4.866091
H    -1.550003  -0.967932  2.081124
H    -1.456282  -0.643098  4.295275
C    -0.134246  1.030691  4.450407
C    1.196413  0.273416  4.529680
C    1.107208  -1.109841  5.170982
N    2.435046  -1.683694  5.313365
C    2.606532  -2.960505  5.836730
N    3.930348  -3.404306  5.731859
N    1.718226  -3.727151  6.367934
H    -0.506578  1.225958  5.468198
H    0.045342  2.003614  3.980272
H    1.897985  0.885902  5.116256
H    1.628666  0.189937  3.521118
H    0.453193  -1.770570  4.568961
H    0.648787  -1.031839  6.170382
H    3.080178  -1.451964  4.562742
H    4.055728  -4.273595  6.242829
H    4.628325  -2.710136  5.986337
H    0.777022  -3.341203  6.265580
N    -2.982861  2.091933  3.205256
C    -2.292463  2.751882  2.110048
H    -3.900451  2.446077  3.460377
H    -1.207072  2.632732  2.186655
H    -2.518800  3.824689  2.143226
H    -2.607049  2.362399  1.128611
