35
Energy: -21190.5560074 eV PBE+vdW (tier 2 basis)
C    -0.039376  -0.063961  -0.204256
C    0.041490  -0.111841  1.309706
O    1.125946  -0.210545  1.898927
H    -1.061417  0.033396  -0.588880
H    0.412064  -0.977801  -0.610120
H    0.561814  0.780894  -0.564471
N    -1.145961  -0.034882  1.958394
C    -1.304552  -0.022799  3.401560
C    -2.817795  -0.134391  3.646618
O    -3.623155  0.106389  2.742101
H    -2.027142  0.058285  1.452763
H    -0.786926  -0.900725  3.820354
C    -0.696111  1.242196  4.060806
C    -1.203085  2.574066  3.493176
C    -0.109267  3.654577  3.480780
N    1.031431  3.262231  2.677134
C    2.250483  2.918123  3.227742
N    3.019728  2.136919  2.351510
N    2.583348  3.358107  4.397337
H    0.387228  1.164419  3.910106
H    -0.855967  1.200974  5.146578
H    -2.073775  2.941239  4.057362
H    -1.557512  2.429144  2.459974
H    0.283670  3.845057  4.488306
H    -0.530359  4.603102  3.111009
H    0.862545  2.935958  1.733736
H    3.917241  1.878885  2.749195
H    2.522854  1.310020  2.003338
H    3.474874  2.954030  4.691121
N    -3.241198  -0.483918  4.891128
C    -2.458127  -0.828419  6.065638
H    -4.252568  -0.470534  4.983038
H    -3.012152  -1.563153  6.661887
H    -2.244405  0.044633  6.700702
H    -1.505444  -1.286765  5.778382
