35
Energy: -21190.1696266 eV PBE+vdW (tier 2 basis)
C    1.199633  -2.508928  0.950298
C    0.554934  -2.020062  2.228414
O    0.908470  -2.397489  3.342811
H    2.246375  -2.756327  1.152172
H    1.143250  -1.780522  0.130466
H    0.671016  -3.427271  0.641567
N    -0.478608  -1.131385  2.046807
C    -1.396202  -0.670365  3.089440
C    -0.737194  -0.526593  4.488234
O    -1.221317  -1.072105  5.474958
H    -0.745759  -0.925940  1.090659
H    -1.686035  0.356920  2.803856
C    -2.686992  -1.502862  3.177515
C    -2.483895  -3.023935  3.318480
C    -2.675461  -3.767694  1.993577
N    -2.462761  -5.202356  2.124236
C    -1.488246  -5.864914  1.410805
N    -1.341691  -7.197724  1.824432
N    -0.797105  -5.272242  0.492226
H    -3.288780  -1.292704  2.277268
H    -3.257066  -1.116367  4.031247
H    -3.206014  -3.410251  4.054526
H    -1.488070  -3.239844  3.726660
H    -1.969849  -3.418190  1.230629
H    -3.692525  -3.577369  1.607069
H    -2.674253  -5.599095  3.033577
H    -2.208475  -7.670276  2.068219
H    -0.771327  -7.759152  1.201871
H    -0.191575  -5.939300  0.009397
N    0.293118  0.366553  4.613251
C    1.066449  1.020917  3.575106
H    0.693176  0.349004  5.546426
H    1.574733  1.888693  4.012685
H    0.413967  1.391032  2.775291
H    1.824981  0.359980  3.126649
