35
Energy: -21190.0002064 eV PBE+vdW (tier 2 basis)
C    -5.699289  -1.105401  -1.483203
C    -6.631020  -1.032961  -0.291030
O    -6.886571  0.027040  0.280047
H    -6.225393  -0.699614  -2.358003
H    -5.362959  -2.122868  -1.717371
H    -4.828340  -0.468686  -1.294204
N    -7.177509  -2.223123  0.104377
C    -8.259163  -2.299636  1.088669
C    -9.361006  -1.263571  0.710925
O    -9.902825  -1.420396  -0.382663
H    -7.050814  -3.020369  -0.506433
H    -8.791957  -3.229804  0.844661
C    -7.761020  -2.475520  2.541575
C    -6.521303  -1.688440  2.972112
C    -6.237798  -1.855970  4.462161
N    -5.024253  -1.150502  4.834183
C    -4.537828  -1.198488  6.135852
N    -3.454767  -0.333858  6.329787
N    -4.966194  -1.912856  7.118774
H    -7.537879  -3.547054  2.670988
H    -8.606186  -2.276293  3.218438
H    -6.634795  -0.623060  2.733281
H    -5.648934  -2.037348  2.400567
H    -6.105252  -2.923698  4.701574
H    -7.111204  -1.505773  5.049298
H    -4.894708  -0.254308  4.372345
H    -2.763448  -0.347324  5.584531
H    -3.035603  -0.484387  7.242964
H    -5.840163  -2.388999  6.884950
N    -9.836811  -0.324250  1.586106
C    -9.139175  0.405095  2.639116
H    -10.593548  0.187726  1.139677
H    -8.975981  -0.209366  3.533242
H    -9.774277  1.246370  2.936331
H    -8.178029  0.798285  2.282552
