35
Energy: -21190.2801363 eV PBE+vdW (tier 2 basis)
C    0.169230  0.546530  0.551086
C    0.421311  -0.354411  1.755970
O    1.566687  -0.575365  2.149806
H    -0.412294  1.438243  0.828397
H    -0.373522  0.025759  -0.251242
H    1.141834  0.865960  0.167835
N    -0.663972  -0.916475  2.371914
C    -2.045845  -0.615906  2.075144
C    -2.577616  0.569573  2.917532
O    -2.201421  0.802152  4.062368
H    -0.435499  -1.401107  3.265661
H    -2.095631  -0.309876  1.023221
C    -2.980773  -1.861378  2.205821
C    -2.600774  -2.892053  3.276064
C    -2.653191  -2.390529  4.731045
N    -1.889854  -3.212206  5.663624
C    -0.509479  -3.152595  5.634930
N    0.092121  -4.058264  6.517090
N    0.093093  -2.344857  4.828944
H    -2.981412  -2.377253  1.234612
H    -4.012306  -1.508545  2.368183
H    -1.583292  -3.250924  3.070794
H    -3.265051  -3.763524  3.162407
H    -3.691440  -2.350284  5.091209
H    -2.252269  -1.372038  4.805076
H    -2.273584  -4.123956  5.890428
H    1.095168  -3.937574  6.607050
H    -0.363801  -4.138353  7.422344
H    1.101068  -2.293909  4.982127
N    -3.525151  1.357217  2.314553
C    -4.019228  1.292637  0.948552
H    -3.846978  2.118309  2.904037
H    -4.774042  2.075539  0.818164
H    -4.500964  0.330490  0.722834
H    -3.225378  1.469353  0.206174
