35
Energy: -21190.4496786 eV PBE+vdW (tier 2 basis)
C    -1.093775  -2.234611  4.867839
C    -0.393932  -1.530551  3.725063
O    -0.451569  -1.952008  2.564117
H    -2.166791  -2.282715  4.644022
H    -0.954291  -1.746436  5.840040
H    -0.726275  -3.266455  4.927533
N    0.297469  -0.401954  4.051827
C    0.999387  0.418626  3.064223
C    2.417433  -0.150993  2.779198
O    3.441400  0.410053  3.165557
H    0.404487  -0.156904  5.030007
H    0.412258  0.337300  2.135960
C    1.062378  1.875151  3.517088
C    -0.305374  2.563708  3.539463
C    -0.283298  3.976490  4.126801
N    0.520246  4.884988  3.325349
C    0.445274  6.271131  3.364109
N    -0.608093  6.781724  4.125072
N    1.196382  7.092356  2.710610
H    1.756464  2.387701  2.836123
H    1.542375  1.926404  4.508786
H    -1.012077  1.966012  4.135961
H    -0.716358  2.608672  2.518750
H    0.069581  3.922498  5.178518
H    -1.309916  4.366688  4.146747
H    1.417550  4.534450  3.012568
H    -0.548769  7.795121  4.164355
H    -0.744330  6.365323  5.041403
H    1.833662  6.596107  2.081620
N    2.386255  -1.309622  2.070636
C    3.581300  -2.069132  1.760136
H    1.463707  -1.711363  1.886364
H    4.450934  -1.449845  2.003753
H    3.609221  -2.326721  0.693146
H    3.634087  -2.998195  2.347258
