35
Energy: -21190.2085483 eV PBE+vdW (tier 2 basis)
C    -1.051284  -0.142855  -0.677424
C    -0.879327  -0.843012  0.654021
O    -0.160086  -1.843844  0.784734
H    -0.379969  -0.606288  -1.404706
H    -0.836930  0.932964  -0.615439
H    -2.087485  -0.243623  -1.031646
N    -1.550258  -0.342673  1.725201
C    -2.347076  0.864469  1.839503
C    -1.639010  2.241846  1.826485
O    -2.364312  3.234151  1.739204
H    -1.535598  -0.936255  2.566107
H    -3.043208  0.938054  0.988840
C    -3.214915  0.758201  3.114864
C    -2.502720  0.909296  4.472676
C    -1.293186  0.014148  4.771919
N    -1.548752  -1.412230  4.478216
C    -0.466934  -2.329405  4.664648
N    0.567940  -2.136029  3.767440
N    -0.410386  -3.254909  5.556597
H    -3.738295  -0.208107  3.063803
H    -3.982007  1.539418  3.052592
H    -3.266009  0.752194  5.252113
H    -2.169736  1.951176  4.595659
H    -1.002218  0.156543  5.828339
H    -0.427135  0.319786  4.175750
H    -2.356339  -1.746604  5.003396
H    1.304141  -2.822140  3.906981
H    0.309738  -2.042303  2.775100
H    -1.174714  -3.164929  6.232509
N    -0.284562  2.399273  1.944983
C    0.851184  1.482170  1.950622
H    -0.051966  3.387802  1.895352
H    1.085927  1.088121  0.951034
H    0.707250  0.633793  2.624530
H    1.724310  2.041917  2.304615
