35
Energy: -21190.4231742 eV PBE+vdW (tier 2 basis)
C    -1.400392  0.133662  -0.338564
C    -0.840495  -0.266327  1.012226
O    0.242148  -0.842007  1.116788
H    -2.475458  0.352036  -0.325657
H    -1.199097  -0.667155  -1.057951
H    -0.864905  1.030960  -0.677826
N    -1.639601  0.042894  2.081434
C    -1.227428  -0.009862  3.477986
C    -0.246502  1.159470  3.785260
O    0.195608  1.886690  2.896174
H    -2.426741  0.646916  1.878050
H    -2.136653  0.259046  4.036705
C    -0.857568  -1.471093  3.928566
C    0.450334  -1.798056  4.673129
C    1.714135  -1.934947  3.805004
N    2.227608  -0.717028  3.228773
C    2.989628  0.200859  3.912214
N    3.207429  1.372018  3.186313
N    3.524565  0.077709  5.089901
H    -0.888833  -2.089572  3.023368
H    -1.690674  -1.817900  4.556129
H    0.291023  -2.774457  5.158659
H    0.655489  -1.095378  5.493814
H    1.503682  -2.621797  2.972934
H    2.503657  -2.413064  4.407020
H    1.831563  -0.461033  2.327429
H    3.688333  2.059749  3.757862
H    2.368197  1.751074  2.746223
H    3.388686  -0.864859  5.462672
N    -0.022145  1.369003  5.107640
C    0.892540  2.377538  5.622842
H    -0.378864  0.684591  5.763559
H    0.449615  2.868052  6.498846
H    1.049104  3.122963  4.837255
H    1.860593  1.929310  5.892959
