35
Energy: -21190.3552478 eV PBE+vdW (tier 2 basis)
C    0.432110  -0.352740  2.693010
C    -0.620579  0.495064  3.369615
O    -0.356400  1.594470  3.850216
H    0.654123  0.074878  1.702327
H    0.159705  -1.405619  2.567411
H    1.349531  -0.280589  3.288231
N    -1.911915  -0.004060  3.488641
C    -2.563134  -1.061402  2.705471
C    -2.126417  -2.497781  3.095834
O    -2.306463  -3.446171  2.336007
H    -2.525777  0.686789  3.912028
H    -3.622234  -1.025273  3.014671
C    -2.514326  -0.835420  1.186945
C    -3.346303  0.372574  0.745672
C    -3.000615  0.899641  -0.655746
N    -1.732045  1.629991  -0.720044
C    -0.481954  1.030543  -0.848020
N    -0.461012  -0.103877  -1.655525
N    0.618520  1.429189  -0.300714
H    -2.872359  -1.750664  0.698305
H    -1.469099  -0.717722  0.874954
H    -3.215352  1.207475  1.455537
H    -4.418057  0.114252  0.772253
H    -3.793246  1.581220  -0.998214
H    -2.968390  0.071471  -1.375319
H    -1.698211  2.431034  -0.095631
H    0.493397  -0.396641  -1.840757
H    -1.028308  -0.057034  -2.496477
H    0.449246  2.179036  0.376179
N    -1.614773  -2.612368  4.350273
C    -1.180195  -3.876065  4.909284
H    -1.470177  -1.750327  4.865529
H    -1.684118  -4.078518  5.864175
H    -0.092945  -3.889405  5.073312
H    -1.439661  -4.663365  4.193387
