35
Energy: -21190.3661466 eV PBE+vdW (tier 2 basis)
C    -0.638186  3.013512  1.629472
C    -0.379259  1.580940  2.066946
O    0.576902  1.281676  2.775942
H    0.160882  3.637685  2.037312
H    -1.602764  3.381115  2.008866
H    -0.648870  3.117038  0.535916
N    -1.269554  0.623887  1.647734
C    -2.460806  0.784180  0.840535
C    -3.438273  -0.325974  1.261702
O    -3.032624  -1.395552  1.726410
H    -1.119770  -0.313272  2.019490
H    -2.924576  1.758342  1.062683
C    -2.179108  0.735177  -0.690566
C    -1.585700  -0.579708  -1.216796
C    -2.636864  -1.630343  -1.629645
N    -2.098664  -2.910635  -2.043822
C    -1.480105  -3.816668  -1.186199
N    -1.948468  -3.826339  0.121516
N    -0.609688  -4.622515  -1.700454
H    -1.486651  1.561484  -0.903116
H    -3.110155  0.977881  -1.231017
H    -0.905780  -1.009640  -0.466159
H    -0.957909  -0.364620  -2.093918
H    -3.228394  -1.236930  -2.470942
H    -3.362131  -1.801953  -0.822054
H    -1.638360  -2.931994  -2.949020
H    -1.353606  -4.326264  0.770328
H    -2.347807  -2.983017  0.530105
H    -0.287429  -5.308257  -1.013561
N    -4.749259  -0.060255  1.039589
C    -5.804398  -1.035870  1.255839
H    -4.995512  0.846689  0.660638
H    -6.582008  -0.627858  1.913939
H    -5.355182  -1.912487  1.732683
H    -6.262511  -1.343453  0.305350
