35
Energy: -21190.2209755 eV PBE+vdW (tier 2 basis)
C    0.142872  0.929911  0.307237
C    -0.541811  -0.241395  0.989038
O    -0.197872  -1.403718  0.807430
H    -0.225946  1.911604  0.630133
H    0.002608  0.834686  -0.777040
H    1.219969  0.870573  0.504055
N    -1.565651  0.094986  1.845087
C    -2.439341  -0.939796  2.412334
C    -3.711896  -0.300255  2.974890
O    -4.828542  -0.732595  2.668259
H    -1.937277  1.036103  1.776421
H    -2.773586  -1.586904  1.590141
C    -1.728608  -1.837455  3.477422
C    -1.870221  -3.346616  3.248246
C    -3.263524  -3.952818  3.497219
N    -4.278636  -3.629976  2.508390
C    -4.307468  -4.287613  1.298334
N    -5.104379  -3.632525  0.345060
N    -3.618945  -5.364050  1.106587
H    -2.093498  -1.585186  4.486769
H    -0.662731  -1.577099  3.458733
H    -1.167863  -3.851197  3.930774
H    -1.542527  -3.596940  2.229337
H    -3.643928  -3.636088  4.481903
H    -3.169748  -5.045846  3.512506
H    -4.633206  -2.672778  2.509809
H    -5.440019  -4.239243  -0.394848
H    -5.844694  -3.046430  0.722920
H    -3.782729  -5.741751  0.170978
N    -3.605914  0.772631  3.819045
C    -2.458632  1.231525  4.592497
H    -4.520426  1.078884  4.143136
H    -2.460731  0.808730  5.608939
H    -2.480072  2.326340  4.669554
H    -1.525016  0.942398  4.102763
