35
Energy: -21190.3303353 eV PBE+vdW (tier 2 basis)
C    -0.006374  -0.597454  -0.330088
C    0.172826  0.057296  1.022222
O    1.146833  0.787919  1.248365
H    0.990762  -0.836654  -0.714326
H    -0.482513  0.110830  -1.019488
H    -0.615115  -1.509652  -0.300612
N    -0.724632  -0.195950  2.022697
C    -2.079338  -0.715191  2.012303
C    -2.842206  -0.459034  0.696528
O    -2.794383  0.603524  0.083608
H    -0.395175  0.142271  2.938144
H    -2.077338  -1.805182  2.205791
C    -2.856258  -0.032441  3.173681
C    -3.011916  1.493124  3.000057
C    -2.771547  2.332671  4.267627
N    -1.501542  2.099383  4.964569
C    -0.287329  1.958511  4.297907
N    0.019802  2.903989  3.342927
N    0.471992  0.958878  4.634257
H    -2.297518  -0.261896  4.094113
H    -3.835266  -0.521845  3.275083
H    -4.014683  1.732228  2.618021
H    -2.321876  1.830693  2.216102
H    -3.558911  2.149756  5.012558
H    -2.862644  3.398840  4.001750
H    -1.547688  1.389083  5.689384
H    0.582760  2.551581  2.567090
H    -0.695739  3.572385  3.082237
H    1.390383  1.040103  4.187451
N    -3.630963  -1.507626  0.317039
C    -4.518254  -1.448407  -0.828410
H    -3.590186  -2.358851  0.864508
H    -5.569098  -1.564569  -0.528071
H    -4.269870  -2.226766  -1.562861
H    -4.387429  -0.465695  -1.293712
