35
Energy: -21190.4629498 eV PBE+vdW (tier 2 basis)
C    -1.411719  -1.511792  0.377276
C    -1.181437  -0.517478  1.499514
O    -1.156301  0.698514  1.305643
H    -1.370486  -2.559127  0.700422
H    -0.657667  -1.344784  -0.401534
H    -2.394159  -1.315135  -0.069997
N    -1.006123  -1.064240  2.738135
C    -0.774244  -0.251722  3.916991
C    0.173319  -1.041262  4.828959
O    0.024999  -2.250424  5.007985
H    -1.013070  -2.069621  2.882607
H    -0.308304  0.683526  3.569608
C    -2.098822  0.083049  4.637833
C    -1.943634  1.011412  5.843317
C    -3.280612  1.428252  6.475820
N    -4.054471  0.324815  7.045678
C    -4.946176  -0.462880  6.317232
N    -5.654264  0.228745  5.334691
N    -5.168085  -1.723183  6.478853
H    -2.573435  -0.862853  4.936939
H    -2.760092  0.548773  3.893093
H    -1.411914  1.931594  5.543903
H    -1.319018  0.535265  6.617733
H    -3.901536  1.929839  5.723241
H    -3.093310  2.163420  7.273378
H    -3.544608  -0.222145  7.733442
H    -6.379910  -0.362610  4.940521
H    -6.004685  1.141587  5.611463
H    -4.482060  -2.145132  7.111209
N    1.149124  -0.304305  5.427610
C    2.102125  -0.867722  6.365398
H    1.212013  0.678457  5.190999
H    3.131496  -0.766278  5.995160
H    1.866936  -1.931700  6.473494
H    2.028131  -0.381855  7.348386
