35
Energy: -21190.7195892 eV PBE+vdW (tier 2 basis)
C    -0.634736  1.504809  1.153010
C    -0.850730  0.118418  1.724519
O    0.059351  -0.723253  1.716397
H    0.268815  1.935644  1.600044
H    -1.478030  2.187857  1.310099
H    -0.453750  1.410703  0.074318
N    -2.087500  -0.120500  2.238066
C    -2.653217  -1.402919  2.693660
C    -2.041381  -1.968775  3.998253
O    -2.790214  -2.371325  4.903973
H    -2.744922  0.649073  2.210371
H    -3.680048  -1.152265  2.974821
C    -2.677606  -2.450667  1.551717
C    -3.190062  -3.849661  1.929550
C    -4.696210  -3.975573  2.197021
N    -5.151727  -3.191675  3.337498
C    -6.006850  -2.127603  3.160014
N    -5.981243  -1.222553  4.235663
N    -6.695918  -1.982716  2.074752
H    -1.657045  -2.544317  1.156453
H    -3.300338  -2.034547  0.745112
H    -2.623255  -4.235564  2.793033
H    -2.950116  -4.528612  1.096718
H    -4.939108  -5.038969  2.355732
H    -5.279147  -3.635774  1.330086
H    -4.463378  -3.073183  4.085920
H    -6.853007  -0.724328  4.377681
H    -5.597242  -1.582664  5.106092
H    -7.273726  -1.140765  2.121215
N    -0.697403  -2.043790  4.043264
C    0.022334  -2.585319  5.179030
H    -0.186564  -1.691202  3.220313
H    0.666687  -3.418839  4.867407
H    -0.706855  -2.948768  5.910293
H    0.650608  -1.816790  5.651370
