35
Energy: -21190.0248123 eV PBE+vdW (tier 2 basis)
C    0.117054  0.075219  0.130851
C    -0.115637  0.742636  1.477555
O    0.516269  1.742779  1.812357
H    -0.548773  -0.771470  -0.077631
H    1.156204  -0.275271  0.092036
H    -0.001977  0.827882  -0.657994
N    -1.079529  0.149945  2.247255
C    -1.481608  0.414491  3.636895
C    -2.820216  1.164254  3.823687
O    -3.501840  0.878809  4.812538
H    -1.527882  -0.659663  1.835477
H    -1.751962  -0.578518  4.021710
C    -0.366348  0.916129  4.592883
C    -0.131544  2.419300  4.796590
C    -1.201933  3.173880  5.612192
N    -1.633134  2.529709  6.851553
C    -0.759982  2.240326  7.888094
N    0.212126  3.225551  8.108733
N    -0.883458  1.126601  8.529783
H    0.570654  0.455902  4.252719
H    -0.583755  0.466201  5.572007
H    0.013590  2.921954  3.831151
H    0.824426  2.513130  5.333219
H    -2.111812  3.334462  5.021612
H    -0.816538  4.181436  5.830686
H    -2.293734  1.766538  6.710679
H    -0.096772  4.182745  7.961072
H    0.711857  3.115395  8.983807
H    -0.278005  1.104265  9.355110
N    -3.258282  2.090758  2.925300
C    -2.567317  2.760770  1.832935
H    -4.174490  2.447325  3.182125
H    -2.965076  3.778922  1.745610
H    -2.718098  2.249520  0.869999
H    -1.491498  2.836624  2.022291
