35
Energy: -21190.3918838 eV PBE+vdW (tier 2 basis)
C    -0.783403  -1.172449  0.592375
C    -0.338126  -0.673609  1.951102
O    0.633319  -1.154327  2.527345
H    -0.512181  -2.230410  0.519314
H    -0.226908  -0.631402  -0.186391
H    -1.855266  -1.052744  0.398104
N    -1.062263  0.338012  2.559124
C    -2.152715  1.170154  2.040612
C    -3.507053  0.421500  1.918999
O    -4.419694  0.866851  1.226527
H    -0.602604  0.660632  3.405662
H    -2.330880  1.913973  2.835442
C    -1.834906  1.950780  0.754547
C    -0.599165  2.839657  0.875183
C    -0.138261  3.435058  -0.465056
N    0.199104  2.452889  -1.491249
C    1.300492  1.629060  -1.342261
N    1.326458  0.596610  -2.299385
N    2.141509  1.817484  -0.385082
H    -2.728954  2.538318  0.505228
H    -1.706701  1.235677  -0.070329
H    0.246158  2.274861  1.291221
H    -0.799421  3.673398  1.568395
H    0.753514  4.051510  -0.294366
H    -0.916915  4.084891  -0.891123
H    -0.587257  2.027841  -1.969698
H    2.209629  0.097215  -2.324071
H    1.036605  0.876890  -3.233828
H    2.944822  1.190196  -0.463071
N    -3.606226  -0.706433  2.672276
C    -4.805793  -1.517016  2.719559
H    -2.776382  -0.994662  3.179638
H    -5.180571  -1.609578  3.748287
H    -4.623751  -2.524237  2.318217
H    -5.565930  -1.021731  2.105737
