35
Energy: -21190.1892726 eV PBE+vdW (tier 2 basis)
C    0.241423  0.957083  2.344085
C    -0.117462  -0.141089  3.323743
O    0.468631  -0.301798  4.390850
H    -0.597628  1.647423  2.178467
H    0.523231  0.543052  1.365349
H    1.089167  1.511861  2.753323
N    -1.139653  -0.992095  2.959920
C    -2.107537  -0.803615  1.893124
C    -3.138342  0.336274  2.081177
O    -3.479157  0.989624  1.095042
H    -1.331832  -1.698178  3.665628
H    -1.573090  -0.481352  0.989078
C    -2.836319  -2.125303  1.581597
C    -1.916956  -3.228459  1.041985
C    -1.408136  -2.950791  -0.384003
N    -0.362195  -3.842583  -0.845799
C    0.958825  -3.687996  -0.436181
N    1.780435  -4.714993  -0.912635
N    1.468774  -2.755004  0.291754
H    -3.632108  -1.902678  0.855083
H    -3.344708  -2.479305  2.493175
H    -2.463792  -4.183707  1.044770
H    -1.055357  -3.364818  1.712258
H    -1.019015  -1.925175  -0.465318
H    -2.245262  -3.009256  -1.095467
H    -0.640629  -4.802162  -1.026062
H    2.754560  -4.520575  -0.698840
H    1.643303  -4.948003  -1.892808
H    0.752117  -2.160358  0.713409
N    -3.661445  0.599871  3.314520
C    -3.484695  -0.082319  4.589717
H    -4.313998  1.377316  3.290032
H    -3.617968  -1.168634  4.495897
H    -4.261525  0.277369  5.273438
H    -2.506374  0.117543  5.047573
