35
Energy: -21190.8113599 eV PBE+vdW (tier 2 basis)
C    -1.125858  -0.107130  0.260780
C    -0.720755  -0.410803  1.688308
O    -0.222602  -1.502230  2.008248
H    -1.561608  0.892247  0.144945
H    -1.847434  -0.863855  -0.072193
H    -0.241166  -0.200108  -0.382603
N    -0.933712  0.592821  2.579080
C    -0.569958  0.457878  3.988529
C    -1.707176  -0.243099  4.778463
O    -2.438774  0.354541  5.567441
H    -1.488573  1.415009  2.276517
H    0.305169  -0.211265  4.011293
C    -0.204108  1.804625  4.611588
C    1.044775  2.465083  3.985800
C    0.802474  3.857277  3.387427
N    -0.113014  3.839270  2.238719
C    -1.487011  3.950313  2.368043
N    -1.910952  4.974860  3.196427
N    -2.243585  3.097820  1.745507
H    -0.047071  1.635930  5.684316
H    -1.077262  2.469844  4.559497
H    1.457447  1.818721  3.193898
H    1.842423  2.556955  4.738206
H    1.757732  4.294326  3.060240
H    0.386362  4.530097  4.148299
H    0.103053  3.101873  1.570896
H    -2.910859  5.123314  3.246123
H    -1.358801  5.825677  3.200568
H    -3.230057  3.365074  1.771503
N    -1.795954  -1.570233  4.492908
C    -2.853053  -2.411506  5.015095
H    -1.192641  -1.913614  3.739539
H    -3.591600  -2.665550  4.239186
H    -3.361127  -1.862151  5.814998
H    -2.440727  -3.344014  5.423409
