35
Energy: -21189.7959076 eV PBE+vdW (tier 2 basis)
C    -0.796699  -2.515303  0.433022
C    -0.645917  -1.800562  1.762010
O    0.276346  -2.056361  2.530845
H    -1.791540  -2.966378  0.322764
H    -0.633449  -1.828508  -0.408557
H    -0.039353  -3.302189  0.391520
N    -1.565216  -0.831201  2.094274
C    -2.762366  -0.365891  1.391790
C    -3.831205  -1.502945  1.350758
O    -4.208366  -1.951690  2.430369
H    -1.449609  -0.515690  3.051976
H    -3.235798  0.321036  2.109441
C    -2.476737  0.481703  0.139186
C    -1.689340  1.773715  0.411358
C    -0.178243  1.595251  0.584386
N    0.478451  2.889123  0.619594
C    1.828093  2.997738  0.954433
N    2.309446  4.299471  0.761771
N    2.622684  2.083311  1.385198
H    -3.448447  0.763448  -0.291823
H    -1.954347  -0.098199  -0.633542
H    -2.098334  2.293113  1.292601
H    -1.857602  2.449484  -0.443805
H    0.212181  0.952101  -0.230719
H    0.042306  1.076019  1.524913
H    0.190142  3.533123  -0.112773
H    3.252433  4.385581  1.130872
H    1.696529  5.029786  1.115592
H    2.196377  1.154411  1.360490
N    -4.376726  -1.989503  0.190875
C    -4.106745  -1.753456  -1.220099
H    -5.082862  -2.688548  0.403716
H    -4.630224  -2.527751  -1.791168
H    -3.040167  -1.835738  -1.460341
H    -4.473012  -0.777042  -1.567341
