35
Energy: -21190.4478096 eV PBE+vdW (tier 2 basis)
C    -1.216532  -1.719626  0.507007
C    -0.989682  -1.125963  1.893259
O    -0.180216  -1.632917  2.670205
H    -0.832959  -1.047791  -0.274441
H    -2.278050  -1.913218  0.295753
H    -0.666580  -2.663076  0.456867
N    -1.717034  -0.023110  2.243681
C    -2.655299  0.711168  1.413307
C    -1.929072  1.809352  0.599358
O    -1.368796  2.758674  1.138593
H    -1.503129  0.386655  3.175073
H    -3.133243  0.003428  0.716453
C    -3.762858  1.382049  2.243678
C    -4.614918  0.438617  3.106045
C    -4.037476  0.072628  4.483705
N    -3.791157  1.233479  5.335787
C    -2.521452  1.734234  5.528868
N    -2.469609  2.717680  6.524870
N    -1.519342  1.278448  4.854658
H    -4.418767  1.906111  1.531999
H    -3.306858  2.166602  2.863194
H    -4.812618  -0.500141  2.561899
H    -5.596321  0.912126  3.265014
H    -3.099131  -0.486070  4.383669
H    -4.751098  -0.582295  5.004070
H    -4.432321  1.372616  6.106399
H    -1.599300  3.238585  6.535718
H    -3.273647  3.339383  6.556129
H    -0.658327  1.792364  5.044315
N    -1.969946  1.632464  -0.756626
C    -1.329075  2.541349  -1.687307
H    -2.428427  0.804332  -1.115981
H    -2.054399  2.964727  -2.396043
H    -0.530037  2.040370  -2.252181
H    -0.889686  3.353162  -1.097519
