35
Energy: -21190.5602152 eV PBE+vdW (tier 2 basis)
C    0.348311  1.319806  0.416133
C    1.085412  0.993576  1.692207
O    2.318006  0.857629  1.727341
H    0.657475  0.613785  -0.363581
H    0.645452  2.330932  0.105493
H    -0.742662  1.290079  0.524663
N    0.323538  0.861721  2.812675
C    0.886667  0.634042  4.142580
C    1.157517  -0.886781  4.368356
O    0.538659  -1.553604  5.196519
H    -0.680635  0.974013  2.738133
H    1.869605  1.132736  4.147123
C    -0.007646  1.203119  5.245994
C    0.228916  2.662212  5.656750
C    -0.140143  3.755233  4.647878
N    0.849189  3.907528  3.594370
C    0.622505  4.357101  2.311340
N    -0.698649  4.741920  2.053405
N    1.474947  4.390190  1.340906
H    0.133137  0.561027  6.125609
H    -1.065469  1.059969  4.967938
H    1.279937  2.796405  5.966798
H    -0.364471  2.850453  6.564312
H    -0.282328  4.704665  5.199377
H    -1.106142  3.509307  4.180689
H    1.813022  3.697968  3.820458
H    -0.754365  5.173317  1.134887
H    -1.140761  5.313072  2.768549
H    2.358293  3.941504  1.598382
N    2.142460  -1.366128  3.567746
C    2.515441  -2.766120  3.539196
H    2.532542  -0.714761  2.878519
H    2.171133  -3.258766  2.617247
H    2.049188  -3.262702  4.396699
H    3.605917  -2.875444  3.607309
