35
Energy: -21190.0657522 eV PBE+vdW (tier 2 basis)
C    1.263956  0.265821  0.591030
C    0.623344  0.455617  1.955059
O    1.208149  0.994847  2.888690
H    0.579343  -0.117707  -0.175934
H    2.105031  -0.432065  0.692962
H    1.675768  1.226106  0.259097
N    -0.661597  -0.009748  2.068583
C    -1.412215  -0.011079  3.323992
C    -1.408422  1.361794  4.050395
O    -1.197070  1.437881  5.255095
H    -1.074369  -0.472051  1.268481
H    -2.461835  -0.201387  3.037714
C    -0.959656  -1.115866  4.288140
C    -1.099994  -2.520777  3.704509
C    -0.640255  -3.600591  4.680741
N    -0.753566  -4.922861  4.063518
C    -0.488391  -6.108542  4.747220
N    0.443385  -5.985310  5.773237
N    -1.016344  -7.263090  4.515290
H    -1.548104  -1.017239  5.209907
H    0.083088  -0.915643  4.572003
H    -0.510904  -2.614824  2.778337
H    -2.154678  -2.708259  3.430893
H    -1.219620  -3.536437  5.619750
H    0.410874  -3.407033  4.944759
H    -1.553710  -5.015359  3.445079
H    0.742519  -6.896539  6.105915
H    1.214617  -5.346172  5.609559
H    -1.772865  -7.196703  3.829029
N    -1.747120  2.472682  3.326086
C    -2.081294  2.614605  1.921956
H    -1.680282  3.320701  3.879719
H    -2.656073  3.539881  1.794500
H    -2.715666  1.788621  1.576365
H    -1.194178  2.667055  1.271685
