35
Energy: -21190.3797815 eV PBE+vdW (tier 2 basis)
C    -0.532976  -0.917676  -0.168532
C    -0.332745  -0.404446  1.241181
O    0.772812  -0.026805  1.648064
H    0.125024  -1.780675  -0.329004
H    -0.223864  -0.135791  -0.873305
H    -1.567139  -1.208525  -0.389316
N    -1.444112  -0.381969  2.030144
C    -1.426550  0.147209  3.397752
C    -0.947421  -0.945618  4.393453
O    -1.705693  -1.559749  5.144744
H    -2.310006  -0.760204  1.664957
H    -0.645658  0.922585  3.383331
C    -2.747830  0.841171  3.769093
C    -4.002275  0.010798  4.097449
C    -4.409761  -1.043367  3.059529
N    -5.685302  -1.682858  3.355022
C    -6.885645  -1.412609  2.720788
N    -6.922448  -0.178608  2.061671
N    -7.923043  -2.178860  2.667812
H    -2.969577  1.537626  2.943735
H    -2.536496  1.473318  4.643818
H    -4.837576  0.718920  4.223608
H    -3.867535  -0.495178  5.060090
H    -3.644195  -1.833924  3.027458
H    -4.481898  -0.598226  2.052916
H    -5.648405  -2.573859  3.832645
H    -7.861893  -0.002046  1.716899
H    -6.558631  0.608209  2.593182
H    -7.722424  -3.107283  3.049868
N    0.395520  -1.145969  4.329476
C    1.062788  -2.192240  5.078779
H    0.891153  -0.671843  3.569658
H    1.973998  -1.803654  5.551566
H    1.336135  -3.041787  4.434570
H    0.376731  -2.548191  5.854425
