35
Energy: -21190.2252433 eV PBE+vdW (tier 2 basis)
C    -1.082758  1.588600  0.230607
C    -0.647146  1.165270  1.612643
O    0.396752  1.554672  2.142770
H    -0.349896  2.297991  -0.161959
H    -2.076769  2.056670  0.248905
H    -1.130910  0.714743  -0.433950
N    -1.493603  0.330353  2.305898
C    -2.501756  -0.555659  1.739895
C    -3.818513  0.105266  1.280422
O    -4.404363  -0.359681  0.303820
H    -1.106879  0.072774  3.209380
H    -2.107796  -1.005015  0.817397
C    -2.861691  -1.680757  2.739920
C    -1.698403  -2.467040  3.363084
C    -0.951000  -3.475230  2.465908
N    -0.366824  -2.995521  1.224555
C    0.519147  -1.941030  1.079331
N    1.371888  -1.694321  2.148960
N    0.521565  -1.308740  -0.048452
H    -3.543240  -2.365244  2.214366
H    -3.448688  -1.241242  3.562447
H    -2.103562  -3.046486  4.207881
H    -0.972133  -1.777813  3.822832
H    -1.644414  -4.278351  2.179810
H    -0.177017  -3.968945  3.079866
H    -0.919066  -3.115239  0.382774
H    1.187242  -2.170716  3.024057
H    1.622840  -0.716499  2.268655
H    1.294348  -0.639862  -0.088769
N    -4.337412  1.165931  1.970075
C    -3.882382  1.832834  3.182119
H    -5.206235  1.492323  1.558392
H    -3.601308  1.116851  3.964163
H    -4.715021  2.432163  3.568476
H    -3.027233  2.498854  3.004488
