35
Energy: -21190.4564895 eV PBE+vdW (tier 2 basis)
C    -1.903141  -1.987134  2.373058
C    -0.647057  -1.399960  1.756569
O    -0.183082  -1.809817  0.698355
H    -1.795618  -3.076875  2.427375
H    -2.750805  -1.776325  1.708283
H    -2.131756  -1.597061  3.372959
N    -0.058145  -0.386141  2.481760
C    1.045851  0.406467  1.956499
C    2.355727  0.273892  2.769337
O    3.278700  1.068787  2.603164
H    -0.566895  -0.019534  3.278952
H    1.263037  -0.035760  0.970893
C    0.681957  1.886320  1.772863
C    0.240314  2.587681  3.060609
C    0.213404  4.112498  2.901064
N    -0.239917  4.805911  4.097144
C    0.624094  5.068687  5.158738
N    0.015131  5.854582  6.144904
N    1.846643  4.697459  5.308022
H    -0.100810  1.963393  1.003245
H    1.580982  2.379684  1.378270
H    0.926135  2.329950  3.882291
H    -0.766107  2.262358  3.370601
H    -0.472740  4.385029  2.086630
H    1.215716  4.464297  2.594068
H    -0.935580  5.528170  3.946201
H    0.614805  5.930602  6.961533
H    -0.929699  5.570060  6.389417
H    2.222015  4.247041  4.470025
N    2.405323  -0.775993  3.631486
C    3.590291  -1.103030  4.399243
H    1.602092  -1.393909  3.652511
H    3.348465  -1.212622  5.464819
H    4.302798  -0.280458  4.275611
H    4.057872  -2.032248  4.042502
