35
Energy: -21190.527054 eV PBE+vdW (tier 2 basis)
C    -1.100595  -1.741051  0.530162
C    -0.803319  -1.420636  1.983535
O    0.265317  -1.695627  2.515412
H    -2.140926  -1.552717  0.236590
H    -0.858323  -2.793784  0.343555
H    -0.438998  -1.136881  -0.104155
N    -1.827876  -0.805771  2.672359
C    -1.642582  -0.262000  4.014187
C    -1.990541  -1.262472  5.137730
O    -1.708487  -1.008760  6.315741
H    -2.628523  -0.477004  2.142603
H    -0.568241  -0.057697  4.135762
C    -2.450556  1.049637  4.130061
C    -2.192159  1.890082  5.399768
C    -3.422177  2.068280  6.302409
N    -4.009138  0.815841  6.745418
C    -5.191855  0.307465  6.233583
N    -5.427079  -1.008254  6.658241
N    -6.057398  0.858075  5.447868
H    -3.521950  0.803825  4.050976
H    -2.200022  1.645453  3.240385
H    -1.833720  2.890958  5.117540
H    -1.390066  1.429166  5.990880
H    -4.196846  2.649511  5.782074
H    -3.134997  2.667095  7.181639
H    -3.317743  0.106511  6.995946
H    -6.391990  -1.269897  6.477592
H    -5.153118  -1.193557  7.619531
H    -5.748141  1.776778  5.124419
N    -2.622098  -2.389171  4.746578
C    -3.035564  -3.428209  5.667469
H    -2.786028  -2.500132  3.752328
H    -2.752763  -4.414742  5.278996
H    -4.120378  -3.393618  5.839211
H    -2.526119  -3.255694  6.621608
