35
Energy: -21189.9785608 eV PBE+vdW (tier 2 basis)
C    -0.926363  -0.502142  0.893816
C    -1.334503  -0.354747  2.343680
O    -0.824826  -1.048190  3.221444
H    0.003116  0.061303  0.726421
H    -1.662594  -0.153895  0.164238
H    -0.706126  -1.560024  0.719007
N    -2.292491  0.573977  2.704530
C    -3.061183  1.566237  1.953127
C    -3.664004  1.021887  0.637943
O    -3.492337  1.578089  -0.446957
H    -2.418895  0.581743  3.713244
H    -3.950135  1.753445  2.580910
C    -2.367389  2.945054  1.813260
C    -0.893900  2.966269  1.388926
C    -0.644979  2.889292  -0.117390
N    0.765909  2.610848  -0.375655
C    1.297234  2.470884  -1.657258
N    0.370384  2.141470  -2.637618
N    2.535346  2.619756  -1.991902
H    -2.437301  3.416934  2.804449
H    -2.974142  3.559692  1.132397
H    -0.353888  2.150523  1.892881
H    -0.444580  3.896446  1.772433
H    -1.264190  2.093363  -0.546195
H    -0.980572  3.826298  -0.599118
H    1.410579  3.075707  0.256467
H    -0.433527  1.590324  -2.358365
H    0.820306  1.820392  -3.487953
H    3.096523  2.955104  -1.204694
N    -4.454736  -0.086550  0.736509
C    -4.838965  -0.855530  1.910228
H    -4.820899  -0.383830  -0.162512
H    -5.740470  -1.428224  1.665306
H    -5.086003  -0.199461  2.755015
H    -4.055854  -1.554863  2.234447
