35
Energy: -21190.240293 eV PBE+vdW (tier 2 basis)
C    0.185172  -1.341124  0.072192
C    0.460075  -1.582798  1.549794
O    1.349098  -2.342619  1.920736
H    0.416379  -0.303694  -0.211920
H    -0.861907  -1.540984  -0.196203
H    0.832535  -2.011178  -0.499272
N    -0.341918  -0.935829  2.461888
C    -1.235472  0.164242  2.174831
C    -0.502703  1.522696  2.285509
O    0.445942  1.708678  3.050964
H    0.001612  -1.009723  3.427602
H    -1.561304  0.057124  1.132948
C    -2.534100  0.106713  3.035979
C    -2.363042  -0.236110  4.521661
C    -1.728201  0.871435  5.389802
N    -1.049371  0.392213  6.588692
C    0.073310  -0.434419  6.539227
N    0.782387  -0.384150  5.339196
N    0.481392  -1.223705  7.474385
H    -3.175546  -0.662056  2.581539
H    -3.073267  1.062019  2.927521
H    -1.757587  -1.148350  4.612695
H    -3.351357  -0.497421  4.929400
H    -2.496715  1.587134  5.714839
H    -1.012131  1.457274  4.802369
H    -1.650071  0.187187  7.379315
H    1.674814  -0.861912  5.423432
H    0.848152  0.510524  4.852322
H    -0.180647  -1.251225  8.254692
N    -0.962584  2.531198  1.489496
C    -1.978545  2.467795  0.449520
H    -0.443891  3.397546  1.597863
H    -2.960971  2.175114  0.844915
H    -1.703871  1.774579  -0.360065
H    -2.083903  3.465543  0.011281
