35
Energy: -21190.3639471 eV PBE+vdW (tier 2 basis)
C    -0.076882  0.282220  -0.220842
C    -0.075639  0.203418  1.290254
O    0.924314  -0.151272  1.922755
H    0.114033  -0.720504  -0.623781
H    0.749806  0.927056  -0.542263
H    -1.014656  0.663473  -0.642446
N    -1.239143  0.551983  1.911295
C    -1.416899  0.381545  3.357094
C    -2.911847  0.231398  3.686821
O    -3.345093  -0.732968  4.304385
H    -2.062221  0.709271  1.340895
H    -0.963324  -0.576825  3.642237
C    -0.751536  1.516900  4.178458
C    -0.396051  1.086536  5.617022
C    1.068540  0.675541  5.799831
N    1.454724  -0.389176  4.894400
C    2.704880  -0.992909  4.996298
N    3.027241  -1.743040  3.868496
N    3.515067  -0.987036  6.002659
H    -1.418316  2.392317  4.194757
H    0.154552  1.839649  3.645889
H    -1.052825  0.260999  5.931042
H    -0.591998  1.918043  6.308141
H    1.201557  0.327827  6.835237
H    1.716073  1.569436  5.681990
H    1.154173  -0.263298  3.925452
H    4.003972  -2.013490  3.856693
H    2.673551  -1.400996  2.979448
H    3.132299  -0.458747  6.788694
N    -3.713971  1.243330  3.220303
C    -5.136710  1.286791  3.516936
H    -3.270302  2.100934  2.909088
H    -5.677299  1.759631  2.688580
H    -5.348548  1.837538  4.445917
H    -5.489753  0.258429  3.643333
