35
Energy: -21189.9370886 eV PBE+vdW (tier 2 basis)
C    0.578289  -0.505054  0.136505
C    0.241605  -0.093476  1.549197
O    0.928182  0.714257  2.182915
H    0.792156  0.397337  -0.447409
H    -0.219462  -1.075791  -0.354775
H    1.494816  -1.118613  0.157220
N    -0.841698  -0.712367  2.111350
C    -1.385731  -0.347576  3.423316
C    -1.600051  1.196459  3.467797
O    -2.412067  1.656672  2.665700
H    -1.445670  -1.238377  1.492778
H    -2.434547  -0.674016  3.383559
C    -0.759631  -1.111012  4.618230
C    0.754965  -1.371062  4.601881
C    1.159098  -2.590821  3.751589
N    2.368850  -2.296490  2.978655
C    2.821715  -3.150336  1.984931
N    2.715374  -4.506088  2.301743
N    3.255655  -2.649871  0.874927
H    -1.274529  -2.083284  4.683727
H    -1.047989  -0.578741  5.535918
H    1.106483  -1.510331  5.633618
H    1.274924  -0.486954  4.217478
H    0.328968  -2.872384  3.080834
H    1.336974  -3.455939  4.408381
H    2.412616  -1.332350  2.651794
H    3.224146  -5.121260  1.677255
H    2.848287  -4.745043  3.280333
H    3.687590  -3.365170  0.283846
N    -1.051434  2.003139  4.428114
C    0.219749  1.885547  5.134006
H    -1.379340  2.955047  4.286430
H    0.433240  2.855907  5.594921
H    1.036287  1.636553  4.444400
H    0.181232  1.142845  5.940863
