35
Energy: -21190.805037 eV PBE+vdW (tier 2 basis)
C    0.855847  1.623055  -0.292179
C    0.101042  2.006966  0.960193
O    -0.885248  2.759556  0.939528
H    0.968494  2.510810  -0.924653
H    0.258493  0.892946  -0.855720
H    1.839225  1.187082  -0.072820
N    0.573379  1.451649  2.112605
C    -0.064961  1.727428  3.399966
C    0.448753  3.081600  3.957374
O    1.343897  3.199906  4.807529
H    1.477547  0.973674  2.060541
H    -1.121362  1.893852  3.141229
C    -0.057074  0.529420  4.367996
C    1.166571  0.138826  5.218433
C    2.483520  -0.168833  4.495911
N    3.196643  1.044223  4.123959
C    3.532245  1.351761  2.825313
N    3.804435  2.695580  2.631208
N    3.617651  0.541148  1.807873
H    -0.364965  -0.339957  3.764767
H    -0.883005  0.705958  5.073742
H    0.876470  -0.766739  5.773340
H    1.353998  0.910986  5.977791
H    2.294922  -0.771030  3.592342
H    3.117035  -0.788789  5.150869
H    2.929250  1.851856  4.687458
H    3.929713  2.937653  1.655364
H    3.261035  3.358506  3.177126
H    3.569119  -0.435626  2.106239
N    -0.171773  4.138049  3.379967
C    0.233714  5.507974  3.628834
H    -0.744660  3.921746  2.556234
H    -0.637331  6.169631  3.558202
H    0.992961  5.850095  2.907545
H    0.660200  5.573954  4.635104
