35
Energy: -21190.2796493 eV PBE+vdW (tier 2 basis)
C    0.122394  -0.071641  0.234339
C    0.018561  0.628033  1.581297
O    0.976210  1.220019  2.073112
H    -0.549725  0.384861  -0.506829
H    -0.125100  -1.139168  0.295910
H    1.152341  0.037510  -0.114895
N    -1.185644  0.574912  2.236632
C    -2.445991  0.027929  1.779201
C    -3.545922  1.081566  2.004135
O    -3.461161  1.894679  2.923424
H    -1.254601  1.176521  3.057380
H    -2.363848  -0.206025  0.709878
C    -2.852124  -1.259298  2.535234
C    -1.998343  -2.472954  2.174160
C    -2.506693  -3.785869  2.790836
N    -3.914589  -4.102015  2.510855
C    -4.441817  -4.107231  1.219551
N    -3.581116  -4.617158  0.252273
N    -5.611231  -3.690053  0.862091
H    -3.906263  -1.473289  2.303870
H    -2.803902  -1.048252  3.615393
H    -0.957367  -2.317159  2.496513
H    -1.980336  -2.591154  1.079886
H    -2.413317  -3.757548  3.885684
H    -1.866875  -4.616528  2.457058
H    -4.562540  -3.692626  3.175266
H    -4.066142  -4.775965  -0.625322
H    -3.012033  -5.406987  0.541050
H    -6.093539  -3.230815  1.639945
N    -4.630818  1.028430  1.179999
C    -4.852419  0.155313  0.034161
H    -5.344386  1.714168  1.405880
H    -5.795544  0.446913  -0.439128
H    -4.937147  -0.905960  0.312349
H    -4.059276  0.260210  -0.720390
