35
Energy: -21190.2356326 eV PBE+vdW (tier 2 basis)
C    0.081487  -0.036867  0.629110
C    -0.161560  -0.639062  1.999201
O    0.752441  -1.071725  2.702570
H    1.132763  -0.186546  0.370980
H    -0.138758  1.040294  0.628232
H    -0.555370  -0.491913  -0.141936
N    -1.457550  -0.673827  2.444594
C    -2.647283  -0.188279  1.764990
C    -2.748756  1.342848  1.578386
O    -3.241911  1.783978  0.539028
H    -1.568957  -1.101439  3.367793
H    -2.668428  -0.569115  0.731924
C    -3.910338  -0.684984  2.494456
C    -3.974402  -2.213220  2.622513
C    -4.740829  -2.723029  3.862323
N    -4.525008  -1.996884  5.118460
C    -3.313895  -1.562663  5.635340
N    -2.188887  -2.246397  5.167585
N    -3.135933  -0.581794  6.456550
H    -4.785308  -0.294615  1.957715
H    -3.930135  -0.226791  3.494064
H    -2.953772  -2.615061  2.644613
H    -4.449323  -2.652452  1.732653
H    -4.517893  -3.794538  3.999697
H    -5.822739  -2.667455  3.682414
H    -5.302200  -1.421316  5.416227
H    -1.369901  -2.024104  5.727825
H    -2.299298  -3.246232  5.023351
H    -4.009442  -0.080634  6.639589
N    -2.320177  2.180919  2.566905
C    -1.755390  1.908334  3.885711
H    -2.440266  3.155375  2.308151
H    -1.800671  2.837746  4.464758
H    -0.706845  1.584551  3.836976
H    -2.323967  1.153584  4.442814
