35
Energy: -21190.2315937 eV PBE+vdW (tier 2 basis)
C    -0.685609  -0.611405  -0.185954
C    -0.536928  -0.617080  1.320397
O    0.558256  -0.887488  1.837627
H    -1.455067  -1.321258  -0.513352
H    0.282707  -0.887605  -0.610697
H    -0.970525  0.379646  -0.564881
N    -1.613106  -0.355954  2.124089
C    -2.905020  0.293508  1.883679
C    -3.476846  0.037296  0.474232
O    -3.825205  -1.090472  0.136856
H    -1.345719  -0.339964  3.117730
H    -3.627797  -0.245088  2.517339
C    -2.881559  1.756787  2.400481
C    -1.720742  2.639410  1.905393
C    -1.070306  3.497497  3.014899
N    -0.666536  2.769558  4.219229
C    0.043450  1.569334  4.155679
N    1.172001  1.568604  3.365518
N    -0.388606  0.564913  4.854648
H    -2.808853  1.669732  3.494013
H    -3.859032  2.224105  2.208098
H    -2.039546  3.327206  1.104600
H    -0.937542  2.003939  1.468674
H    -1.766254  4.279525  3.349190
H    -0.206541  4.032899  2.589066
H    -1.399312  2.675534  4.916724
H    1.384706  2.406295  2.836875
H    1.346467  0.687897  2.876331
H    0.307096  -0.187358  4.858745
N    -3.614257  1.130078  -0.330352
C    -4.143249  1.039511  -1.677736
H    -3.260637  2.020320  -0.003564
H    -3.348444  1.139834  -2.432206
H    -4.898546  1.816746  -1.851087
H    -4.604621  0.052731  -1.788039
