35
Energy: -21189.9961356 eV PBE+vdW (tier 2 basis)
C    0.497623  1.322219  0.157192
C    0.310694  1.036441  1.633164
O    1.128847  1.394685  2.480189
H    -0.152041  0.722908  -0.492431
H    1.544596  1.144718  -0.110982
H    0.283893  2.385454  -0.018032
N    -0.832459  0.360434  1.963159
C    -1.281708  0.213656  3.350844
C    -1.227747  1.609417  4.045436
O    -1.935781  2.486515  3.549543
H    -1.532600  0.254805  1.239585
H    -2.371492  0.089497  3.276753
C    -0.762981  -1.071883  4.034848
C    0.675326  -1.507365  3.748698
C    1.118705  -2.694297  4.615449
N    1.150277  -2.408773  6.048888
C    2.264288  -1.977680  6.756593
N    3.297251  -1.478752  5.966984
N    2.419701  -2.015866  8.038170
H    -1.429101  -1.891190  3.715881
H    -0.923038  -0.972194  5.118604
H    1.363464  -0.662116  3.876710
H    0.768371  -1.801022  2.692127
H    2.111978  -3.039481  4.291636
H    0.428377  -3.538118  4.464670
H    0.458201  -2.872902  6.621642
H    4.014556  -1.048950  6.542436
H    3.031304  -0.907469  5.170917
H    1.657762  -2.525054  8.494112
N    -0.570375  1.839063  5.222139
C    0.651970  1.237295  5.745253
H    -0.728711  2.803095  5.504766
H    0.969616  1.827804  6.610841
H    1.453818  1.254123  4.994054
H    0.497084  0.210529  6.093408
