35
Energy: -21190.4061107 eV PBE+vdW (tier 2 basis)
C    -1.414871  1.027821  0.055721
C    -0.963778  0.825663  1.489061
O    -0.061796  1.484564  2.010344
H    -0.599009  1.478653  -0.516631
H    -2.274085  1.716190  0.048026
H    -1.731176  0.091890  -0.423019
N    -1.669861  -0.116695  2.178959
C    -1.536321  -0.317206  3.606407
C    -2.309647  -1.598438  3.939893
O    -3.195910  -2.017542  3.190509
H    -2.424547  -0.643269  1.744462
H    -0.466134  -0.438174  3.836773
C    -2.046913  0.883021  4.451567
C    -3.550822  1.187116  4.406492
C    -4.066920  1.658295  3.046097
N    -5.387697  2.265970  3.171672
C    -5.948889  2.862571  2.053981
N    -7.284634  3.242439  2.270512
N    -5.269579  2.993387  0.965579
H    -1.475348  1.759084  4.114253
H    -1.753460  0.712452  5.497851
H    -3.745605  1.986049  5.139429
H    -4.128560  0.309109  4.742652
H    -4.092137  0.829385  2.322589
H    -3.398253  2.419423  2.622701
H    -6.051089  1.734657  3.729432
H    -7.663210  3.831098  1.536138
H    -7.467746  3.630922  3.192642
H    -5.780445  3.553739  0.278829
N    -2.017412  -2.238188  5.107098
C    -1.008377  -1.918362  6.101663
H    -2.622353  -3.034758  5.283268
H    -0.665235  -2.845752  6.575495
H    -1.387992  -1.247639  6.887917
H    -0.137954  -1.444316  5.634570
