35
Energy: -21190.51992 eV PBE+vdW (tier 2 basis)
C    -0.256805  0.944127  0.139336
C    0.038918  1.001913  1.625835
O    1.140434  1.328928  2.062259
H    -1.035134  1.667139  -0.140842
H    -0.625783  -0.045471  -0.165569
H    0.663102  1.177434  -0.402651
N    -0.998861  0.692520  2.481950
C    -2.239264  0.018974  2.105487
C    -3.284903  0.944838  1.450384
O    -4.182464  0.476448  0.752659
H    -0.674330  0.565382  3.439092
H    -2.029715  -0.762465  1.361678
C    -2.909513  -0.647755  3.325538
C    -2.051006  -1.600929  4.167071
C    -1.480841  -2.845301  3.475489
N    -0.501400  -2.566299  2.423457
C    0.758477  -2.079848  2.746720
N    1.618755  -2.034352  1.641895
N    1.037343  -1.733663  3.956142
H    -3.795685  -1.170237  2.937565
H    -3.289300  0.147485  3.988245
H    -2.683563  -1.961355  4.993218
H    -1.215318  -1.075244  4.648652
H    -2.294428  -3.411952  2.999452
H    -1.033078  -3.487279  4.252872
H    -0.505965  -3.229567  1.656379
H    2.398231  -1.397326  1.777196
H    1.156990  -1.845308  0.755473
H    1.959444  -1.295122  4.008065
N    -3.149828  2.265870  1.744180
C    -4.061220  3.280413  1.256569
H    -2.343530  2.527185  2.303109
H    -3.538998  4.020503  0.633756
H    -4.555630  3.804374  2.086579
H    -4.822433  2.777530  0.650107
