35
Energy: -21190.239394 eV PBE+vdW (tier 2 basis)
C    -0.340298  -0.474763  0.491108
C    -0.210294  -0.231339  1.980327
O    0.717643  0.409429  2.466045
H    0.653692  -0.654717  0.068322
H    -0.741341  0.438392  0.029752
H    -1.003294  -1.311834  0.238805
N    -1.199738  -0.788851  2.757597
C    -1.422282  -0.358967  4.144006
C    -1.323226  1.190525  4.220694
O    -1.951830  1.876456  3.419251
H    -2.022981  -1.108077  2.259855
H    -2.496023  -0.530677  4.318178
C    -0.703271  -1.208094  5.212268
C    0.828540  -1.342484  5.223047
C    1.443586  -2.265426  4.139002
N    0.683079  -3.450943  3.786828
C    0.526867  -4.527576  4.645874
N    -0.407610  -5.458390  4.167705
N    1.108304  -4.744394  5.775720
H    -1.131781  -2.220779  5.161095
H    -1.030932  -0.822976  6.190725
H    1.098674  -1.727225  6.217506
H    1.326527  -0.367140  5.116291
H    2.444673  -2.580947  4.469001
H    1.592660  -1.692258  3.218584
H    -0.103203  -3.280477  3.167568
H    -0.392976  -6.295989  4.743389
H    -0.305708  -5.682164  3.180710
H    1.668766  -3.941936  6.069959
N    -0.620101  1.711961  5.260978
C    -0.431717  3.144758  5.401326
H    0.010883  1.098155  5.760515
H    -0.270560  3.394649  6.456444
H    -1.332695  3.651077  5.040374
H    0.423190  3.504860  4.808561
