35
Energy: -21189.9933494 eV PBE+vdW (tier 2 basis)
C    -0.487071  0.063804  -0.049585
C    -0.684969  0.444423  1.405745
O    -0.131577  1.434698  1.886862
H    0.565641  -0.211909  -0.194172
H    -0.681797  0.943924  -0.673777
H    -1.119159  -0.766544  -0.387689
N    -1.520238  -0.373235  2.111044
C    -1.779934  -0.414638  3.557755
C    -3.041234  0.310417  4.084802
O    -3.576820  -0.175212  5.084471
H    -1.921803  -1.142009  1.588568
H    -2.087423  -1.454119  3.725560
C    -0.511293  -0.203216  4.455292
C    -0.554898  0.877322  5.543638
C    -0.336841  2.324201  5.071656
N    0.941398  2.572301  4.409448
C    2.157476  2.368366  5.038223
N    2.174138  2.738849  6.391277
N    3.140758  1.856241  4.374678
H    0.349098  -0.023805  3.799768
H    -0.319613  -1.163369  4.950479
H    0.238597  0.642747  6.268615
H    -1.501379  0.817500  6.101382
H    -0.447530  2.993416  5.938438
H    -1.115338  2.630237  4.362007
H    0.962897  2.239597  3.446082
H    1.613539  3.554130  6.625004
H    3.106351  2.790718  6.786335
H    4.010965  1.899494  4.912858
N    -3.573476  1.418289  3.495403
C    -3.151116  2.226196  2.361529
H    -4.422951  1.703980  3.974045
H    -3.464059  1.791750  1.399415
H    -2.064797  2.365459  2.346017
H    -3.616625  3.213768  2.456935
