35
Energy: -21190.2377272 eV PBE+vdW (tier 2 basis)
C    -0.905767  -1.645859  0.339537
C    -0.680213  -0.743500  1.541448
O    0.340151  -0.073571  1.684729
H    0.033143  -2.159379  0.106660
H    -1.167964  -1.027664  -0.530230
H    -1.698264  -2.388904  0.495191
N    -1.722774  -0.701419  2.426166
C    -1.652963  -0.025925  3.717759
C    -1.100474  1.420731  3.658088
O    -0.261166  1.808397  4.464341
H    -2.484854  -1.373226  2.312772
H    -2.702957  0.080252  4.042894
C    -0.873690  -0.835579  4.776755
C    -1.234208  -2.323266  4.797264
C    -2.686985  -2.633750  5.206752
N    -3.215711  -3.881743  4.641487
C    -3.487916  -4.008437  3.283189
N    -4.034501  -2.849246  2.690141
N    -3.315140  -5.041947  2.536795
H    -1.041788  -0.370678  5.758576
H    0.197525  -0.718355  4.570117
H    -0.544805  -2.851819  5.472345
H    -1.059267  -2.748982  3.797770
H    -3.356038  -1.817439  4.905792
H    -2.779616  -2.700672  6.299507
H    -2.766131  -4.715187  5.010591
H    -4.402584  -3.101604  1.774608
H    -4.755511  -2.405732  3.257460
H    -2.795531  -5.777072  3.024263
N    -1.664751  2.290987  2.764236
C    -2.630509  2.052596  1.708423
H    -1.199080  3.192945  2.774197
H    -3.090731  3.010910  1.438107
H    -3.432584  1.385982  2.047081
H    -2.178306  1.616388  0.803988
