35
Energy: -21190.3690247 eV PBE+vdW (tier 2 basis)
C    -0.136938  -0.856748  -0.014215
C    -0.006044  -0.200702  1.343613
O    1.084147  0.107519  1.823750
H    -0.366066  -1.926853  0.115532
H    0.820171  -0.754968  -0.533063
H    -0.932133  -0.408623  -0.626658
N    -1.162426  0.024150  2.048666
C    -2.532738  -0.274669  1.685698
C    -3.420689  0.674327  2.512348
O    -3.059388  1.114345  3.603347
H    -1.051387  0.495110  2.946238
H    -2.689460  -0.053263  0.617238
C    -2.956063  -1.751279  1.933218
C    -2.624351  -2.266189  3.347662
C    -1.353429  -3.126639  3.437978
N    -1.515936  -4.502940  2.986930
C    -1.213638  -4.950881  1.723279
N    -1.441836  -6.331231  1.587451
N    -0.807537  -4.150471  0.792798
H    -2.459992  -2.383466  1.183918
H    -4.037113  -1.826535  1.739799
H    -3.469424  -2.857045  3.734228
H    -2.518036  -1.419773  4.043037
H    -1.016528  -3.161159  4.485150
H    -0.538002  -2.687833  2.851836
H    -2.157048  -5.083084  3.515487
H    -1.119065  -6.710321  0.703803
H    -1.128323  -6.895010  2.373903
H    -0.497226  -4.674072  -0.028411
N    -4.635998  0.947456  1.960747
C    -5.644085  1.748462  2.629598
H    -4.845043  0.560382  1.048381
H    -5.937856  2.608305  2.012579
H    -5.206525  2.114243  3.564207
H    -6.539283  1.154729  2.863556
