35
Energy: -21190.2061273 eV PBE+vdW (tier 2 basis)
C    0.353683  -2.260110  0.244166
C    -0.519223  -2.200901  1.486835
O    -1.209291  -3.147685  1.851138
H    1.083877  -3.069882  0.365683
H    0.890539  -1.327145  0.029643
H    -0.276276  -2.516415  -0.616561
N    -0.484272  -1.014105  2.170229
C    -1.228310  -0.789704  3.400123
C    -2.756930  -0.606211  3.259587
O    -3.484257  -1.011559  4.163098
H    0.105950  -0.268859  1.820630
H    -1.154273  -1.705959  4.003468
C    -0.636005  0.391605  4.182351
C    0.749462  0.110410  4.769271
C    1.338365  1.312868  5.517329
N    0.519301  1.752927  6.639680
C    -0.224364  2.915857  6.578117
N    -0.828174  3.223499  7.808025
N    -0.285192  3.607427  5.490939
H    -1.331235  0.630700  4.997829
H    -0.601403  1.291911  3.546169
H    1.460242  -0.175605  3.976709
H    0.682776  -0.754570  5.449120
H    1.443258  2.169380  4.836691
H    2.340541  1.058418  5.892227
H    0.823638  1.478114  7.565025
H    -1.522158  3.960509  7.743503
H    -1.190761  2.419555  8.315479
H    -0.934627  4.390265  5.588349
N    -3.284573  0.037735  2.174245
C    -2.638396  0.719110  1.065363
H    -4.297867  0.077241  2.217510
H    -3.380941  1.368629  0.587314
H    -2.252663  0.024629  0.304997
H    -1.817538  1.365206  1.403589
