35
Energy: -21190.0242934 eV PBE+vdW (tier 2 basis)
C    0.331078  0.496540  0.372586
C    0.011184  -0.371276  1.571121
O    0.904651  -0.882674  2.242019
H    -0.291278  1.395921  0.307769
H    0.194251  -0.088504  -0.547004
H    1.383205  0.785497  0.442041
N    -1.305014  -0.587570  1.920552
C    -2.589496  -0.303629  1.251888
C    -2.809755  -1.373656  0.147797
O    -3.211782  -2.486165  0.519870
H    -1.365026  -1.288773  2.654423
H    -3.325259  -0.626620  1.999717
C    -2.870927  1.198329  1.020799
C    -4.342903  1.615038  1.184597
C    -5.309922  1.202406  0.073407
N    -5.439711  -0.239346  -0.021416
C    -5.715719  -0.881899  -1.214815
N    -5.853071  -2.260833  -1.030956
N    -5.816284  -0.208776  -2.314192
H    -2.499713  1.559609  0.056063
H    -2.290644  1.729051  1.789709
H    -4.379431  2.712681  1.258035
H    -4.714836  1.243483  2.155782
H    -4.966181  1.553247  -0.907897
H    -6.289098  1.685999  0.242132
H    -5.764904  -0.726113  0.807083
H    -5.951420  -2.780279  -1.896388
H    -5.145566  -2.668395  -0.411660
H    -5.908778  -0.836381  -3.116301
N    -2.454651  -1.199687  -1.159056
C    -2.319106  -0.003372  -1.985021
H    -2.641663  -2.054695  -1.677224
H    -3.288966  0.481628  -2.169490
H    -1.908333  -0.316748  -2.951672
H    -1.614148  0.712347  -1.555571
