35
Energy: -21190.5441377 eV PBE+vdW (tier 2 basis)
C    -0.406544  -2.299870  -0.036792
C    -0.156963  -1.997019  1.425950
O    0.759594  -2.548804  2.046918
H    0.554877  -2.542578  -0.499968
H    -0.878628  -1.475627  -0.585528
H    -1.050973  -3.186433  -0.123408
N    -0.961723  -1.087184  2.045943
C    -2.228330  -0.545625  1.596776
C    -2.592638  0.576773  2.589020
O    -2.142247  0.592040  3.733786
H    -0.755226  -0.901285  3.028656
H    -2.112071  -0.101435  0.594245
C    -3.365562  -1.601500  1.528665
C    -3.680300  -2.316436  2.859232
C    -3.489897  -3.836625  2.784690
N    -2.106513  -4.195229  2.565598
C    -1.671355  -5.213237  1.724311
N    -0.301980  -5.423242  1.824129
N    -2.372379  -5.929344  0.906276
H    -3.075277  -2.344643  0.772909
H    -4.267259  -1.107824  1.136367
H    -4.716887  -2.112241  3.162998
H    -3.053808  -1.916115  3.670732
H    -4.079902  -4.233321  1.945676
H    -3.893330  -4.308076  3.698909
H    -1.454233  -3.935061  3.298339
H    0.029362  -6.060854  1.108254
H    0.277872  -4.587992  1.935015
H    -3.375179  -5.775931  1.028729
N    -3.469618  1.499951  2.112078
C    -3.997112  2.582283  2.923624
H    -3.767340  1.425251  1.146606
H    -3.742425  3.559570  2.491996
H    -3.542485  2.502866  3.916170
H    -5.088925  2.508882  3.022937
