35
Energy: -21189.7611911 eV PBE+vdW (tier 2 basis)
C    0.430236  0.142900  0.456154
C    0.003224  0.014143  1.905364
O    0.799525  -0.304026  2.784312
H    1.512428  -0.003214  0.412986
H    0.185390  1.128403  0.039688
H    -0.055930  -0.624726  -0.161474
N    -1.310916  0.264286  2.227743
C    -2.477667  0.561224  1.390040
C    -2.814175  -0.659475  0.480444
O    -3.143903  -1.701216  1.042179
H    -1.507551  0.028379  3.195364
H    -3.318293  0.514859  2.097644
C    -2.486544  1.996324  0.834090
C    -3.888099  2.473216  0.441152
C    -3.871801  3.868732  -0.195378
N    -5.190351  4.405161  -0.531563
C    -6.137326  4.727744  0.445261
N    -5.591168  5.262072  1.612066
N    -7.414407  4.583926  0.357271
H    -1.785853  2.119882  -0.002171
H    -2.102336  2.640066  1.639692
H    -4.528325  2.501126  1.336320
H    -4.368051  1.764832  -0.253872
H    -3.280581  3.857532  -1.124197
H    -3.358293  4.571587  0.475896
H    -5.621846  3.955458  -1.333400
H    -6.325593  5.615142  2.218584
H    -4.843502  5.936466  1.475117
H    -7.675745  4.051453  -0.477188
N    -2.773338  -0.622887  -0.891456
C    -2.364364  0.381859  -1.861811
H    -3.053302  -1.523794  -1.268969
H    -2.392409  -0.085909  -2.851717
H    -1.339529  0.735918  -1.696660
H    -3.039739  1.248170  -1.888257
