35
Energy: -21190.525636 eV PBE+vdW (tier 2 basis)
C    -3.267237  0.653273  -0.379774
C    -2.504593  0.976837  0.890083
O    -1.347667  0.569829  1.062986
H    -3.367849  -0.436807  -0.457672
H    -2.677109  0.988624  -1.241254
H    -4.265159  1.105371  -0.429140
N    -3.172620  1.733736  1.801312
C    -2.728575  2.099016  3.157478
C    -1.607889  3.168938  3.206970
O    -1.745483  4.164685  3.918263
H    -4.103048  2.038896  1.545961
H    -3.588859  2.608672  3.608689
C    -2.375883  0.887119  4.042046
C    -3.505303  -0.135568  4.163429
C    -3.146174  -1.263659  5.139425
N    -4.158260  -2.302213  5.269366
C    -5.291359  -2.088201  6.034080
N    -6.207916  -3.149307  5.926479
N    -5.434101  -1.005058  6.718450
H    -2.131519  1.293329  5.035751
H    -1.465672  0.402423  3.661926
H    -3.724056  -0.571293  3.175082
H    -4.426771  0.349640  4.518796
H    -2.987924  -0.845656  6.142118
H    -2.209003  -1.749403  4.827356
H    -4.300847  -2.887377  4.452646
H    -6.969430  -3.092945  6.594419
H    -5.784154  -4.074292  5.923137
H    -6.255875  -1.055664  7.324639
N    -0.505126  2.892417  2.467276
C    0.644879  3.772653  2.428335
H    -0.505793  2.015987  1.934247
H    1.531702  3.290217  2.864860
H    0.407940  4.668628  3.011955
H    0.880056  4.066325  1.395695
