35
Energy: -21190.1768474 eV PBE+vdW (tier 2 basis)
C    -0.129006  -0.917943  0.166413
C    -0.238946  -0.736446  1.669794
O    0.401993  -1.417093  2.463905
H    -0.531685  -1.904717  -0.096277
H    0.931177  -0.913901  -0.112410
H    -0.658554  -0.154177  -0.416603
N    -1.092441  0.255745  2.080129
C    -1.449776  0.498203  3.477492
C    -0.228958  0.422508  4.433811
O    -0.245280  -0.287259  5.439378
H    -1.635768  0.739044  1.374889
H    -1.807165  1.542281  3.518935
C    -2.576564  -0.424322  3.965525
C    -3.230770  0.050786  5.275798
C    -3.411318  -1.095081  6.289662
N    -3.750100  -0.683974  7.635603
C    -2.879902  -0.027443  8.494793
N    -1.527539  -0.247779  8.258802
N    -3.394901  0.642961  9.476097
H    -2.148304  -1.428712  4.094222
H    -3.322186  -0.495684  3.161167
H    -4.203157  0.525664  5.075607
H    -2.608478  0.823052  5.750161
H    -2.485980  -1.689244  6.318725
H    -4.195981  -1.784463  5.943970
H    -4.708991  -0.405381  7.814338
H    -0.916986  0.374880  8.772697
H    -1.201431  -0.412767  7.306516
H    -2.665430  1.018916  10.086361
N    0.819978  1.260665  4.195343
C    1.066211  2.133507  3.062935
H    1.588967  1.104064  4.839793
H    1.467724  1.595627  2.190160
H    1.792085  2.897840  3.364415
H    0.149641  2.653034  2.759171
