35
Energy: -21190.5025123 eV PBE+vdW (tier 2 basis)
C    -0.148130  0.374935  -0.045311
C    -0.124941  0.088891  1.445238
O    0.896605  -0.262605  2.031363
H    0.651970  1.086034  -0.282242
H    -1.104352  0.774571  -0.405534
H    0.069772  -0.557430  -0.581900
N    -1.320910  0.249279  2.091983
C    -1.484715  -0.082673  3.506340
C    -2.917107  -0.632611  3.685195
O    -3.161816  -1.817288  3.458551
H    -2.143079  0.502570  1.557368
H    -0.816423  -0.932833  3.703969
C    -1.075232  1.089584  4.409568
C    -1.046359  0.734595  5.899670
C    -0.909496  1.961303  6.812512
N    -2.001102  2.939148  6.657719
C    -3.321675  2.536701  6.838205
N    -3.561599  1.918063  8.053699
N    -4.177040  2.733258  5.884486
H    -1.749195  1.940394  4.218193
H    -0.075038  1.414009  4.086837
H    -0.209354  0.047649  6.099086
H    -1.961564  0.191512  6.184835
H    0.025326  2.500844  6.604462
H    -0.855818  1.641641  7.862004
H    -1.945273  3.449189  5.779215
H    -4.528902  1.711622  8.269122
H    -3.015166  2.237967  8.846455
H    -5.136089  2.561635  6.201752
N    -3.882967  0.268622  4.016833
C    -5.257538  -0.159216  4.201858
H    -3.653531  1.197760  4.376728
H    -5.907840  0.721815  4.171526
H    -5.402957  -0.681128  5.161330
H    -5.539783  -0.852828  3.401843
