35
Energy: -21190.2415091 eV PBE+vdW (tier 2 basis)
C    -0.452128  -0.807325  -0.262515
C    -0.007248  -0.575675  1.169172
O    1.160674  -0.735157  1.515948
H    -0.598835  0.153034  -0.776526
H    -1.388618  -1.374514  -0.333502
H    0.344058  -1.355366  -0.773194
N    -0.942812  -0.140482  2.079135
C    -2.385813  0.028184  1.933660
C    -3.078843  -1.328023  1.609880
O    -2.767721  -2.346760  2.218376
H    -0.567661  -0.107413  3.020876
H    -2.739437  0.250945  2.953120
C    -2.798374  1.211639  1.043193
C    -2.119705  2.533663  1.397680
C    -2.571961  3.698413  0.505969
N    -3.972501  4.071835  0.636888
C    -4.961561  3.603413  -0.200625
N    -6.224067  4.117804  0.138183
N    -4.702423  2.758646  -1.144112
H    -3.886676  1.343880  1.133653
H    -2.607254  0.995473  -0.017812
H    -1.028013  2.432314  1.301797
H    -2.308231  2.784050  2.456457
H    -2.417029  3.445695  -0.550979
H    -1.960492  4.585563  0.730227
H    -4.278918  4.411215  1.541328
H    -6.948640  3.893583  -0.535162
H    -6.234053  5.104397  0.385542
H    -5.515388  2.630380  -1.750491
N    -4.050882  -1.290958  0.653037
C    -4.806812  -2.467868  0.269745
H    -4.217862  -0.422059  0.158681
H    -5.885976  -2.300267  0.390229
H    -4.494552  -3.289219  0.923166
H    -4.606758  -2.748492  -0.774294
