35
Energy: -21190.174466 eV PBE+vdW (tier 2 basis)
C    -0.221100  -0.153125  -0.208540
C    -0.036956  0.089571  1.276314
O    1.065706  0.321803  1.761254
H    0.540909  0.423443  -0.741155
H    -1.214055  0.098168  -0.595106
H    -0.044110  -1.218106  -0.415659
N    -1.140100  -0.032279  2.105454
C    -2.563268  -0.021112  1.752287
C    -2.967686  -1.237496  0.876606
O    -3.827386  -1.150250  0.003402
H    -0.909572  0.212456  3.065157
H    -3.087020  -0.181870  2.709661
C    -3.067384  1.314579  1.171841
C    -4.552764  1.571759  1.435524
C    -5.024235  2.893777  0.832953
N    -6.424157  3.120928  1.144289
C    -7.142078  4.246510  0.777042
N    -6.374160  5.398724  0.580883
N    -8.430063  4.168112  0.738300
H    -2.877323  1.342260  0.089285
H    -2.466604  2.116588  1.626991
H    -4.745279  1.589930  2.520630
H    -5.142787  0.746927  1.009877
H    -4.830674  2.880234  -0.259454
H    -4.422404  3.712263  1.262673
H    -7.021844  2.299708  1.145734
H    -6.864466  6.136565  0.089443
H    -5.426511  5.272202  0.240367
H    -8.854788  5.073902  0.527462
N    -2.329707  -2.393928  1.201058
C    -2.567781  -3.644134  0.507027
H    -1.573238  -2.329183  1.874055
H    -2.778683  -4.451771  1.220248
H    -1.705055  -3.933974  -0.110930
H    -3.435895  -3.504390  -0.145501
