35
Energy: -21190.1650549 eV PBE+vdW (tier 2 basis)
C    -0.427252  -0.082735  -0.649057
C    -0.453534  0.470692  0.764761
O    0.254276  1.407294  1.121988
H    -0.795010  0.690943  -1.335205
H    -1.029886  -0.989647  -0.784487
H    0.612057  -0.296110  -0.925559
N    -1.316663  -0.152938  1.626391
C    -1.539631  0.309714  2.990221
C    -0.274062  0.433914  3.865502
O    -0.188983  1.382155  4.644471
H    -1.898655  -0.905950  1.278139
H    -1.907667  1.346597  2.961728
C    -2.622329  -0.578362  3.637049
C    -3.082082  -0.160478  5.042578
C    -2.238769  -0.748273  6.189901
N    -2.744310  -0.442039  7.515017
C    -3.835633  -1.098272  8.066546
N    -4.260800  -0.511898  9.264349
N    -4.462655  -2.131887  7.616167
H    -2.277907  -1.626913  3.657020
H    -3.490119  -0.553400  2.958931
H    -4.124160  -0.482044  5.180843
H    -3.080052  0.936795  5.124446
H    -1.209698  -0.373528  6.138156
H    -2.181686  -1.844098  6.091100
H    -2.626733  0.521708  7.811555
H    -4.956002  -1.096828  9.719117
H    -3.510595  -0.249973  9.898635
H    -4.142977  -2.390010  6.680193
N    0.678794  -0.546087  3.855486
C    0.826459  -1.720489  3.013073
H    1.466414  -0.304082  4.449241
H    1.536228  -2.400971  3.498152
H    1.209888  -1.479287  2.009823
H    -0.120698  -2.260268  2.904759
