35
Energy: -21190.0956794 eV PBE+vdW (tier 2 basis)
C    -3.173471  2.282932  -0.019523
C    -1.991508  1.910695  0.856714
O    -1.138338  2.729114  1.189614
H    -3.203708  1.686696  -0.941485
H    -3.075168  3.339548  -0.280609
H    -4.129232  2.136157  0.503771
N    -1.909783  0.607235  1.286599
C    -2.778072  -0.519025  0.955859
C    -2.929164  -1.420189  2.204375
O    -2.541068  -2.586881  2.222359
H    -1.072944  0.417593  1.832236
H    -3.777050  -0.107181  0.744263
C    -2.333119  -1.311128  -0.285618
C    -0.863410  -1.739493  -0.302754
C    -0.478708  -2.480605  -1.584658
N    -0.594380  -1.611346  -2.744006
C    -0.516040  -2.018096  -4.064604
N    -0.841121  -3.358396  -4.294732
N    -0.249601  -1.129404  -4.963098
H    -2.540299  -0.695105  -1.172749
H    -2.973982  -2.201833  -0.363858
H    -0.209772  -0.857855  -0.195480
H    -0.658924  -2.396542  0.552723
H    -1.165077  -3.333352  -1.708694
H    0.542714  -2.893959  -1.469184
H    -0.215520  -0.674269  -2.639042
H    -0.566322  -3.690964  -5.211423
H    -0.616167  -4.022273  -3.560801
H    -0.277419  -1.527466  -5.904319
N    -3.519927  -0.854808  3.299690
C    -4.079052  0.478567  3.455259
H    -3.560955  -1.483946  4.095256
H    -4.695402  0.757328  2.589944
H    -3.306588  1.248416  3.591572
H    -4.732766  0.478944  4.334298
