35
Energy: -21190.3133815 eV PBE+vdW (tier 2 basis)
C    0.193614  0.888626  -0.777392
C    0.265850  0.471678  0.678458
O    1.319210  0.438130  1.307124
H    -0.100607  0.042852  -1.415417
H    1.187043  1.227996  -1.080846
H    -0.534800  1.694705  -0.940500
N    -0.924218  0.139210  1.293386
C    -2.252322  0.037768  0.706606
C    -3.124913  1.310623  0.847092
O    -4.257422  1.334876  0.369686
H    -0.801540  -0.192665  2.247708
H    -2.144253  -0.107270  -0.378692
C    -3.013702  -1.172750  1.268061
C    -2.414660  -2.516618  0.845330
C    -3.108530  -3.730376  1.466506
N    -4.481398  -3.860996  1.007863
C    -5.256054  -5.009204  1.102385
N    -4.571504  -6.142836  1.543583
N    -6.492764  -5.124482  0.751988
H    -4.050537  -1.064907  0.920683
H    -3.043127  -1.098025  2.369704
H    -1.351869  -2.555374  1.129353
H    -2.453331  -2.608073  -0.251826
H    -3.039800  -3.655136  2.572483
H    -2.565817  -4.638145  1.169058
H    -5.020239  -3.006517  0.937347
H    -5.218327  -6.917154  1.661450
H    -3.962820  -6.018791  2.347098
H    -6.838859  -4.266865  0.313064
N    -2.545308  2.347809  1.503774
C    -3.212139  3.618393  1.710665
H    -1.600965  2.207574  1.847067
H    -2.658102  4.439093  1.234586
H    -3.320651  3.838912  2.781480
H    -4.206991  3.548824  1.257842
