35
Energy: -21190.129457 eV PBE+vdW (tier 2 basis)
C    -0.212742  1.334980  1.357344
C    0.321669  -0.009787  1.804988
O    1.477299  -0.173736  2.191001
H    -0.635803  1.286428  0.344475
H    0.612335  2.051236  1.372685
H    -1.011810  1.690930  2.023097
N    -0.550898  -1.072917  1.758975
C    -1.983413  -1.039608  1.512947
C    -2.848562  -0.353763  2.598598
O    -3.814087  0.322488  2.245675
H    -0.138102  -1.938698  2.095137
H    -2.180032  -0.424938  0.622384
C    -2.518429  -2.453339  1.228468
C    -1.979237  -3.062399  -0.067974
C    -2.530317  -4.471937  -0.321273
N    -2.060745  -5.096655  -1.557705
C    -2.394245  -4.601884  -2.821773
N    -3.684259  -4.079454  -2.906844
N    -1.643343  -4.595372  -3.868801
H    -3.615007  -2.384396  1.178170
H    -2.289343  -3.111404  2.085217
H    -0.878891  -3.103997  -0.047553
H    -2.252613  -2.417115  -0.916619
H    -3.629303  -4.442842  -0.327958
H    -2.252830  -5.144272  0.504929
H    -1.091522  -5.397453  -1.519445
H    -3.924399  -3.879226  -3.873222
H    -4.405276  -4.612224  -2.428807
H    -0.682377  -4.866490  -3.642657
N    -2.546924  -0.510748  3.922004
C    -1.528877  -1.320004  4.578476
H    -3.192117  -0.002551  4.518913
H    -1.780307  -1.377428  5.643361
H    -0.520816  -0.893277  4.486881
H    -1.513163  -2.349441  4.196010
