35
Energy: -21190.4911128 eV PBE+vdW (tier 2 basis)
C    0.712677  1.000937  0.326100
C    0.384412  0.248357  1.604572
O    1.061074  -0.704363  1.990275
H    1.718097  1.431439  0.413497
H    0.001344  1.803218  0.094562
H    0.730784  0.284340  -0.504153
N    -0.704015  0.716885  2.284256
C    -1.232167  0.056315  3.469838
C    -2.773412  -0.004706  3.437543
O    -3.369672  -1.047928  3.700048
H    -1.178482  1.545597  1.936835
H    -0.876034  -0.978889  3.415216
C    -0.797603  0.652289  4.835521
C    0.655316  1.121083  4.998715
C    1.077877  2.395569  4.227959
N    -0.020779  3.365547  4.079820
C    -0.460146  3.793438  2.846049
N    0.546947  4.207841  1.996003
N    -1.731367  3.733561  2.560265
H    -0.988409  -0.131079  5.582879
H    -1.490115  1.464885  5.108666
H    1.344197  0.315319  4.709061
H    0.813951  1.295809  6.073731
H    1.435589  2.134430  3.226149
H    1.922458  2.860257  4.760112
H    -0.818474  3.183131  4.680835
H    1.364823  4.638316  2.413116
H    0.266499  4.596050  1.104690
H    -1.955340  4.270665  1.718175
N    -3.397009  1.173432  3.146605
C    -4.843273  1.279956  3.126863
H    -2.858361  2.041403  3.022316
H    -5.167069  1.885420  2.270468
H    -5.233361  1.739592  4.048391
H    -5.262623  0.271796  3.041900
