35
Energy: -21190.8010525 eV PBE+vdW (tier 2 basis)
C    0.293220  0.798391  0.098389
C    -0.146958  0.461598  1.512933
O    0.363080  0.997568  2.499006
H    0.143746  1.871891  -0.072863
H    -0.243486  0.235007  -0.674567
H    1.368530  0.599970  0.008606
N    -1.154466  -0.452709  1.603581
C    -1.597418  -1.009952  2.868626
C    -2.287561  -2.347966  2.511913
O    -2.254518  -2.781623  1.351209
H    -1.399164  -1.042930  0.806221
H    -0.708456  -1.251930  3.477999
C    -2.436414  -0.004781  3.686894
C    -3.806818  0.358603  3.088307
C    -5.010976  -0.376014  3.696360
N    -5.235658  -0.086915  5.109166
C    -4.804849  -0.878749  6.141748
N    -5.139277  -0.355941  7.394001
N    -4.127907  -1.968498  5.940657
H    -1.810010  0.891921  3.771687
H    -2.552569  -0.385517  4.710904
H    -3.805206  0.179007  2.001064
H    -3.977698  1.441140  3.200898
H    -4.908401  -1.462205  3.604437
H    -5.922651  -0.092028  3.148477
H    -5.414663  0.881891  5.348846
H    -4.936334  -0.969214  8.174915
H    -6.059452  0.069107  7.463805
H    -4.001649  -2.487970  6.810759
N    -2.879212  -3.012038  3.525328
C    -3.577267  -4.260950  3.276162
H    -3.103524  -2.542924  4.419863
H    -2.873671  -5.072841  3.045341
H    -4.269509  -4.171443  2.426362
H    -4.142024  -4.520188  4.178190
