35
Energy: -21190.514021 eV PBE+vdW (tier 2 basis)
C    -0.769778  -0.293023  -0.137570
C    -0.524681  0.026847  1.325647
O    0.606793  0.224840  1.770256
H    -0.342984  0.509553  -0.751621
H    -1.830306  -0.412981  -0.389981
H    -0.233722  -1.216812  -0.389177
N    -1.647619  0.096763  2.100974
C    -1.587210  0.216803  3.543969
C    -2.659548  -0.716845  4.124180
O    -3.617004  -1.083819  3.435310
H    -2.539097  -0.256690  1.755685
H    -0.578363  -0.097848  3.853169
C    -1.834268  1.654999  4.047406
C    -0.691893  2.623785  3.736402
C    -0.805826  3.946468  4.506013
N    -0.712248  3.781772  5.961162
C    -1.805535  3.550722  6.781073
N    -2.924422  4.325691  6.477146
N    -1.716259  2.656674  7.713696
H    -1.986815  1.615067  5.134247
H    -2.779728  2.017354  3.614836
H    -0.644904  2.837447  2.657915
H    0.271710  2.148123  3.981313
H    -1.759820  4.439133  4.276350
H    -0.007434  4.630713  4.182707
H    0.061928  3.192625  6.260527
H    -3.673319  4.266308  7.156994
H    -2.737086  5.278022  6.177066
H    -2.512779  2.708426  8.354506
N    -2.529040  -1.087189  5.425785
C    -1.470255  -0.748394  6.369542
H    -3.310879  -1.638904  5.765188
H    -1.454369  -1.508654  7.158750
H    -1.606160  0.240224  6.837438
H    -0.490238  -0.768612  5.876679
