35
Energy: -21190.1928494 eV PBE+vdW (tier 2 basis)
C    0.009949  0.227002  0.131734
C    0.008503  0.178027  1.643047
O    1.041613  0.315308  2.293177
H    -0.604886  -0.559054  -0.322613
H    1.046049  0.126284  -0.202419
H    -0.374854  1.194016  -0.218375
N    -1.181611  -0.052430  2.312754
C    -2.589230  -0.125892  1.893342
C    -3.030401  -1.514029  1.386784
O    -4.213271  -1.724660  1.098594
H    -1.030266  -0.009279  3.316944
H    -3.137740  -0.035607  2.843046
C    -3.102603  1.045926  1.006453
C    -3.232485  0.864761  -0.519074
C    -4.666550  0.581130  -1.020375
N    -5.658754  1.477705  -0.462172
C    -6.804233  1.098534  0.224386
N    -6.778582  -0.176432  0.765322
N    -7.777313  1.951049  0.278082
H    -2.448262  1.898194  1.231288
H    -4.092843  1.343933  1.378185
H    -2.586861  0.059721  -0.897547
H    -2.874479  1.785477  -1.004267
H    -4.946197  -0.448844  -0.779388
H    -4.667369  0.650518  -2.121482
H    -5.798658  2.371880  -0.920274
H    -7.526937  -0.380862  1.413724
H    -5.888246  -0.628113  0.981869
H    -8.532557  1.611136  0.877662
N    -2.068072  -2.462736  1.323153
C    -2.334970  -3.834791  0.935623
H    -1.151833  -2.205809  1.675845
H    -1.635615  -4.157771  0.153738
H    -3.358226  -3.882806  0.549152
H    -2.248327  -4.517115  1.793070
