35
Energy: -21190.0499926 eV PBE+vdW (tier 2 basis)
C    0.393450  0.714958  0.051289
C    0.351120  0.478216  1.545048
O    1.375094  0.451207  2.224867
H    -0.000614  1.710491  -0.196220
H    -0.190996  -0.032530  -0.495838
H    1.440514  0.668425  -0.259785
N    -0.869336  0.339904  2.182940
C    -2.235121  0.178425  1.700025
C    -2.473657  -1.207920  1.054089
O    -1.608809  -1.786531  0.405198
H    -0.728720  0.145090  3.169539
H    -2.851592  0.244847  2.609655
C    -2.727687  1.288644  0.745971
C    -2.606990  2.689440  1.347827
C    -3.042393  3.818852  0.402026
N    -2.204127  3.982108  -0.785399
C    -2.352594  3.251613  -1.962500
N    -3.674513  2.918857  -2.271192
N    -1.413032  2.878687  -2.762855
H    -3.778677  1.084027  0.491420
H    -2.183912  1.222572  -0.204102
H    -1.568719  2.868404  1.668480
H    -3.218006  2.755326  2.264565
H    -4.076691  3.654476  0.073691
H    -3.036969  4.771970  0.951809
H    -1.231306  4.191029  -0.581892
H    -3.719735  2.516021  -3.203102
H    -4.345976  3.672295  -2.148037
H    -0.485953  3.047070  -2.362141
N    -3.721393  -1.749459  1.214824
C    -4.832296  -1.254386  2.010632
H    -3.830849  -2.642481  0.744732
H    -5.665867  -1.957749  1.912849
H    -4.582974  -1.183837  3.080294
H    -5.189457  -0.272093  1.667864
