35
Energy: -21190.4808114 eV PBE+vdW (tier 2 basis)
C    -0.227060  -0.033765  -0.230492
C    -0.059110  0.033684  1.273411
O    1.074195  0.001897  1.779338
H    0.384729  0.752402  -0.688920
H    -1.263541  0.070085  -0.572341
H    0.166002  -0.997451  -0.579059
N    -1.209651  0.147575  1.985236
C    -1.468849  0.112806  3.441670
C    -0.736961  1.118900  4.367005
O    -1.273795  1.371755  5.446103
H    -2.052202  0.186467  1.424136
H    -2.506567  0.463197  3.524446
C    -1.473143  -1.323223  4.023256
C    -0.165664  -2.123755  3.994681
C    0.885092  -1.684923  5.026492
N    2.120449  -2.446984  4.927649
C    3.346742  -1.916391  4.567088
N    3.275850  -0.762954  3.782198
N    4.417831  -2.497643  5.000011
H    -2.243317  -1.884239  3.472205
H    -1.840463  -1.229922  5.056880
H    0.286113  -2.099119  2.993603
H    -0.410815  -3.180472  4.184649
H    0.467767  -1.791260  6.040823
H    1.126989  -0.622782  4.909107
H    2.238801  -3.230236  5.560418
H    4.169338  -0.497738  3.384273
H    2.520322  -0.706473  3.099036
H    5.255173  -2.094430  4.573158
N    0.429406  1.654682  3.939799
C    1.236533  2.509505  4.792050
H    0.869890  1.208610  3.128916
H    1.546027  3.412267  4.249058
H    2.136210  1.976926  5.135031
H    0.637070  2.796559  5.661701
