35
Energy: -21190.1039717 eV PBE+vdW (tier 2 basis)
C    0.666217  -0.103331  1.860723
C    -0.026754  -0.348129  3.184385
O    0.577697  -0.800299  4.154916
H    1.659154  -0.556943  1.922029
H    0.786437  0.973557  1.677077
H    0.108605  -0.544249  1.027093
N    -1.359472  -0.011219  3.327647
C    -2.385838  0.387439  2.374061
C    -2.814573  -0.772961  1.442337
O    -2.058270  -1.696076  1.156280
H    -1.696409  -0.291418  4.243592
H    -3.250701  0.648375  3.004512
C    -2.064936  1.642619  1.539735
C    -1.672093  2.857742  2.382289
C    -1.755419  4.182737  1.611308
N    -3.112984  4.615605  1.309061
C    -3.729607  4.377171  0.099041
N    -5.059542  4.836976  0.085499
N    -3.118631  3.760116  -0.855633
H    -2.949571  1.889626  0.940142
H    -1.281724  1.423383  0.802659
H    -0.650320  2.741074  2.773896
H    -2.321098  2.921618  3.273615
H    -1.231675  4.105307  0.649929
H    -1.266281  4.976499  2.196094
H    -3.731909  4.756910  2.099426
H    -5.202622  5.736361  0.539783
H    -5.477908  4.822464  -0.838790
H    -3.667308  3.775860  -1.717771
N    -4.087578  -0.724474  0.936402
C    -5.102100  0.306329  1.078602
H    -4.268361  -1.471274  0.271893
H    -6.082748  -0.133970  0.863831
H    -4.947846  1.158909  0.397746
H    -5.137294  0.689611  2.106134
