35
Energy: -21190.3946087 eV PBE+vdW (tier 2 basis)
C    -0.266724  -1.646384  0.521495
C    0.088477  -0.575990  1.541533
O    1.200689  -0.566830  2.085882
H    0.634395  -2.234085  0.328408
H    -0.625347  -1.213897  -0.422558
H    -1.047279  -2.321581  0.901833
N    -0.850855  0.362100  1.836379
C    -2.229533  0.408308  1.396851
C    -2.452299  1.563803  0.393135
O    -1.807445  2.604311  0.433811
H    -0.538495  1.105951  2.478806
H    -2.457972  -0.539423  0.889843
C    -3.196159  0.535527  2.603827
C    -2.988122  1.792628  3.476181
C    -2.646411  1.514331  4.954969
N    -1.548133  0.588919  5.204355
C    -0.254529  0.869220  4.812714
N    0.677634  -0.138562  5.053509
N    0.018143  2.012434  4.265891
H    -3.061915  -0.377470  3.205124
H    -4.226821  0.500213  2.221216
H    -3.898121  2.409466  3.464244
H    -2.195036  2.424685  3.058681
H    -3.521824  1.101560  5.477814
H    -2.398598  2.471256  5.434611
H    -1.790528  -0.391589  5.265996
H    0.304498  -1.010686  5.418540
H    1.273564  -0.298081  4.236918
H    1.028578  2.106112  4.138498
N    -3.452836  1.330193  -0.511426
C    -3.879377  2.320809  -1.481960
H    -3.926729  0.435387  -0.487976
H    -3.778818  1.941683  -2.508260
H    -3.230711  3.194953  -1.360757
H    -4.922518  2.625100  -1.314848
