35
Energy: -21190.1914338 eV PBE+vdW (tier 2 basis)
C    -1.551895  0.283817  -1.123031
C    -0.668865  0.597299  0.062715
O    0.426267  1.153311  -0.065600
H    -1.723204  -0.797280  -1.213366
H    -1.052697  0.649937  -2.023604
H    -2.539654  0.754308  -1.036848
N    -1.086827  0.208616  1.315543
C    -2.456745  -0.018175  1.791572
C    -3.128826  -1.238225  1.115692
O    -4.183705  -1.141631  0.493482
H    -0.428409  0.518734  2.032558
H    -2.328957  -0.299441  2.848818
C    -3.372379  1.225659  1.725928
C    -2.656288  2.549549  2.010894
C    -2.030769  2.650580  3.410187
N    -1.061567  3.737764  3.542215
C    0.307070  3.513120  3.609013
N    0.761615  2.467367  2.787325
N    1.012542  4.228611  4.418360
H    -4.199752  1.069102  2.435174
H    -3.847712  1.262688  0.737503
H    -3.366654  3.378067  1.873934
H    -1.869173  2.717082  1.261599
H    -1.533898  1.706236  3.680098
H    -2.824278  2.801049  4.157405
H    -1.315958  4.482649  4.182532
H    1.768701  2.347163  2.836796
H    0.468187  2.489103  1.807849
H    2.013833  4.086531  4.261870
N    -2.497294  -2.441663  1.257215
C    -1.273469  -2.757717  1.975957
H    -2.978660  -3.198166  0.781465
H    -1.242580  -3.839576  2.146634
H    -0.371555  -2.460388  1.423023
H    -1.248349  -2.269543  2.959483
