35
Energy: -21190.4951907 eV PBE+vdW (tier 2 basis)
C    -0.565282  -1.006122  -0.173450
C    0.618877  -0.261143  0.414240
O    1.521555  0.196969  -0.287717
H    -0.192436  -1.874617  -0.730590
H    -1.073744  -0.351438  -0.892059
H    -1.289012  -1.344589  0.577860
N    0.606885  -0.123083  1.771925
C    1.716273  0.457236  2.497428
C    1.639303  -0.099049  3.932332
O    0.659353  -0.734496  4.324321
H    -0.059960  -0.623711  2.357959
H    2.653336  0.124206  2.020407
C    1.698433  2.004827  2.468945
C    0.525484  2.631591  3.220658
C    0.466839  4.152825  3.038288
N    -0.584915  4.815865  3.811613
C    -0.548278  4.895683  5.204672
N    0.732724  5.075106  5.733059
N    -1.552296  4.832548  6.010245
H    1.688512  2.297569  1.408628
H    2.649873  2.381863  2.879753
H    0.596840  2.408967  4.296536
H    -0.419288  2.188006  2.868817
H    0.302381  4.403360  1.979666
H    1.436040  4.596686  3.306181
H    -1.522137  4.616305  3.474510
H    0.673289  5.291165  6.724097
H    1.316272  5.737756  5.229441
H    -2.407118  4.554354  5.520267
N    2.710234  0.185894  4.718111
C    2.781085  -0.177770  6.121631
H    3.471606  0.718617  4.314786
H    3.671097  -0.788111  6.325371
H    1.885979  -0.761648  6.357978
H    2.803197  0.714379  6.763089
