35
Energy: -21190.1197794 eV PBE+vdW (tier 2 basis)
C    -0.053532  -3.487211  1.270447
C    0.062829  -2.365271  2.284103
O    0.865912  -2.442885  3.220843
H    0.929590  -3.643236  0.809039
H    -0.794464  -3.306793  0.482204
H    -0.315204  -4.411433  1.800342
N    -0.754681  -1.296385  2.059867
C    -0.980927  -0.092871  2.875095
C    -0.247630  1.201654  2.436414
O    -0.836374  2.262080  2.664140
H    -1.335583  -1.361832  1.232949
H    -2.009312  0.201255  2.629938
C    -0.974147  -0.390131  4.409041
C    -0.364945  0.636253  5.376891
C    1.130268  0.945315  5.229830
N    1.938931  -0.252447  5.063765
C    3.297436  -0.129733  4.810771
N    3.872990  -1.308406  4.333292
N    4.038931  0.921371  4.933135
H    -0.485034  -1.356729  4.562350
H    -2.020537  -0.540037  4.707210
H    -0.545849  0.239879  6.387608
H    -0.904373  1.591002  5.309362
H    1.453433  1.473715  6.140933
H    1.292403  1.649752  4.395789
H    1.492080  -1.013804  4.548285
H    4.883878  -1.295055  4.417438
H    3.449025  -2.172569  4.655374
H    3.484748  1.736762  5.200934
N    0.944493  1.196161  1.780869
C    1.940510  0.154884  1.569303
H    1.221811  2.143310  1.536596
H    1.864250  -0.636985  2.316107
H    2.937692  0.596075  1.681770
H    1.860408  -0.289641  0.565301
