35
Energy: -21189.8776548 eV PBE+vdW (tier 2 basis)
C    -0.506285  -1.268740  0.249769
C    -0.297984  -0.932159  1.709996
O    0.791404  -1.072650  2.264331
H    -1.246211  -2.070463  0.130093
H    0.453957  -1.599928  -0.153462
H    -0.831686  -0.391431  -0.325186
N    -1.366802  -0.458674  2.437441
C    -2.730637  -0.107453  2.043955
C    -3.426748  -1.292154  1.312632
O    -3.542486  -2.349414  1.928767
H    -1.139918  -0.373432  3.422929
H    -3.291420  -0.117577  2.991986
C    -2.859289  1.325161  1.494609
C    -2.377517  2.394081  2.498057
C    -0.951528  2.920536  2.267006
N    -0.808892  3.655911  1.018908
C    -0.321832  3.094848  -0.155071
N    -0.650773  3.857914  -1.285392
N    0.344492  2.004946  -0.317674
H    -3.920111  1.500606  1.264821
H    -2.310499  1.442779  0.552040
H    -2.446287  2.011945  3.530094
H    -3.062295  3.256552  2.463070
H    -0.223638  2.099447  2.271886
H    -0.670466  3.582387  3.100580
H    -1.519697  4.366652  0.871910
H    -0.105583  3.548668  -2.085698
H    -0.574796  4.863489  -1.153179
H    0.488581  1.502374  0.560257
N    -3.964898  -1.176331  0.058238
C    -3.834320  -0.175063  -0.992515
H    -4.423627  -2.044091  -0.203975
H    -4.170504  -0.632862  -1.929093
H    -2.796127  0.145254  -1.139069
H    -4.455814  0.712897  -0.812344
