35
Energy: -21190.7188445 eV PBE+vdW (tier 2 basis)
C    -0.872273  -1.384509  0.430302
C    -0.691458  -0.353212  1.527715
O    -0.005969  0.657466  1.383450
H    -1.426585  -0.922151  -0.396907
H    -1.410608  -2.280641  0.762779
H    0.113386  -1.668970  0.043332
N    -1.350515  -0.638731  2.695454
C    -1.354169  0.287463  3.817209
C    -1.197372  -0.472855  5.149378
O    -1.845387  -0.191150  6.162388
H    -1.931522  -1.480341  2.749105
H    -0.426395  0.874336  3.697750
C    -2.505669  1.320109  3.811744
C    -3.912917  0.872758  3.389930
C    -4.738233  0.053929  4.394561
N    -4.243996  -1.297058  4.680274
C    -4.030685  -2.236584  3.690364
N    -4.903419  -2.172735  2.611879
N    -3.083982  -3.128515  3.661163
H    -2.194949  2.105279  3.108435
H    -2.534883  1.779610  4.810364
H    -3.864807  0.328895  2.434412
H    -4.491714  1.786023  3.178636
H    -5.779932  -0.002206  4.040420
H    -4.775969  0.570920  5.362907
H    -3.525536  -1.297305  5.401431
H    -4.859828  -3.009702  2.040433
H    -5.848035  -1.863675  2.813133
H    -2.469441  -3.025035  4.473130
N    -0.262494  -1.459628  5.120516
C    0.075476  -2.271697  6.272746
H    0.185661  -1.647469  4.229925
H    -0.131718  -3.335044  6.085326
H    -0.537230  -1.929750  7.113378
H    1.136163  -2.160823  6.536938
