35
Energy: -21190.3325768 eV PBE+vdW (tier 2 basis)
C    0.434732  -0.292318  2.748157
C    -0.097979  1.027065  2.232255
O    0.554353  2.068892  2.331801
H    0.006675  -1.172580  2.251680
H    0.228230  -0.357148  3.829965
H    1.521604  -0.289025  2.618094
N    -1.346203  1.053148  1.666228
C    -2.367162  0.024891  1.644230
C    -3.460406  0.529081  0.686393
O    -3.592956  1.731634  0.453529
H    -1.662578  1.962832  1.328300
H    -1.937557  -0.908336  1.245370
C    -2.981752  -0.301798  3.033451
C    -3.845088  0.779994  3.698040
C    -3.131688  2.073392  4.146163
N    -1.884013  1.894989  4.886310
C    -1.743141  1.045800  5.967117
N    -2.847575  1.029779  6.826245
N    -0.667960  0.335958  6.083105
H    -2.158158  -0.581149  3.704728
H    -3.594669  -1.209853  2.928379
H    -4.306206  0.318446  4.583200
H    -4.675516  1.073968  3.036326
H    -3.846498  2.665843  4.740960
H    -2.884924  2.697342  3.279708
H    -1.035430  1.935719  4.329052
H    -3.316027  1.923238  6.951094
H    -2.682207  0.552220  7.704833
H    -0.618343  -0.121339  6.997421
N    -4.304331  -0.390155  0.137972
C    -4.315848  -1.834989  0.285702
H    -5.039261  0.034638  -0.419777
H    -4.751816  -2.281523  -0.615525
H    -4.903607  -2.167310  1.155328
H    -3.297234  -2.226977  0.386987
