35
Energy: -21190.1609737 eV PBE+vdW (tier 2 basis)
C    -0.050022  -1.070405  1.238308
C    -0.376721  -0.405757  2.558739
O    0.480694  -0.183891  3.410640
H    1.036850  -1.061700  1.122651
H    -0.519365  -0.576811  0.379676
H    -0.393421  -2.114410  1.237604
N    -1.688209  -0.064649  2.816993
C    -2.889233  -0.171068  1.983174
C    -3.101151  -1.623462  1.485513
O    -3.137121  -1.913937  0.287446
H    -1.789347  0.396692  3.716084
H    -3.721909  0.033969  2.676806
C    -2.959701  0.870786  0.847839
C    -4.367018  1.403943  0.540491
C    -5.359274  0.395048  -0.054372
N    -4.899905  -0.185685  -1.308735
C    -5.647101  -0.231473  -2.474240
N    -6.551350  0.827107  -2.630097
N    -5.578074  -1.130677  -3.398236
H    -2.516911  0.449949  -0.065102
H    -2.326125  1.714368  1.153052
H    -4.262909  2.241773  -0.166134
H    -4.807907  1.826003  1.460461
H    -6.321229  0.890686  -0.233426
H    -5.565714  -0.411322  0.673053
H    -4.257773  -0.965631  -1.183049
H    -6.171512  1.746118  -2.416616
H    -6.961569  0.793381  -3.559239
H    -4.998757  -1.919588  -3.097140
N    -3.248966  -2.586533  2.436973
C    -3.231774  -2.459445  3.885677
H    -3.353126  -3.517224  2.044520
H    -2.213882  -2.353086  4.286005
H    -3.687621  -3.357974  4.315620
H    -3.827806  -1.599089  4.217713
