35
Energy: -21190.4939955 eV PBE+vdW (tier 2 basis)
C    -0.328734  -0.269608  -0.021903
C    -0.182147  -0.168913  1.481296
O    0.928441  -0.134295  2.027473
H    0.195706  -1.167914  -0.370112
H    0.165854  0.595951  -0.480400
H    -1.370324  -0.307118  -0.363302
N    -1.342339  -0.125562  2.190442
C    -1.418446  0.074336  3.636818
C    -1.161864  -1.226864  4.459641
O    -1.932819  -1.617397  5.336923
H    -2.215755  -0.217044  1.685298
H    -0.580556  0.743874  3.891736
C    -2.730583  0.770693  4.036424
C    -4.022547  0.315964  3.338927
C    -4.419374  -1.147639  3.536457
N    -5.637187  -1.437963  2.794576
C    -6.093189  -2.749395  2.671819
N    -7.346360  -2.814248  2.050879
N    -5.512947  -3.833929  3.050592
H    -2.612131  1.847392  3.849414
H    -2.837841  0.638455  5.121151
H    -3.983558  0.530508  2.256281
H    -4.834496  0.958289  3.717860
H    -4.508723  -1.370730  4.613421
H    -3.632791  -1.815309  3.155258
H    -6.383894  -0.758143  2.915734
H    -7.601736  -3.779130  1.860826
H    -7.443049  -2.223028  1.229490
H    -4.689040  -3.642438  3.625261
N    -0.001093  -1.847475  4.144677
C    0.434548  -3.049865  4.829931
H    0.618641  -1.378784  3.476514
H    1.217569  -3.534164  4.236703
H    -0.409020  -3.740476  4.948375
H    0.831659  -2.830412  5.832890
