35
Energy: -21190.4405354 eV PBE+vdW (tier 2 basis)
C    -2.225214  -2.183926  0.167425
C    -2.441337  -2.533483  1.626456
O    -2.461421  -3.708199  2.018271
H    -1.209851  -2.491135  -0.117048
H    -2.347541  -1.116929  -0.052836
H    -2.927095  -2.764181  -0.442861
N    -2.588089  -1.478253  2.463592
C    -2.719315  -1.583498  3.905368
C    -2.875378  -0.137214  4.403362
O    -2.532742  0.816971  3.699334
H    -2.465967  -0.519124  2.137718
H    -3.634393  -2.153522  4.133679
C    -1.532754  -2.306332  4.603225
C    -0.153591  -1.933012  4.066094
C    0.975911  -2.769588  4.681328
N    0.748813  -4.224187  4.699794
C    1.023011  -5.037774  3.594463
N    0.445773  -4.612417  2.400571
N    1.776053  -6.071515  3.777206
H    -1.682351  -3.386128  4.489710
H    -1.581112  -2.102381  5.683646
H    0.069571  -0.870943  4.254321
H    -0.131084  -2.056085  2.975760
H    1.100770  -2.479920  5.734921
H    1.920776  -2.518834  4.167113
H    1.184804  -4.665345  5.505162
H    0.588932  -5.265121  1.637049
H    -0.530190  -4.306376  2.446336
H    1.772897  -6.679148  2.952347
N    -3.389310  0.057224  5.648760
C    -3.868384  -0.921452  6.609715
H    -3.402480  1.035261  5.922169
H    -4.685700  -0.480618  7.192840
H    -3.081528  -1.249295  7.306245
H    -4.264995  -1.806559  6.100479
