35
Energy: -21190.2563191 eV PBE+vdW (tier 2 basis)
C    -0.765269  -0.503906  -0.461466
C    -0.393584  0.120358  0.868782
O    0.771333  0.236217  1.241207
H    0.158571  -0.654973  -1.026269
H    -1.441095  0.134903  -1.047476
H    -1.258670  -1.481011  -0.328470
N    -1.423499  0.581296  1.663709
C    -2.851872  0.325610  1.496260
C    -3.610323  1.539574  2.073555
O    -4.120972  1.512957  3.192229
H    -1.114285  0.892340  2.582251
H    -3.048298  0.270840  0.415545
C    -3.303019  -0.992748  2.131188
C    -4.729149  -1.404097  1.746131
C    -4.965046  -2.919773  1.817290
N    -4.221420  -3.675428  0.803459
C    -2.901504  -4.079640  0.961275
N    -2.617643  -4.630095  2.209525
N    -2.072944  -3.903382  -0.016370
H    -3.213324  -0.916449  3.223729
H    -2.588484  -1.755723  1.797580
H    -5.459690  -0.890057  2.388018
H    -4.948140  -1.076944  0.713520
H    -6.035443  -3.134824  1.683546
H    -4.688128  -3.299171  2.809673
H    -4.338258  -3.311176  -0.140040
H    -1.698654  -5.049050  2.289126
H    -3.351888  -5.194592  2.626372
H    -1.188678  -4.391814  0.149322
N    -3.660440  2.655529  1.288253
C    -3.033803  2.863004  -0.007881
H    -4.110971  3.446739  1.736735
H    -3.268577  3.877661  -0.345590
H    -3.420307  2.165967  -0.765914
H    -1.940535  2.759453  0.040319
