35
Energy: -21190.1547199 eV PBE+vdW (tier 2 basis)
C    0.374121  -1.124106  0.909817
C    0.246862  -0.577859  2.311144
O    1.204232  -0.586531  3.089216
H    0.388256  -2.221509  0.976897
H    1.333321  -0.799832  0.493510
H    -0.430687  -0.836937  0.228424
N    -0.991589  -0.187122  2.788573
C    -2.188534  0.353933  2.124210
C    -2.773057  -0.553187  1.020431
O    -3.304502  -0.094143  0.013131
H    -0.893171  0.117247  3.755562
H    -2.956416  0.287558  2.914862
C    -2.141482  1.866566  1.786180
C    -1.593886  2.442093  0.465189
C    -0.174741  2.106880  0.005515
N    0.785269  2.101591  1.096066
C    2.126066  1.863247  0.856890
N    2.870728  1.871358  2.048789
N    2.545984  1.666642  -0.348439
H    -1.628406  2.337909  2.640479
H    -3.181357  2.220045  1.851128
H    -1.678849  3.536295  0.571734
H    -2.272598  2.160788  -0.348732
H    0.122076  2.820650  -0.781477
H    -0.145228  1.121088  -0.475802
H    0.597123  2.706964  1.887202
H    3.846921  1.637257  1.895223
H    2.465044  1.256419  2.758434
H    3.528043  1.379348  -0.345271
N    -2.737697  -1.882556  1.319289
C    -3.211758  -2.901743  0.404604
H    -2.206928  -2.157206  2.139034
H    -3.831938  -3.637403  0.932619
H    -2.377921  -3.426625  -0.086344
H    -3.814738  -2.408148  -0.364616
