35
Energy: -21189.7813413 eV PBE+vdW (tier 2 basis)
C    -0.204600  0.859959  -0.000144
C    0.076776  -0.137692  1.106316
O    1.196501  -0.634679  1.224454
H    -0.479989  1.842793  0.401547
H    -1.012644  0.531841  -0.665046
H    0.715225  0.958602  -0.582380
N    -0.900525  -0.492194  2.013603
C    -2.338750  -0.265431  2.213481
C    -3.133134  -1.593118  2.141891
O    -3.867127  -1.902309  3.082015
H    -0.506132  -1.145451  2.688098
H    -2.458167  0.007098  3.273086
C    -2.983791  0.878679  1.413050
C    -4.435371  1.188462  1.821972
C    -5.504563  0.347195  1.099053
N    -6.876019  0.739513  1.381512
C    -7.416722  1.974346  1.046396
N    -7.016456  2.481082  -0.190830
N    -8.297640  2.495743  1.831431
H    -2.949392  0.684307  0.331175
H    -2.372496  1.774833  1.585332
H    -4.633069  2.248902  1.606110
H    -4.561601  1.068985  2.908392
H    -5.418562  -0.709386  1.379022
H    -5.327372  0.376317  0.009561
H    -7.231167  0.444835  2.286999
H    -7.106921  3.483904  -0.292738
H    -6.172648  2.107413  -0.609994
H    -8.728782  3.323895  1.412875
N    -3.023336  -2.402126  1.047428
C    -2.240624  -2.245262  -0.168577
H    -3.565790  -3.254613  1.147618
H    -2.572379  -3.003985  -0.885414
H    -1.163402  -2.377705  0.000864
H    -2.405755  -1.265679  -0.634638
