35
Energy: -21190.2315041 eV PBE+vdW (tier 2 basis)
C    -0.506585  1.718488  1.463510
C    -0.013799  0.502836  2.216361
O    1.160465  0.380558  2.583527
H    -1.528237  2.007625  1.737990
H    -0.497857  1.517455  0.381435
H    0.183786  2.544502  1.655767
N    -0.920148  -0.488605  2.485550
C    -2.127774  -0.793963  1.719947
C    -3.450884  -0.337091  2.372133
O    -4.299859  0.213862  1.670852
H    -0.470620  -1.299212  2.909331
H    -2.114390  -0.219399  0.784052
C    -2.153165  -2.296445  1.368636
C    -1.265398  -2.722734  0.188308
C    0.236526  -2.359834  0.235537
N    0.918387  -2.608557  1.493284
C    1.346373  -3.860843  1.896733
N    2.072537  -3.829922  3.090350
N    1.086832  -5.002276  1.352959
H    -3.188972  -2.575150  1.128714
H    -1.879413  -2.878942  2.262715
H    -1.668180  -2.292880  -0.742656
H    -1.374443  -3.812492  0.085789
H    0.365603  -1.290480  0.021892
H    0.741058  -2.894668  -0.588725
H    1.363726  -1.797320  1.920091
H    2.530022  -4.719587  3.262899
H    2.694762  -3.036760  3.215739
H    0.484783  -4.903272  0.533931
N    -3.673725  -0.567360  3.698622
C    -2.832407  -1.208019  4.698984
H    -4.572765  -0.207871  4.003957
H    -2.434517  -2.168035  4.346100
H    -3.451929  -1.421247  5.576998
H    -1.992874  -0.572156  5.012178
