35
Energy: -21190.2599197 eV PBE+vdW (tier 2 basis)
C    0.454208  0.799533  0.669162
C    0.516604  0.298467  2.102036
O    1.549104  -0.137786  2.601230
H    0.694577  -0.033135  -0.003825
H    1.228023  1.564382  0.531000
H    -0.518942  1.217406  0.382334
N    -0.657771  0.380293  2.802513
C    -0.820904  -0.098387  4.175908
C    0.285845  0.421250  5.123388
O    0.874046  -0.329151  5.902885
H    -1.476865  0.743223  2.331398
H    -1.757670  0.361610  4.527266
C    -0.962434  -1.635277  4.195909
C    -1.335796  -2.334772  5.513079
C    -2.562024  -1.794943  6.257487
N    -2.278183  -0.546559  6.970428
C    -2.930726  0.653749  6.774002
N    -4.222668  0.541533  6.247043
N    -2.458263  1.838341  6.995837
H    -0.015756  -2.057977  3.832856
H    -1.727878  -1.873290  3.439695
H    -0.471863  -2.325007  6.190895
H    -1.530302  -3.392501  5.276394
H    -2.911531  -2.560589  6.970645
H    -3.386766  -1.611115  5.553943
H    -1.311656  -0.445297  7.268257
H    -4.692115  1.441606  6.291152
H    -4.788380  -0.204513  6.642608
H    -1.467328  1.793609  7.248791
N    0.526294  1.764479  5.137279
C    -0.166245  2.841102  4.451026
H    1.284658  2.012728  5.764219
H    0.020667  3.772334  4.997825
H    -1.251649  2.679791  4.463009
H    0.175014  2.972557  3.413368
