35
Energy: -21190.1074069 eV PBE+vdW (tier 2 basis)
C    -0.721506  -1.104763  0.520029
C    -0.060054  -0.093431  1.421974
O    1.165568  -0.117671  1.599218
H    -0.057741  -1.278995  -0.334042
H    -1.727688  -0.837499  0.191978
H    -0.812762  -2.045611  1.078775
N    -0.798494  0.859803  2.084986
C    -2.115198  1.440674  1.823835
C    -3.280025  0.509777  2.217719
O    -3.228084  -0.711645  2.118649
H    -0.173362  1.485594  2.590168
H    -2.151379  2.304347  2.504036
C    -2.301219  2.020253  0.397416
C    -1.294897  3.140342  0.073664
C    0.019132  2.662573  -0.582166
N    1.126279  3.600705  -0.481198
C    1.721510  3.934151  0.731229
N    1.739675  2.914451  1.685376
N    2.170762  5.136422  0.878278
H    -3.327247  2.409384  0.324774
H    -2.242269  1.211667  -0.346045
H    -1.043242  3.682175  0.998733
H    -1.768330  3.879931  -0.588876
H    -0.148563  2.464961  -1.650734
H    0.338426  1.704646  -0.157606
H    1.056333  4.432172  -1.061696
H    2.376672  3.098247  2.452562
H    1.804745  1.943041  1.369925
H    2.697337  5.232754  1.750313
N    -4.416329  1.133699  2.662522
C    -4.620856  2.537292  2.984625
H    -5.155470  0.479591  2.899856
H    -5.653684  2.664062  3.325544
H    -4.481505  3.191356  2.112242
H    -3.958679  2.884199  3.792695
