35
Energy: -21190.2347982 eV PBE+vdW (tier 2 basis)
C    0.196032  2.508970  1.346053
C    0.165260  1.102098  1.910092
O    0.949638  0.715939  2.775139
H    1.080459  3.014569  1.741462
H    -0.701489  3.072341  1.638864
H    0.228997  2.510220  0.247867
N    -0.791800  0.253835  1.406943
C    -1.884435  0.582845  0.503638
C    -3.001005  1.477297  1.093908
O    -3.460874  2.395657  0.412045
H    -0.780738  -0.664756  1.842088
H    -1.496941  1.206894  -0.312526
C    -2.479495  -0.691541  -0.120898
C    -1.532078  -1.446017  -1.068597
C    -1.087888  -0.673277  -2.324698
N    -2.179397  -0.214881  -3.189040
C    -2.922232  0.924862  -2.869289
N    -2.130041  2.027688  -2.547907
N    -4.208629  0.854630  -2.863539
H    -3.394019  -0.406939  -0.658942
H    -2.797409  -1.377494  0.681698
H    -2.040157  -2.371172  -1.385071
H    -0.624040  -1.768565  -0.532994
H    -0.428221  -1.320830  -2.920703
H    -0.486570  0.200428  -2.044279
H    -2.826202  -0.956593  -3.451884
H    -1.356805  2.221809  -3.176483
H    -2.641465  2.846616  -2.239598
H    -4.628681  1.781600  -2.754967
N    -3.468448  1.248509  2.356325
C    -3.122414  0.214693  3.321095
H    -4.186747  1.914323  2.623740
H    -3.889380  0.211957  4.103550
H    -2.146780  0.387635  3.796472
H    -3.123142  -0.784969  2.867282
