35
Energy: -21190.4843915 eV PBE+vdW (tier 2 basis)
C    0.281777  0.548074  0.527712
C    -0.051471  0.344856  1.991096
O    0.737337  0.675003  2.888285
H    0.387479  1.624488  0.339812
H    -0.472089  0.140251  -0.155810
H    1.251969  0.081616  0.318623
N    -1.260330  -0.207786  2.246820
C    -1.759682  -0.496469  3.577916
C    -2.910971  -1.493793  3.378608
O    -3.438163  -1.647083  2.274172
H    -1.885210  -0.511454  1.499665
H    -0.947809  -0.973965  4.150225
C    -2.230963  0.776092  4.346039
C    -1.255063  1.239961  5.431127
C    -1.397809  2.729040  5.773900
N    -1.284035  3.627311  4.618470
C    -0.070471  4.203268  4.236023
N    1.013357  3.333938  4.261666
N    -0.069304  5.459894  3.930916
H    -3.232359  0.615659  4.774100
H    -2.340765  1.577082  3.602029
H    -1.398345  0.663081  6.359073
H    -0.228834  1.038342  5.098678
H    -0.657517  2.989587  6.548282
H    -2.392646  2.907991  6.208409
H    -1.995558  4.351166  4.589654
H    1.871887  3.749777  3.918093
H    0.864357  2.395697  3.878663
H    0.827255  5.736012  3.520506
N    -3.334699  -2.189140  4.469502
C    -2.847737  -2.112093  5.836010
H    -4.140806  -2.777204  4.281666
H    -3.064537  -3.058773  6.343575
H    -3.315693  -1.295682  6.407588
H    -1.761439  -1.966216  5.856798
