35
Energy: -21190.7061284 eV PBE+vdW (tier 2 basis)
C    0.073087  0.285558  0.031410
C    0.071345  0.140680  1.537952
O    1.121622  0.172357  2.195232
H    0.497956  1.264420  -0.224678
H    -0.921932  0.200685  -0.421738
H    0.731569  -0.478793  -0.398724
N    -1.145313  -0.032132  2.118081
C    -1.387702  -0.038755  3.560887
C    -1.050275  -1.404614  4.232743
O    -1.833235  -2.011362  4.973057
H    -1.962705  -0.070031  1.520219
H    -0.658045  0.666030  3.993684
C    -2.802440  0.479152  3.880977
C    -3.964495  0.043167  2.973002
C    -4.287864  -1.460597  2.916592
N    -4.595678  -2.057774  4.201490
C    -5.811055  -1.825783  4.804428
N    -5.852384  -2.291784  6.128014
N    -6.762161  -1.210838  4.178787
H    -2.762312  1.577770  3.867323
H    -3.024072  0.189727  4.917050
H    -3.818303  0.408888  1.939693
H    -4.869349  0.559614  3.323149
H    -3.450127  -2.032165  2.487835
H    -5.157239  -1.602116  2.261529
H    -3.778286  -2.166382  4.804529
H    -6.791210  -2.383600  6.500078
H    -5.289956  -3.119407  6.309042
H    -7.620885  -1.204215  4.733732
N    0.203133  -1.835835  3.980755
C    0.721445  -3.064679  4.552260
H    0.812752  -1.217258  3.432381
H    1.684487  -3.291654  4.083502
H    0.027799  -3.895847  4.371653
H    0.864517  -2.978350  5.639668
