35
Energy: -21190.8759012 eV PBE+vdW (tier 2 basis)
C    -0.899050  -4.454363  1.465405
C    -0.845115  -2.981104  1.802511
O    0.169731  -2.293039  1.609787
H    -1.770162  -4.957928  1.902716
H    0.022081  -4.932325  1.817605
H    -0.931127  -4.567269  0.373096
N    -1.993767  -2.466074  2.318322
C    -2.121866  -1.065249  2.708412
C    -1.510255  -0.812476  4.117637
O    -2.176162  -0.493030  5.114022
H    -2.703321  -3.136143  2.623608
H    -1.466409  -0.516758  2.014945
C    -3.555043  -0.512220  2.533677
C    -4.755462  -1.464190  2.675670
C    -5.193948  -1.860383  4.099323
N    -4.191206  -2.472143  4.958859
C    -3.629680  -3.695338  4.666572
N    -2.466876  -3.953582  5.387309
N    -4.012554  -4.572247  3.784787
H    -3.605784  -0.091183  1.520148
H    -3.667339  0.331205  3.230590
H    -4.592642  -2.360718  2.058772
H    -5.622902  -0.963454  2.217779
H    -6.067022  -2.528703  4.031554
H    -5.538293  -0.962375  4.631005
H    -3.529500  -1.782071  5.332621
H    -2.221038  -4.937569  5.382982
H    -2.404535  -3.519015  6.301619
H    -4.852135  -4.256976  3.294781
N    -0.168390  -0.955053  4.132399
C    0.612866  -0.874663  5.350366
H    0.265578  -1.290907  3.263654
H    1.610756  -0.482915  5.122053
H    0.722044  -1.860166  5.830165
H    0.110525  -0.202574  6.054249
