35
Energy: -21190.2078235 eV PBE+vdW (tier 2 basis)
C    -1.173551  1.445524  -0.064439
C    -0.134171  0.827989  0.848965
O    1.025890  1.232696  0.906678
H    -0.680105  2.202950  -0.678353
H    -1.981775  1.918577  0.511261
H    -1.640875  0.693510  -0.714949
N    -0.541743  -0.228354  1.628469
C    -1.893820  -0.731160  1.815629
C    -2.880544  0.223300  2.529012
O    -4.050628  0.263314  2.148499
H    0.196047  -0.592377  2.224992
H    -2.363405  -0.878197  0.831695
C    -1.877863  -2.094265  2.524557
C    -1.225247  -3.208784  1.704723
C    -1.394168  -4.595495  2.336792
N    -2.793504  -4.991517  2.471979
C    -3.459401  -5.561219  1.398217
N    -4.744586  -6.005270  1.748819
N    -2.881989  -5.665195  0.251551
H    -2.921909  -2.367721  2.731461
H    -1.380278  -1.996646  3.505999
H    -0.148622  -3.023752  1.569939
H    -1.663871  -3.234497  0.696662
H    -0.956816  -4.606075  3.346032
H    -0.856784  -5.335235  1.724399
H    -3.069185  -5.351901  3.377403
H    -5.314297  -6.267039  0.951286
H    -5.249519  -5.385811  2.378238
H    -3.525036  -6.022010  -0.458486
N    -2.457591  0.997075  3.573393
C    -1.171002  1.058857  4.253875
H    -3.206154  1.575579  3.941691
H    -1.314821  1.599332  5.196232
H    -0.404573  1.585714  3.669345
H    -0.794069  0.059604  4.509081
