35
Energy: -21190.2010122 eV PBE+vdW (tier 2 basis)
C    -0.253940  -0.206985  0.029987
C    -0.188690  -0.044873  1.536400
O    0.877527  0.080495  2.134220
H    0.124602  -1.206182  -0.224419
H    0.414432  0.525915  -0.435326
H    -1.262377  -0.096681  -0.387566
N    -1.402335  -0.044530  2.174988
C    -1.604269  -0.113413  3.624354
C    -0.447066  0.526683  4.430811
O    0.206940  -0.119003  5.249662
H    -2.223134  -0.217502  1.605363
H    -2.485206  0.517263  3.839463
C    -1.949474  -1.542755  4.093059
C    -0.956588  -2.645775  3.676850
C    -0.180584  -3.268894  4.854573
N    1.005317  -4.016512  4.459643
C    2.037109  -3.412587  3.741157
N    2.353783  -2.117184  4.125095
N    2.649224  -4.122897  2.847864
H    -2.951044  -1.768243  3.696149
H    -2.059093  -1.513960  5.187574
H    -0.220782  -2.240018  2.970017
H    -1.482955  -3.442662  3.131584
H    -0.827494  -3.955334  5.419712
H    0.102327  -2.474044  5.557166
H    0.831800  -4.940018  4.072069
H    2.774333  -1.562928  3.388122
H    1.652933  -1.578711  4.632911
H    3.466974  -3.622795  2.488493
N    -0.294073  1.879223  4.330642
C    -0.854013  2.783628  3.343560
H    0.510455  2.208934  4.856235
H    -0.787839  3.807608  3.729043
H    -1.914294  2.564977  3.169175
H    -0.324648  2.736304  2.379125
