35
Energy: -21190.6715686 eV PBE+vdW (tier 2 basis)
C    1.122155  0.793426  0.464994
C    0.009509  0.748114  1.498923
O    -0.447380  1.772462  2.009513
H    1.993030  1.292376  0.908214
H    0.791931  1.405589  -0.383564
H    1.421889  -0.195536  0.097402
N    -0.452887  -0.499310  1.797678
C    -1.404556  -0.749195  2.865656
C    -1.285813  -2.254792  3.195406
O    -0.350579  -2.928368  2.745617
H    0.080539  -1.328871  1.535594
H    -1.086363  -0.188839  3.763742
C    -2.835523  -0.303047  2.530883
C    -3.474055  -1.036661  1.339614
C    -5.002469  -1.202594  1.466630
N    -5.463991  -2.465217  2.035694
C    -5.613496  -2.732833  3.369962
N    -6.247585  -3.960402  3.599549
N    -5.151481  -1.935068  4.284222
H    -2.804432  0.777449  2.339059
H    -3.464077  -0.433894  3.422548
H    -3.030161  -2.036723  1.210774
H    -3.251999  -0.492599  0.410829
H    -5.469060  -1.130093  0.474060
H    -5.422766  -0.393804  2.080132
H    -5.485562  -3.266187  1.416545
H    -6.430761  -4.160682  4.576236
H    -7.045270  -4.165201  3.004112
H    -5.502114  -2.196731  5.208329
N    -2.248966  -2.752475  4.005492
C    -2.295498  -4.154558  4.372959
H    -3.092358  -2.199483  4.195184
H    -2.260211  -4.277430  5.464951
H    -1.428594  -4.656246  3.930866
H    -3.215879  -4.625445  3.997809
