35
Energy: -21190.0480676 eV PBE+vdW (tier 2 basis)
C    -0.092014  -2.198776  0.255004
C    0.419482  -0.849368  0.711247
O    1.579434  -0.492995  0.447262
H    -0.913435  -2.092720  -0.467161
H    -0.458319  -2.795325  1.099736
H    0.731868  -2.723261  -0.235749
N    -0.392710  -0.046072  1.451137
C    -1.853480  -0.006973  1.511040
C    -2.427661  -1.342455  2.060228
O    -2.056241  -1.707479  3.172440
H    0.018656  0.876607  1.653872
H    -2.067759  0.660126  2.362579
C    -2.461092  0.665317  0.265344
C    -2.154670  2.168465  0.111247
C    -0.700059  2.604669  -0.130327
N    0.040308  2.787970  1.133767
C    1.398688  3.193992  1.070958
N    2.193584  2.368880  0.303972
N    1.719178  4.265377  1.713236
H    -3.555964  0.569892  0.310371
H    -2.133718  0.141235  -0.645462
H    -2.550947  2.713655  0.985143
H    -2.746067  2.525231  -0.745022
H    -0.702911  3.546592  -0.706893
H    -0.170673  1.864083  -0.744185
H    -0.424636  3.474876  1.729296
H    3.183010  2.584471  0.340472
H    1.993550  1.356529  0.329304
H    2.734507  4.401709  1.724842
N    -3.370663  -2.080112  1.390771
C    -3.875620  -2.054186  0.026308
H    -3.658199  -2.871183  1.959727
H    -4.323695  -3.031754  -0.183289
H    -3.078427  -1.897251  -0.709700
H    -4.650302  -1.289620  -0.128835
