35
Energy: -21190.5932464 eV PBE+vdW (tier 2 basis)
C    -2.634619  -0.483525  1.179401
C    -2.310314  -0.274069  2.640297
O    -1.862718  0.795031  3.062218
H    -2.731553  -1.539260  0.897238
H    -1.863181  -0.007468  0.565093
H    -3.589346  0.023578  0.977398
N    -2.562440  -1.343966  3.463703
C    -2.600516  -1.205558  4.919021
C    -1.799499  -2.298662  5.651155
O    -2.026548  -2.566310  6.828520
H    -3.091987  -2.112246  3.061875
H    -2.053871  -0.269543  5.113419
C    -4.047163  -1.086547  5.449672
C    -4.244894  -0.116210  6.618944
C    -3.771027  1.335657  6.346480
N    -3.931368  1.828313  4.987661
C    -5.158720  1.948292  4.368158
N    -5.052360  2.063059  2.971845
N    -6.335428  1.939833  4.899886
H    -4.404673  -2.080654  5.752064
H    -4.678570  -0.754562  4.613629
H    -3.722070  -0.487849  7.511321
H    -5.317246  -0.118744  6.861066
H    -2.699786  1.427271  6.571754
H    -4.278302  2.015192  7.049623
H    -3.145666  1.635586  4.365765
H    -4.237355  2.579817  2.650785
H    -5.916492  2.426353  2.579780
H    -6.287106  1.774066  5.907025
N    -0.820023  -2.893823  4.914050
C    0.099707  -3.864516  5.473433
H    -0.695313  -2.570573  3.961213
H    -0.243262  -4.099528  6.486740
H    1.122158  -3.463852  5.530559
H    0.112551  -4.785586  4.875208
