35
Energy: -21190.1434888 eV PBE+vdW (tier 2 basis)
C    0.166163  -0.020297  0.741753
C    -0.146241  -0.080784  2.222010
O    0.738367  -0.089938  3.075123
H    1.203447  0.308088  0.635443
H    -0.496410  0.646534  0.179010
H    0.071236  -1.020672  0.295863
N    -1.465140  -0.165446  2.617125
C    -2.707835  -0.122177  1.843786
C    -2.702858  -1.124866  0.662207
O    -2.848927  -0.759170  -0.502384
H    -1.553772  -0.187046  3.628841
H    -3.483719  -0.480447  2.541849
C    -3.108531  1.291169  1.394888
C    -4.587451  1.417257  1.023193
C    -4.958480  2.842030  0.617760
N    -6.366394  2.926712  0.268503
C    -6.964651  4.154487  -0.000203
N    -8.278796  4.011179  -0.459632
N    -6.458054  5.332332  0.121298
H    -2.486421  1.589513  0.539507
H    -2.870779  1.973932  2.224590
H    -5.219703  1.114446  1.874061
H    -4.809552  0.731706  0.191253
H    -4.305475  3.172329  -0.213694
H    -4.774068  3.526812  1.460524
H    -6.701983  2.168346  -0.319672
H    -8.735367  4.916376  -0.526102
H    -8.836962  3.337820  0.058604
H    -5.456210  5.293654  0.321078
N    -2.541894  -2.444448  0.974672
C    -2.355601  -3.064692  2.276649
H    -2.521582  -3.044057  0.155666
H    -2.580759  -4.133084  2.185800
H    -3.047286  -2.647105  3.020352
H    -1.330269  -2.951707  2.656519
