35
Energy: -21190.3055576 eV PBE+vdW (tier 2 basis)
C    1.633126  0.268715  2.862460
C    0.985639  -0.630961  3.896149
O    1.633528  -1.402413  4.597148
H    1.345935  -0.030839  1.844491
H    2.716971  0.172084  2.964256
H    1.348608  1.321758  2.992358
N    -0.384336  -0.538517  4.050766
C    -1.345575  0.048408  3.121497
C    -2.512760  0.748049  3.866330
O    -3.570791  0.995338  3.294860
H    -0.737703  -1.260200  4.676655
H    -0.828848  0.866926  2.597869
C    -1.881477  -0.924220  2.055589
C    -2.479755  -2.236126  2.593808
C    -1.471033  -3.399322  2.664220
N    -2.039215  -4.674746  3.058000
C    -2.757763  -5.473052  2.175904
N    -3.344424  -6.571102  2.816972
N    -2.930223  -5.317058  0.908513
H    -1.065365  -1.150836  1.351212
H    -2.644853  -0.372786  1.493066
H    -3.312663  -2.542764  1.946438
H    -2.932085  -2.075915  3.587092
H    -0.647865  -3.174418  3.357718
H    -0.996565  -3.532537  1.679372
H    -2.328976  -4.749387  4.027926
H    -3.749016  -7.204664  2.133180
H    -2.731481  -7.057317  3.466677
H    -2.572144  -4.417440  0.580950
N    -2.247833  1.087326  5.157517
C    -3.184958  1.827177  5.980035
H    -1.321402  0.872156  5.511212
H    -2.830027  2.849509  6.175081
H    -3.347243  1.319520  6.939958
H    -4.133751  1.882590  5.435859
