35
Energy: -21190.6721941 eV PBE+vdW (tier 2 basis)
C    -0.393440  -0.867222  0.277579
C    -0.414261  -0.889517  1.795084
O    0.547961  -1.307499  2.452005
H    0.540397  -0.397662  -0.054410
H    -1.249737  -0.335826  -0.154993
H    -0.387606  -1.901272  -0.092080
N    -1.561028  -0.420391  2.353024
C    -1.738817  -0.309110  3.793083
C    -2.667210  -1.449215  4.275351
O    -3.889447  -1.375475  4.129821
H    -2.312055  -0.039534  1.746772
H    -0.737378  -0.413377  4.231064
C    -2.348823  1.037318  4.209969
C    -1.608019  2.289349  3.719054
C    -1.927252  2.744416  2.282377
N    -3.348071  2.943687  2.032660
C    -4.124765  2.055366  1.335742
N    -5.446588  2.486940  1.178449
N    -3.627876  0.959587  0.852031
H    -2.373523  1.047756  5.310091
H    -3.401041  1.062374  3.893885
H    -0.517499  2.146878  3.792253
H    -1.852925  3.120084  4.399743
H    -1.563245  2.019544  1.546727
H    -1.406812  3.692654  2.082381
H    -3.726008  3.872408  2.163619
H    -6.073430  1.760848  0.848813
H    -5.838094  2.974412  1.980316
H    -4.354675  0.376533  0.435064
N    -2.086125  -2.545496  4.838231
C    -0.678175  -2.809508  5.107049
H    -2.764764  -3.243983  5.127469
H    -0.523811  -3.895084  5.119201
H    -0.359621  -2.409034  6.083002
H    -0.043557  -2.390185  4.315935
