35
Energy: -21190.6124156 eV PBE+vdW (tier 2 basis)
C    -1.325556  -0.046982  -0.154093
C    -0.868121  -0.064309  1.289004
O    0.322128  0.084348  1.598200
H    -0.804103  -0.841260  -0.702517
H    -1.028604  0.909499  -0.601984
H    -2.407873  -0.175582  -0.274623
N    -1.840420  -0.254997  2.219738
C    -1.602859  -0.188817  3.663496
C    -1.083054  -1.550614  4.205700
O    -1.756120  -2.268508  4.943317
H    -2.796686  -0.391309  1.909781
H    -0.800521  0.553075  3.807761
C    -2.872804  0.257168  4.382391
C    -3.305925  1.679562  4.022465
C    -4.705612  2.007731  4.555395
N    -5.239033  3.286077  4.105577
C    -5.721008  3.422972  2.816442
N    -6.069713  4.750459  2.520158
N    -5.788495  2.408326  2.020773
H    -2.705579  0.155577  5.463614
H    -3.678748  -0.458277  4.149544
H    -3.329524  1.807574  2.931026
H    -2.575053  2.406396  4.414303
H    -4.715049  2.008000  5.655718
H    -5.410160  1.235420  4.219285
H    -4.790009  4.114540  4.482091
H    -6.566376  4.854939  1.641980
H    -6.534906  5.247336  3.276024
H    -6.286530  2.650089  1.161042
N    0.176295  -1.837436  3.782806
C    0.836270  -3.090107  4.089739
H    0.588255  -1.193537  3.100595
H    1.848462  -2.910395  4.476244
H    0.910041  -3.737548  3.202814
H    0.246192  -3.607831  4.853455
