35
Energy: -21190.4497881 eV PBE+vdW (tier 2 basis)
C    0.257820  -0.301174  2.569912
C    -0.557974  0.919080  2.180475
O    -0.253544  2.042933  2.600078
H    1.183051  0.046941  3.036824
H    0.501851  -0.935033  1.706929
H    -0.284034  -0.918967  3.300914
N    -1.612979  0.746527  1.332294
C    -2.368122  -0.486077  1.171398
C    -3.044102  -0.481892  -0.210633
O    -3.663775  0.491894  -0.633919
H    -2.203801  1.591721  1.215620
H    -1.667704  -1.332064  1.221310
C    -3.418530  -0.690144  2.295595
C    -4.550820  0.342802  2.442362
C    -4.177444  1.774867  2.856280
N    -3.741753  2.597810  1.714346
C    -3.396172  3.955999  1.920301
N    -2.442367  4.128437  2.904835
N    -3.874883  4.961149  1.270052
H    -2.862639  -0.746490  3.245602
H    -3.875636  -1.682358  2.149585
H    -5.223382  -0.046011  3.221678
H    -5.152858  0.376764  1.521071
H    -3.374285  1.762726  3.605781
H    -5.054604  2.235415  3.345267
H    -4.360902  2.492356  0.912513
H    -2.136997  5.094956  2.958906
H    -1.665512  3.456537  2.888318
H    -4.663356  4.675048  0.682720
N    -2.940929  -1.657541  -0.895287
C    -3.553801  -1.867134  -2.194237
H    -2.374752  -2.396981  -0.498114
H    -4.244296  -2.721222  -2.173215
H    -2.794867  -2.039903  -2.969691
H    -4.112844  -0.959207  -2.443298
