35
Energy: -21190.2623525 eV PBE+vdW (tier 2 basis)
C    0.547576  -0.938086  2.046787
C    0.232030  0.207551  2.997946
O    1.114467  0.754753  3.655558
H    1.618471  -1.143516  2.122761
H    0.314019  -0.671575  1.005612
H    -0.011463  -1.850246  2.292720
N    -1.074530  0.607972  3.101453
C    -2.225714  0.168074  2.337700
C    -2.952190  1.421944  1.815274
O    -2.902435  2.482139  2.435193
H    -1.221333  1.462876  3.637891
H    -1.874962  -0.443833  1.495890
C    -3.226908  -0.657874  3.180488
C    -2.644087  -1.966278  3.712138
C    -3.634937  -2.806634  4.529752
N    -4.744498  -3.354697  3.763056
C    -5.981387  -2.742236  3.713786
N    -6.853295  -3.390276  2.817717
N    -6.230381  -1.682356  4.403480
H    -4.121752  -0.865213  2.575805
H    -3.574438  -0.034381  4.017212
H    -1.773412  -1.750040  4.350745
H    -2.265253  -2.576982  2.872746
H    -4.081031  -2.201208  5.328714
H    -3.095225  -3.641758  5.001863
H    -4.504083  -3.921050  2.957033
H    -7.811832  -3.065281  2.890907
H    -6.809048  -4.406730  2.848177
H    -7.216969  -1.422747  4.343691
N    -3.681240  1.296715  0.667620
C    -3.866284  0.116767  -0.159693
H    -4.201770  2.135093  0.429165
H    -4.508361  -0.640977  0.315866
H    -2.906190  -0.351024  -0.416584
H    -4.341461  0.422194  -1.097930
