35
Energy: -21190.585188 eV PBE+vdW (tier 2 basis)
C    -1.774348  0.295684  0.440482
C    -1.039382  0.407914  1.762926
O    0.030370  -0.164741  1.972294
H    -1.982121  -0.763180  0.242813
H    -1.116487  0.654507  -0.360828
H    -2.715073  0.858807  0.410172
N    -1.640021  1.197134  2.701181
C    -1.112518  1.325425  4.044667
C    -2.305916  1.622874  4.961870
O    -3.381082  2.032931  4.490332
H    -2.581935  1.559966  2.572657
H    -0.679981  0.350276  4.323176
C    0.044766  2.358172  4.136950
C    -0.197736  3.747715  3.535410
C    -1.329603  4.578723  4.153145
N    -1.260703  4.576806  5.611374
C    -2.315023  4.947765  6.440616
N    -3.583645  4.679862  5.941154
N    -2.021061  5.502005  7.572494
H    0.894014  1.899876  3.611711
H    0.345408  2.459468  5.187530
H    -0.393377  3.658997  2.456486
H    0.749754  4.304157  3.620791
H    -2.296600  4.165706  3.848929
H    -1.287269  5.604537  3.741853
H    -0.396747  4.949364  5.999374
H    -3.699031  3.850848  5.353008
H    -4.329322  4.803041  6.615222
H    -2.855906  5.632261  8.149425
N    -2.174748  1.405924  6.291433
C    -0.976046  1.092347  7.049692
H    -2.983544  1.718138  6.821938
H    -0.420516  2.001698  7.325300
H    -0.317330  0.430000  6.477653
H    -1.264818  0.565327  7.966349
