35
Energy: -21190.4222938 eV PBE+vdW (tier 2 basis)
C    2.502009  -0.088045  1.807807
C    1.306759  -0.917164  2.231909
O    1.446831  -2.061158  2.684098
H    3.010074  -0.605563  0.983974
H    3.208961  -0.033901  2.644300
H    2.248342  0.928341  1.483578
N    0.091598  -0.321480  2.080580
C    -1.231369  -0.928375  2.301566
C    -1.613176  -1.156942  3.787350
O    -2.701640  -0.755995  4.200733
H    0.090339  0.633975  1.747046
H    -1.951388  -0.168722  1.971788
C    -1.465895  -2.206941  1.473404
C    -1.352363  -1.984629  -0.034800
C    -1.562414  -3.272000  -0.827793
N    -1.425125  -3.011131  -2.261516
C    -1.591005  -4.000043  -3.231724
N    -1.225469  -5.278292  -2.818386
N    -2.034899  -3.832052  -4.431138
H    -2.474223  -2.566582  1.728291
H    -0.758009  -2.984257  1.792106
H    -0.361872  -1.575247  -0.285882
H    -2.096252  -1.232990  -0.353246
H    -2.546592  -3.714052  -0.584766
H    -0.803066  -4.004169  -0.515605
H    -1.839557  -2.130155  -2.551546
H    -1.190019  -5.916679  -3.607198
H    -0.405420  -5.338679  -2.222798
H    -2.392363  -2.882753  -4.568349
N    -0.706429  -1.841871  4.525748
C    -0.925925  -2.166315  5.921188
H    0.150513  -2.146574  4.051425
H    -0.110779  -1.777437  6.547131
H    -0.993488  -3.253641  6.070687
H    -1.869868  -1.707535  6.233863
