35
Energy: -21190.3114813 eV PBE+vdW (tier 2 basis)
C    -0.037642  -0.863707  -0.131698
C    0.310171  -0.050726  1.102048
O    1.421976  0.435058  1.276703
H    -0.786557  -0.342849  -0.745678
H    -0.443020  -1.852393  0.125764
H    0.874014  -0.991713  -0.720520
N    -0.679802  0.099264  2.049547
C    -2.081845  -0.236465  1.908152
C    -2.801916  0.709561  0.917911
O    -2.461039  1.884424  0.768747
H    -0.432031  0.768674  2.773744
H    -2.153852  -1.266409  1.523430
C    -2.770064  -0.211763  3.295029
C    -2.987409  1.189143  3.897847
C    -4.390245  1.756145  3.610653
N    -4.521580  3.159424  3.947794
C    -4.847786  4.168437  3.054458
N    -4.550232  3.895255  1.719640
N    -5.416522  5.229848  3.524433
H    -2.149014  -0.829614  3.958652
H    -3.738094  -0.731405  3.214387
H    -2.246494  1.905437  3.513511
H    -2.837284  1.151200  4.986136
H    -5.137585  1.163559  4.167073
H    -4.642821  1.634008  2.549915
H    -4.840073  3.391058  4.882320
H    -4.630571  4.707637  1.119247
H    -3.716429  3.341900  1.509683
H    -5.502444  5.953121  2.806712
N    -3.853008  0.161121  0.256334
C    -4.705287  0.941341  -0.629460
H    -4.085295  -0.809426  0.428512
H    -5.355654  0.260381  -1.187604
H    -4.087490  1.509058  -1.335991
H    -5.323115  1.656374  -0.067358
