35
Energy: -21190.3022615 eV PBE+vdW (tier 2 basis)
C    -2.161810  -1.941389  0.179975
C    -1.548576  -0.975457  1.174188
O    -0.629166  -0.215856  0.867241
H    -1.363623  -2.556960  -0.251771
H    -2.607124  -1.363559  -0.640418
H    -2.928690  -2.593592  0.614948
N    -2.114761  -0.980260  2.419025
C    -1.555651  -0.223454  3.522105
C    -1.638543  -1.125787  4.762823
O    -2.486270  -2.019426  4.831374
H    -2.750845  -1.723701  2.702059
H    -0.512922  0.001520  3.251414
C    -2.287680  1.111708  3.804503
C    -2.245355  2.128086  2.650317
C    -3.414846  2.003635  1.671019
N    -3.268191  2.969233  0.596343
C    -4.214419  3.200951  -0.387172
N    -5.531715  2.896033  -0.025345
N    -3.833945  3.751424  -1.491427
H    -1.826572  1.565089  4.693907
H    -3.329108  0.886348  4.085714
H    -2.258296  3.148764  3.059412
H    -1.299077  2.015370  2.099415
H    -4.344244  2.219287  2.223858
H    -3.486854  0.964704  1.298984
H    -2.329671  3.070639  0.220088
H    -6.167491  2.848694  -0.812724
H    -5.666275  2.128254  0.624679
H    -4.626902  3.935536  -2.110156
N    -0.775268  -0.887394  5.788245
C    0.278435  0.108455  5.881372
H    -0.945094  -1.476991  6.597923
H    1.081305  -0.277821  6.520087
H    -0.076018  1.059687  6.308180
H    0.710216  0.311783  4.895281
