35
Energy: -21190.231783 eV PBE+vdW (tier 2 basis)
C    -0.306803  0.877793  1.419178
C    -1.154563  0.265056  2.521058
O    -0.718572  0.139980  3.661904
H    -0.875333  1.400312  0.642190
H    0.272741  0.083608  0.927467
H    0.399840  1.569523  1.887020
N    -2.408592  -0.225687  2.196671
C    -3.240833  0.183988  1.058667
C    -2.677618  -0.232553  -0.315800
O    -2.905246  0.422838  -1.331609
H    -2.960575  -0.433886  3.037550
H    -4.141659  -0.439866  1.157794
C    -3.673281  1.665088  1.115057
C    -5.084154  2.006523  0.614725
C    -6.259679  1.120856  1.104557
N    -6.146965  0.466071  2.416616
C    -5.568782  1.024171  3.544379
N    -5.891802  2.359488  3.753457
N    -4.777055  0.286867  4.255813
H    -2.962162  2.273145  0.539355
H    -3.581282  1.979227  2.162025
H    -5.101874  1.983792  -0.484087
H    -5.278079  3.047490  0.908878
H    -6.420158  0.298034  0.395656
H    -7.183804  1.719776  1.062255
H    -5.901284  -0.517126  2.377343
H    -5.598772  2.743685  4.643607
H    -6.822958  2.649479  3.471685
H    -4.521629  0.732526  5.140182
N    -1.991744  -1.407501  -0.304094
C    -1.393721  -1.982479  -1.491036
H    -1.809508  -1.815879  0.607619
H    -1.702895  -3.028556  -1.619774
H    -1.734931  -1.398629  -2.352625
H    -0.294906  -1.941973  -1.450618
