35
Energy: -21190.1642742 eV PBE+vdW (tier 2 basis)
C    -0.699205  -1.242994  1.875938
C    -1.005997  -0.484813  3.150151
O    -0.247761  -0.497392  4.116626
H    -1.325565  -2.143251  1.804071
H    0.348700  -1.550809  1.919088
H    -0.873804  -0.653838  0.968150
N    -2.192521  0.216377  3.236379
C    -3.245241  0.456061  2.245132
C    -3.772360  -0.870137  1.654773
O    -3.687746  -1.145394  0.455145
H    -2.275615  0.705408  4.122855
H    -4.081835  0.876979  2.827808
C    -2.862744  1.502417  1.185255
C    -4.043235  2.118829  0.407786
C    -4.198693  1.635325  -1.044689
N    -2.997185  1.852339  -1.833943
C    -2.294958  0.896475  -2.563119
N    -2.579063  -0.417969  -2.243782
N    -1.428122  1.150923  -3.490566
H    -2.134519  1.084507  0.477249
H    -2.328689  2.291294  1.731662
H    -3.920553  3.212497  0.392565
H    -4.994901  1.937703  0.935715
H    -5.055923  2.159399  -1.502074
H    -4.441330  0.568704  -1.066444
H    -2.835161  2.799262  -2.154952
H    -1.932497  -1.059575  -2.687301
H    -2.839971  -0.655074  -1.287493
H    -1.396003  2.151236  -3.704651
N    -4.350102  -1.744910  2.523470
C    -4.528412  -1.625468  3.961833
H    -4.640012  -2.611107  2.079794
H    -4.909758  -0.632646  4.235178
H    -3.596410  -1.804505  4.516036
H    -5.274867  -2.361601  4.279168
