35
Energy: -21190.3205134 eV PBE+vdW (tier 2 basis)
C    -0.278312  0.058804  -1.497617
C    0.359769  0.210879  -0.125291
O    1.577884  0.279597  0.017361
H    -0.895559  -0.847129  -1.570773
H    0.525243  0.001924  -2.236282
H    -0.919981  0.919036  -1.738107
N    -0.482248  0.284572  0.953614
C    -1.929810  0.220750  0.974419
C    -2.391704  1.001209  2.217181
O    -1.639567  1.107107  3.195335
H    -0.044145  0.465809  1.856293
H    -2.327522  0.699242  0.067795
C    -2.476968  -1.234904  1.033645
C    -2.117347  -2.002604  2.321326
C    -3.336972  -2.579854  3.064877
N    -4.438493  -1.636680  3.254795
C    -4.610439  -0.777069  4.332295
N    -3.473386  -0.553203  5.098759
N    -5.722186  -0.197333  4.659159
H    -2.092780  -1.762370  0.150366
H    -3.569707  -1.192661  0.918992
H    -1.552739  -1.351068  3.001928
H    -1.437700  -2.835709  2.095147
H    -3.014426  -2.982183  4.037073
H    -3.746021  -3.422378  2.489108
H    -5.310596  -1.885150  2.806729
H    -3.676453  0.126527  5.826338
H    -2.625558  -0.304466  4.588813
H    -6.510347  -0.566490  4.118641
N    -3.643629  1.521566  2.236673
C    -4.707478  1.374780  1.261449
H    -3.914328  1.875080  3.151942
H    -5.303258  0.466179  1.439272
H    -4.302888  1.340164  0.244029
H    -5.372572  2.243215  1.326897
