35
Energy: -21190.0645585 eV PBE+vdW (tier 2 basis)
C    -0.292326  -1.113219  -0.679021
C    -0.012670  -0.426459  0.641154
O    1.132655  -0.189853  1.019842
H    -0.420766  -0.345171  -1.455449
H    -1.189248  -1.742333  -0.685705
H    0.586387  -1.709891  -0.940114
N    -1.077793  -0.028886  1.420720
C    -2.520236  -0.210918  1.240373
C    -2.921119  -1.701986  1.096678
O    -3.550730  -2.111895  0.123328
H    -0.770492  0.472342  2.248399
H    -2.961714  0.133880  2.190722
C    -3.132708  0.632060  0.114134
C    -2.842296  2.125123  0.254929
C    -3.458088  2.945255  -0.886957
N    -3.176921  4.373250  -0.806148
C    -4.071426  5.345772  -0.387698
N    -5.128324  4.861165  0.387576
N    -4.023117  6.607021  -0.657646
H    -4.216959  0.447824  0.109911
H    -2.773802  0.260449  -0.856155
H    -1.756635  2.304359  0.275787
H    -3.228580  2.497806  1.219758
H    -4.548294  2.802656  -0.913531
H    -3.072468  2.570217  -1.847911
H    -2.424220  4.723436  -1.384220
H    -4.873645  4.194879  1.111331
H    -5.675440  5.635483  0.752435
H    -3.301646  6.814094  -1.353847
N    -2.550759  -2.544876  2.105236
C    -1.841212  -2.252108  3.340136
H    -2.818845  -3.508186  1.929947
H    -0.758074  -2.139924  3.189621
H    -2.013114  -3.076814  4.040748
H    -2.223414  -1.338110  3.814615
