35
Energy: -21190.1945752 eV PBE+vdW (tier 2 basis)
C    0.044058  0.774239  1.247422
C    -0.359434  0.419158  2.662138
O    0.460214  0.363782  3.587499
H    -0.704372  1.386289  0.729817
H    0.194866  -0.141316  0.655968
H    0.999016  1.305353  1.290576
N    -1.677468  0.148902  2.901769
C    -2.666623  -0.318298  1.936732
C    -3.759306  0.715217  1.584940
O    -4.062612  0.885482  0.403496
H    -1.852209  -0.111420  3.871982
H    -2.165738  -0.480170  0.974455
C    -3.289854  -1.649899  2.400042
C    -2.432015  -2.915841  2.239606
C    -1.031099  -2.995166  2.896310
N    -0.833970  -2.420179  4.230383
C    -1.769055  -2.382131  5.247622
N    -2.653317  -3.460390  5.280443
N    -1.900594  -1.438450  6.126519
H    -4.209851  -1.804617  1.817540
H    -3.611152  -1.556145  3.448030
H    -2.276892  -3.114193  1.166492
H    -3.045632  -3.746280  2.613132
H    -0.297517  -2.482603  2.259103
H    -0.729695  -4.057344  2.885730
H    -0.214883  -1.609288  4.239558
H    -3.182220  -3.466687  6.147519
H    -2.239851  -4.363610  5.068305
H    -1.235396  -0.678420  5.951771
N    -4.396089  1.395880  2.582178
C    -4.182183  1.386582  4.022957
H    -5.072915  2.059476  2.217664
H    -4.060977  0.370396  4.417864
H    -5.071888  1.809552  4.502713
H    -3.309843  1.985142  4.323491
