35
Energy: -21190.2172108 eV PBE+vdW (tier 2 basis)
C    -0.631984  -0.142702  -0.955887
C    -0.006911  -0.153603  0.426693
O    1.210835  -0.169575  0.582943
H    -0.936014  0.879682  -1.222608
H    -1.510812  -0.793473  -1.041272
H    0.130973  -0.468935  -1.667737
N    -0.841865  -0.098794  1.520121
C    -2.295841  -0.182010  1.587286
C    -2.809984  -1.543196  1.027589
O    -2.193478  -2.578137  1.256342
H    -0.332525  -0.211643  2.390007
H    -2.520195  -0.253057  2.663956
C    -3.017684  1.072077  1.063612
C    -2.512632  2.381881  1.669677
C    -3.303896  3.617513  1.211131
N    -4.714055  3.615369  1.565974
C    -5.716163  3.082890  0.767051
N    -6.943144  3.007544  1.437502
N    -5.644250  2.656433  -0.448632
H    -4.088027  0.973980  1.298711
H    -2.939218  1.126656  -0.033040
H    -1.452757  2.532258  1.415128
H    -2.553225  2.319129  2.770834
H    -3.230998  3.737073  0.119994
H    -2.846113  4.519922  1.642600
H    -4.911459  3.599603  2.561580
H    -7.688260  2.773906  0.787219
H    -7.174575  3.825118  1.996037
H    -4.684851  2.666072  -0.799695
N    -3.977298  -1.503348  0.322943
C    -4.605355  -2.700238  -0.206206
H    -4.418172  -0.608991  0.144043
H    -5.615234  -2.831523  0.206104
H    -3.984939  -3.555070  0.081812
H    -4.673305  -2.659644  -1.302188
