35
Energy: -21190.1735181 eV PBE+vdW (tier 2 basis)
C    -0.949662  0.445468  -0.220288
C    -0.560520  0.379998  1.245125
O    0.607839  0.390732  1.617881
H    -0.666853  -0.502360  -0.697067
H    -0.371715  1.240772  -0.704383
H    -2.019600  0.619011  -0.390484
N    -1.609503  0.321957  2.128687
C    -1.453727  0.062435  3.560987
C    -0.250797  0.826535  4.164834
O    0.641857  0.248780  4.785013
H    -2.545222  0.240944  1.748203
H    -2.352856  0.486293  4.042971
C    -1.415148  -1.445539  3.860583
C    -1.630249  -1.835801  5.338690
C    -0.400197  -2.407852  6.071339
N    0.189979  -3.572100  5.439358
C    1.273351  -3.600482  4.565908
N    2.006785  -2.432577  4.477934
N    1.665686  -4.646699  3.907470
H    -0.474220  -1.859081  3.474638
H    -2.210397  -1.894686  3.248421
H    -2.435845  -2.584619  5.391969
H    -1.994742  -0.970110  5.917283
H    -0.704828  -2.680271  7.095224
H    0.370104  -1.637415  6.175295
H    -0.378371  -4.409661  5.407482
H    2.699658  -2.487461  3.740177
H    1.531308  -1.531344  4.536651
H    1.100136  -5.465696  4.147183
N    -0.275385  2.188809  4.104702
C    -1.177797  3.060473  3.376322
H    0.575251  2.602389  4.474765
H    -1.125991  4.062906  3.817213
H    -2.215000  2.715645  3.464375
H    -0.926015  3.134791  2.307044
