35
Energy: -21190.471163 eV PBE+vdW (tier 2 basis)
C    -0.092735  0.256054  -0.164505
C    -0.062305  0.270423  1.352519
O    0.994116  0.310512  1.982992
H    0.440218  1.139990  -0.535795
H    -1.105331  0.244820  -0.586343
H    0.452640  -0.627837  -0.518334
N    -1.288608  0.252081  1.959574
C    -1.438633  0.163877  3.404479
C    -2.171072  -1.155353  3.709593
O    -3.307314  -1.341204  3.260673
H    -2.122790  0.088113  1.404945
H    -0.416273  0.171351  3.797268
C    -2.236751  1.356913  3.957156
C    -2.327963  1.406558  5.486388
C    -1.003605  1.773204  6.172921
N    -1.106482  1.921584  7.615736
C    -1.030236  0.838960  8.463266
N    -1.192258  1.165795  9.814977
N    -0.743593  -0.336872  8.008090
H    -3.250271  1.308770  3.532647
H    -1.766613  2.276346  3.573979
H    -2.682787  0.443761  5.883955
H    -3.086279  2.155304  5.765828
H    -0.618749  2.719684  5.762624
H    -0.240922  1.006555  5.991361
H    -1.607686  2.734878  7.951698
H    -1.539050  0.406304  10.389235
H    -1.646051  2.048711  10.028457
H    -0.614680  -1.000973  8.774309
N    -1.521929  -2.090665  4.445711
C    -0.195825  -2.017375  5.055126
H    -2.081861  -2.919488  4.623221
H    0.125228  -3.039353  5.287766
H    -0.205409  -1.432287  5.988336
H    0.534693  -1.597976  4.352275
