35
Energy: -21190.1163434 eV PBE+vdW (tier 2 basis)
C    -0.133903  0.005363  -0.095461
C    0.136765  -0.035225  1.398541
O    1.280607  -0.111300  1.842419
H    0.823764  0.161118  -0.598844
H    -0.829821  0.801091  -0.389480
H    -0.559039  -0.947699  -0.439153
N    -0.937187  0.001394  2.254196
C    -2.369175  -0.049919  1.960768
C    -3.037886  1.022782  2.852335
O    -3.462647  0.746544  3.972087
H    -0.672472  -0.071208  3.235009
H    -2.494153  0.214821  0.902982
C    -3.021933  -1.418127  2.210184
C    -2.460629  -2.589236  1.390584
C    -1.227971  -3.276381  2.004431
N    -0.754957  -4.440489  1.256603
C    -1.513469  -5.593858  1.065962
N    -2.361697  -5.902201  2.129793
N    -1.493601  -6.369870  0.035844
H    -4.093527  -1.300611  1.989082
H    -2.972973  -1.637955  3.287155
H    -2.228064  -2.268695  0.361844
H    -3.244651  -3.353990  1.296092
H    -1.464544  -3.575564  3.036672
H    -0.376261  -2.589892  2.084477
H    -0.187913  -4.213771  0.446500
H    -2.757186  -6.830149  2.011739
H    -1.970746  -5.759401  3.056531
H    -0.942502  -5.963722  -0.725399
N    -3.100726  2.295065  2.358988
C    -2.508138  2.816037  1.138342
H    -3.470954  2.962488  3.028878
H    -1.409583  2.753645  1.145825
H    -2.787333  3.870435  1.042864
H    -2.888063  2.297876  0.246579
