35
Energy: -21190.3664813 eV PBE+vdW (tier 2 basis)
C    0.674415  -0.055683  0.807907
C    0.673642  0.329605  2.273718
O    1.605931  0.072691  3.028902
H    1.644601  -0.500404  0.573414
H    0.498147  0.808406  0.153042
H    -0.116038  -0.789821  0.595568
N    -0.437778  1.005920  2.738607
C    -1.673274  1.291479  2.016321
C    -1.550793  2.464282  1.016530
O    -2.331142  2.570557  0.071459
H    -0.442036  1.122647  3.749097
H    -1.969661  0.422388  1.409183
C    -2.792907  1.571256  3.039666
C    -4.201926  1.608185  2.444403
C    -5.282276  1.967219  3.475056
N    -5.349580  1.100121  4.656247
C    -5.528279  -0.276721  4.549973
N    -6.490444  -0.654714  3.612534
N    -4.803173  -1.055135  5.279847
H    -2.572048  2.524099  3.552566
H    -2.740378  0.774630  3.798638
H    -4.436348  0.626611  2.005080
H    -4.249651  2.332175  1.618801
H    -6.261839  1.982458  2.975558
H    -5.124006  2.988522  3.851754
H    -4.623223  1.277624  5.345087
H    -6.760907  -1.630154  3.659338
H    -7.286294  -0.030399  3.517114
H    -5.123481  -2.026186  5.230572
N    -0.562549  3.356267  1.295176
C    -0.305603  4.526627  0.480597
H    0.064438  3.121233  2.057901
H    -0.382480  5.447983  1.074351
H    -1.059488  4.549871  -0.313777
H    0.693212  4.483454  0.023752
