35
Energy: -21190.3563085 eV PBE+vdW (tier 2 basis)
C    0.116811  0.656183  -0.010893
C    0.150094  0.693239  1.509004
O    1.203867  0.771312  2.140446
H    0.753589  1.461292  -0.395179
H    -0.892959  0.761467  -0.425827
H    0.548685  -0.293696  -0.354446
N    -1.067479  0.602316  2.114129
C    -1.216570  0.700666  3.557184
C    -0.548880  -0.400657  4.407096
O    -0.127608  -0.110867  5.525143
H    -1.919356  0.575730  1.537808
H    -0.714215  1.615583  3.908041
C    -2.712012  0.759682  3.915175
C    -3.441058  1.937671  3.254362
C    -4.916402  1.666384  2.907441
N    -5.225088  0.365787  2.317167
C    -4.698969  -0.128896  1.152836
N    -5.305735  -1.328463  0.761266
N    -3.707788  0.452996  0.548938
H    -2.797388  0.801420  5.009009
H    -3.177444  -0.188130  3.601417
H    -2.926670  2.222484  2.329787
H    -3.409332  2.820323  3.910214
H    -5.267555  2.456820  2.226556
H    -5.536563  1.725638  3.812491
H    -5.706619  -0.302907  2.903092
H    -4.984724  -1.688305  -0.130482
H    -6.317447  -1.362296  0.851208
H    -3.549340  0.029258  -0.368381
N    -0.513919  -1.695728  3.965567
C    -0.935935  -2.290272  2.708430
H    -0.021278  -2.296621  4.618902
H    -1.923139  -1.928646  2.398118
H    -1.012393  -3.374612  2.856033
H    -0.225106  -2.103151  1.889240
