35
Energy: -21190.3289894 eV PBE+vdW (tier 2 basis)
C    -0.700291  -0.227382  -0.401567
C    -0.706034  0.265375  1.028536
O    0.299322  0.741374  1.551719
H    -0.835798  0.629204  -1.076965
H    -1.475592  -0.968508  -0.623608
H    0.288755  -0.650812  -0.604878
N    -1.870915  0.149230  1.772776
C    -3.259497  0.049866  1.297593
C    -3.685244  -1.381058  0.882340
O    -4.694313  -1.568039  0.206914
H    -1.747637  0.574532  2.688245
H    -3.869733  0.260506  2.191762
C    -3.642107  1.077259  0.218022
C    -3.318361  2.519743  0.607802
C    -3.264274  3.475805  -0.593730
N    -2.330573  3.060093  -1.644774
C    -1.011903  3.498166  -1.755377
N    -0.406009  3.830237  -0.546562
N    -0.339778  3.615446  -2.851484
H    -4.712300  0.952607  0.008648
H    -3.121395  0.831354  -0.717074
H    -2.351696  2.562431  1.132279
H    -4.060594  2.905013  1.325445
H    -3.008416  4.487466  -0.244835
H    -4.260148  3.535104  -1.056084
H    -2.753083  2.877820  -2.546343
H    -0.542820  3.178294  0.221345
H    0.577812  4.038233  -0.691722
H    -0.939825  3.499321  -3.673073
N    -2.895615  -2.375768  1.367363
C    -3.160815  -3.779402  1.124587
H    -2.077057  -2.093966  1.896590
H    -4.068868  -3.845426  0.515686
H    -3.322355  -4.321992  2.066421
H    -2.330629  -4.252677  0.581846
