35
Energy: -21190.457378 eV PBE+vdW (tier 2 basis)
C    0.962484  -1.236467  1.246968
C    0.173962  -0.031215  1.722314
O    0.723152  0.994124  2.125081
H    0.334003  -2.052775  0.871051
H    1.571827  -1.607712  2.080703
H    1.652181  -0.918936  0.455470
N    -1.187119  -0.159745  1.650051
C    -2.079909  0.816803  2.243645
C    -3.158627  0.032159  3.005713
O    -3.429410  -1.129401  2.690911
H    -1.610792  -1.075812  1.510211
H    -1.467319  1.431320  2.920895
C    -2.749271  1.730449  1.192045
C    -1.752735  2.589219  0.411262
C    -2.414518  3.483629  -0.637244
N    -3.048065  2.693889  -1.680854
C    -3.875889  3.281171  -2.631221
N    -4.270163  2.373186  -3.620622
N    -4.285043  4.501529  -2.688719
H    -3.475984  2.387580  1.695729
H    -3.331249  1.098757  0.504681
H    -1.004035  1.944900  -0.075968
H    -1.182316  3.224849  1.104083
H    -1.662636  4.183033  -1.049453
H    -3.194128  4.098961  -0.160392
H    -2.480015  1.931299  -2.040804
H    -4.968915  2.788820  -4.229915
H    -4.559980  1.463951  -3.269962
H    -3.809749  5.091107  -2.002031
N    -3.822182  0.667893  4.010400
C    -3.644332  2.022368  4.504261
H    -4.570814  0.109929  4.410632
H    -3.907943  2.053719  5.567868
H    -4.272220  2.752596  3.970128
H    -2.598051  2.334654  4.414291
