35
Energy: -21190.1539717 eV PBE+vdW (tier 2 basis)
C    1.416895  0.942110  1.315663
C    0.851834  -0.180192  2.165145
O    1.597372  -0.940326  2.793057
H    2.050605  0.502278  0.534709
H    2.062531  1.565451  1.945968
H    0.656733  1.574975  0.842404
N    -0.505742  -0.295403  2.139586
C    -1.379509  -1.207146  2.899054
C    -1.835720  -0.511697  4.214921
O    -2.887048  0.133275  4.185228
H    -1.004242  0.443241  1.656604
H    -2.320366  -1.203590  2.331453
C    -0.946897  -2.678709  3.009811
C    -1.003804  -3.475419  1.697560
C    0.192900  -3.278440  0.742437
N    1.491821  -3.545376  1.328306
C    2.135776  -4.764538  1.382846
N    1.471366  -5.820916  0.746760
N    3.300147  -4.991590  1.896371
H    -1.651617  -3.134750  3.721948
H    0.048985  -2.783173  3.450500
H    -1.933733  -3.244585  1.150881
H    -1.066407  -4.543142  1.962875
H    0.199840  -2.246884  0.363399
H    0.065517  -3.922611  -0.139135
H    1.892213  -2.799177  1.890497
H    1.972203  -6.688309  0.917934
H    0.479511  -5.909150  0.948254
H    3.741943  -4.120624  2.203729
N    -1.094273  -0.580261  5.354397
C    0.148529  -1.276638  5.661554
H    -1.546396  -0.084788  6.117871
H    0.819962  -1.285748  4.796638
H    -0.027626  -2.309793  5.998713
H    0.653929  -0.735249  6.469869
