35
Energy: -21190.5312523 eV PBE+vdW (tier 2 basis)
C    -0.905466  -1.936034  0.241719
C    -0.913944  -0.682122  1.098373
O    0.112938  -0.212259  1.581881
H    -0.116067  -1.844378  -0.513257
H    -1.861658  -2.137800  -0.257379
H    -0.651635  -2.793855  0.878448
N    -2.149213  -0.107939  1.271234
C    -2.396923  0.931454  2.281361
C    -3.799585  0.726183  2.886584
O    -3.974745  0.670522  4.101848
H    -2.955713  -0.659073  0.995168
H    -1.676980  0.761531  3.091618
C    -2.263016  2.405111  1.813111
C    -1.099158  2.757527  0.875760
C    -1.343844  2.485763  -0.620607
N    -2.544123  3.116367  -1.164767
C    -3.790719  2.523318  -1.120141
N    -4.845093  3.416401  -1.289820
N    -4.061945  1.270760  -0.916169
H    -2.163445  2.991026  2.738105
H    -3.206607  2.739545  1.358591
H    -0.185829  2.226019  1.178543
H    -0.888180  3.833513  0.989592
H    -1.403841  1.409983  -0.822423
H    -0.482815  2.850845  -1.198489
H    -2.553460  4.129734  -1.098156
H    -4.668126  4.205496  -1.903402
H    -5.711310  2.936575  -1.513136
H    -3.198020  0.747421  -0.760278
N    -4.807752  0.611505  1.973290
C    -6.186687  0.466907  2.404245
H    -4.644686  0.861530  0.986285
H    -6.788720  0.126843  1.554362
H    -6.603457  1.413415  2.782993
H    -6.248152  -0.270269  3.213263
