35
Energy: -21190.63059 eV PBE+vdW (tier 2 basis)
C    0.844594  0.367500  -0.573588
C    -0.198054  0.200944  0.516928
O    -0.980000  1.104357  0.819086
H    1.494322  1.212000  -0.311943
H    0.337382  0.624402  -1.511880
H    1.461253  -0.525426  -0.732230
N    -0.216984  -1.020977  1.123016
C    -1.054386  -1.307788  2.270364
C    -0.394506  -2.506742  2.984663
O    0.605774  -3.058289  2.511175
H    0.539537  -1.693572  0.993418
H    -1.020760  -0.443138  2.955277
C    -2.536240  -1.500540  1.871052
C    -2.833524  -2.700654  0.956562
C    -3.343339  -3.958988  1.678044
N    -4.592484  -3.740950  2.397316
C    -4.657372  -3.415500  3.739111
N    -5.777846  -2.663876  4.075274
N    -3.835927  -3.779790  4.674275
H    -2.820781  -0.565029  1.372855
H    -3.151231  -1.547876  2.782602
H    -1.936708  -2.963627  0.373653
H    -3.590350  -2.408326  0.211878
H    -2.598088  -4.326244  2.395092
H    -3.490885  -4.769978  0.949717
H    -5.384153  -3.446199  1.834911
H    -5.798942  -2.433645  5.063618
H    -5.995135  -1.876640  3.471373
H    -3.207526  -4.508940  4.326802
N    -0.943663  -2.884311  4.161931
C    -0.416217  -4.019111  4.901959
H    -1.876646  -2.565078  4.421396
H    -0.985583  -4.119202  5.831115
H    0.643134  -3.861358  5.138034
H    -0.491669  -4.955410  4.327141
