35
Energy: -21190.3727582 eV PBE+vdW (tier 2 basis)
C    -1.732684  -1.119883  -0.378704
C    -2.094279  -1.016456  1.090873
O    -3.027352  -1.650679  1.585737
H    -1.499533  -2.166132  -0.612471
H    -0.882660  -0.490206  -0.668053
H    -2.608615  -0.839386  -0.976627
N    -1.308389  -0.180791  1.829712
C    -1.582593  0.094252  3.224089
C    -1.006420  1.486445  3.520108
O    -0.159434  1.992225  2.778916
H    -0.609878  0.425007  1.403542
H    -2.676167  0.086422  3.354327
C    -0.993040  -0.983601  4.168550
C    0.527362  -1.120904  4.102550
C    1.043313  -2.197643  5.065388
N    2.488101  -2.401858  5.013016
C    3.396645  -1.869654  5.915872
N    2.948447  -0.717652  6.568658
N    4.565044  -2.336623  6.203485
H    -1.474622  -1.934348  3.895812
H    -1.305847  -0.766477  5.201689
H    1.007690  -0.156544  4.334743
H    0.840301  -1.372956  3.078679
H    0.557758  -3.156464  4.828189
H    0.756028  -1.946947  6.098188
H    2.805957  -3.251716  4.565690
H    3.701189  -0.319451  7.122876
H    2.505785  -0.024947  5.970528
H    4.713634  -3.258248  5.783011
N    -1.433735  2.129614  4.642004
C    -2.447556  1.726792  5.601979
H    -0.963607  3.017306  4.792781
H    -2.953598  2.620360  5.986366
H    -2.024010  1.174974  6.455101
H    -3.206580  1.096930  5.125137
