35
Energy: -21190.6513503 eV PBE+vdW (tier 2 basis)
C    0.210452  -3.353266  -0.344006
C    -0.018193  -2.421712  0.826348
O    0.832256  -1.592010  1.175304
H    1.135527  -3.917309  -0.173860
H    0.358009  -2.748800  -1.247902
H    -0.613575  -4.055794  -0.517536
N    -1.211075  -2.550039  1.468404
C    -1.654866  -1.668970  2.551876
C    -1.037821  -2.060558  3.927771
O    -1.721474  -2.385828  4.906352
H    -1.839950  -3.290943  1.181497
H    -1.256822  -0.669968  2.313028
C    -3.180792  -1.603101  2.605261
C    -3.905074  -2.965926  2.702115
C    -5.115772  -2.925816  3.636190
N    -4.670898  -2.754599  5.002332
C    -5.529389  -2.379741  6.013694
N    -4.866419  -2.069664  7.205015
N    -6.816856  -2.270479  5.965956
H    -3.535074  -1.056213  1.720053
H    -3.443005  -0.987884  3.476443
H    -3.222126  -3.744912  3.076591
H    -4.246510  -3.290537  1.708210
H    -5.695208  -3.859303  3.529276
H    -5.788237  -2.099471  3.331793
H    -3.672526  -2.564565  5.121926
H    -5.513706  -2.033650  7.985981
H    -4.039903  -2.626592  7.400736
H    -7.170521  -2.435930  5.021514
N    0.307677  -1.978413  3.961613
C    1.070183  -2.305596  5.152780
H    0.782042  -1.702036  3.094949
H    0.950584  -3.363332  5.427402
H    0.741074  -1.698386  6.006612
H    2.128204  -2.105356  4.956904
