35
Energy: -21189.8188816 eV PBE+vdW (tier 2 basis)
C    -0.333238  0.223513  -0.362132
C    0.229736  -0.037919  1.020448
O    1.423788  -0.265442  1.196272
H    0.509101  0.307978  -1.053384
H    -0.928016  1.143901  -0.407788
H    -0.970682  -0.611764  -0.682537
N    -0.629583  -0.029779  2.095268
C    -2.081958  0.147308  2.186317
C    -2.835818  -0.972022  1.401807
O    -2.738018  -2.112843  1.851237
H    -0.161955  -0.329564  2.944946
H    -2.307114  -0.188053  3.207644
C    -2.488443  1.637210  2.137974
C    -3.976519  1.949994  2.356586
C    -4.633265  1.254700  3.562109
N    -6.058626  1.518211  3.677230
C    -6.968862  0.933727  2.798091
N    -8.242582  1.503595  2.900877
N    -6.766588  -0.013637  1.948718
H    -2.145550  2.112551  1.208232
H    -1.895974  2.116781  2.933317
H    -4.564367  1.697482  1.465295
H    -4.081473  3.038898  2.482966
H    -4.154440  1.570385  4.501159
H    -4.507359  0.163315  3.508969
H    -6.298739  2.468545  3.944646
H    -8.919284  0.960102  2.372463
H    -8.555066  1.672791  3.853558
H    -5.780100  -0.274173  1.888773
N    -3.646125  -0.742446  0.321792
C    -3.797434  0.373845  -0.597134
H    -4.090055  -1.611438  0.030405
H    -4.854101  0.668089  -0.668976
H    -3.439643  0.099422  -1.600534
H    -3.219476  1.236332  -0.266248
