35
Energy: -21190.4510279 eV PBE+vdW (tier 2 basis)
C    0.250489  -1.508368  1.987617
C    0.255297  -0.197210  2.737973
O    1.149904  0.111689  3.529260
H    -0.070199  -1.401857  0.943559
H    -0.433747  -2.208658  2.487351
H    1.258709  -1.929088  2.027100
N    -0.780325  0.676126  2.503530
C    -2.081552  0.379226  1.911460
C    -2.200795  0.756813  0.415030
O    -3.235916  0.511293  -0.200945
H    -0.733907  1.497688  3.102391
H    -2.242284  -0.707968  1.942867
C    -3.202628  1.067084  2.712613
C    -3.698831  0.357320  3.981783
C    -2.668887  -0.080752  5.031433
N    -2.075272  -1.376664  4.668977
C    -1.139642  -2.011851  5.507127
N    -0.173422  -1.165834  6.028900
N    -1.121881  -3.270630  5.793146
H    -4.056036  1.186890  2.032211
H    -2.864185  2.087678  2.963297
H    -4.294115  -0.524608  3.689049
H    -4.412939  1.035140  4.472522
H    -3.162111  -0.140030  6.018523
H    -1.869591  0.665334  5.134234
H    -2.793569  -2.041651  4.389897
H    0.528446  -1.700034  6.532996
H    0.250131  -0.515663  5.364377
H    -1.973270  -3.738679  5.468520
N    -1.103179  1.342489  -0.128546
C    -1.029403  1.736239  -1.521258
H    -0.310479  1.488650  0.488041
H    -0.222208  1.203167  -2.042628
H    -0.860161  2.817449  -1.619352
H    -1.986315  1.481094  -1.989358
