35
Energy: -21190.2445372 eV PBE+vdW (tier 2 basis)
C    1.064154  0.918163  0.424727
C    0.183570  0.470516  1.577113
O    0.073819  1.116736  2.615193
H    2.074113  1.112406  0.805542
H    0.675804  1.867314  0.034098
H    1.123304  0.194600  -0.398164
N    -0.474905  -0.716511  1.390282
C    -1.453683  -1.218655  2.341452
C    -0.937174  -1.775598  3.683750
O    -1.765911  -1.890351  4.594640
H    -0.379043  -1.192729  0.501607
H    -2.056077  -0.360374  2.674766
C    -2.407462  -2.220823  1.661870
C    -1.790861  -3.531337  1.145536
C    -1.611613  -4.632572  2.202275
N    -2.888902  -5.054001  2.769137
C    -3.041767  -5.484730  4.094551
N    -2.261786  -4.805551  5.017289
N    -3.835779  -6.424306  4.489498
H    -2.890411  -1.686395  0.830352
H    -3.202547  -2.464384  2.379270
H    -0.814520  -3.359789  0.660007
H    -2.439603  -3.924083  0.346427
H    -0.975316  -4.295229  3.026635
H    -1.082186  -5.485329  1.737457
H    -3.456130  -5.608504  2.134882
H    -2.510668  -5.083205  5.961520
H    -2.191672  -3.788836  4.908436
H    -4.235592  -6.931147  3.694446
N    0.349057  -2.169846  3.882284
C    1.505855  -2.215713  3.000283
H    0.492947  -2.478620  4.839517
H    2.269333  -2.833060  3.486774
H    1.933496  -1.219703  2.820431
H    1.268018  -2.682845  2.038190
