35
Energy: -21190.1179589 eV PBE+vdW (tier 2 basis)
C    0.194140  -0.763282  0.429567
C    -0.811721  -0.033796  1.305364
O    -1.392486  0.974744  0.904503
H    0.588099  -1.689090  0.866749
H    1.032088  -0.084805  0.224928
H    -0.281018  -0.993461  -0.531538
N    -1.003081  -0.597838  2.539594
C    -1.804529  -0.127023  3.678249
C    -3.053871  -0.999848  3.960575
O    -3.190066  -1.491380  5.082656
H    -0.471489  -1.440287  2.725064
H    -1.191731  -0.322385  4.570198
C    -2.112130  1.377532  3.668383
C    -2.691336  1.889853  4.986109
C    -2.928977  3.405481  4.940883
N    -1.704301  4.188126  4.771688
C    -1.430188  5.025151  3.693561
N    -2.019400  4.638801  2.490407
N    -0.702589  6.092306  3.723518
H    -2.795165  1.626924  2.847259
H    -1.168311  1.904113  3.464972
H    -2.014627  1.646675  5.821037
H    -3.647742  1.393379  5.212196
H    -3.432759  3.722575  5.867400
H    -3.606505  3.655810  4.112733
H    -1.269112  4.502353  5.630837
H    -1.697461  5.238815  1.736771
H    -1.946797  3.652830  2.250437
H    -0.466766  6.353997  4.685115
N    -3.998344  -1.185753  2.995053
C    -4.018424  -0.782439  1.598481
H    -4.746316  -1.795616  3.313715
H    -5.054059  -0.575572  1.301718
H    -3.618081  -1.567439  0.937120
H    -3.431873  0.126174  1.431832
