35
Energy: -21190.2945982 eV PBE+vdW (tier 2 basis)
C    0.228312  -1.063953  -0.135968
C    0.523916  -0.266751  1.119754
O    1.658829  0.159556  1.358653
H    1.117161  -1.032167  -0.771252
H    -0.629602  -0.664525  -0.693526
H    0.008021  -2.113463  0.106260
N    -0.509432  -0.019582  1.983172
C    -1.772939  -0.749472  2.061722
C    -2.892317  0.200404  2.557695
O    -3.550033  -0.041102  3.566914
H    -0.196388  0.435111  2.850965
H    -2.048498  -1.053004  1.039823
C    -1.690748  -2.014880  2.939558
C    -1.013988  -1.801985  4.306081
C    0.512346  -2.025244  4.291278
N    1.225952  -1.424801  5.416335
C    1.309128  -0.045499  5.596833
N    1.289730  0.701793  4.412373
N    1.396593  0.579886  6.720912
H    -1.151199  -2.791367  2.372841
H    -2.714804  -2.381534  3.082927
H    -1.466048  -2.479856  5.044219
H    -1.229278  -0.789144  4.674046
H    0.955102  -1.646287  3.361934
H    0.736613  -3.102097  4.300920
H    1.118166  -1.918321  6.296625
H    1.516102  1.670853  4.621107
H    1.843330  0.350022  3.627826
H    1.270026  -0.056160  7.513255
N    -3.126165  1.322435  1.813261
C    -2.519187  1.740996  0.560480
H    -3.850600  1.912008  2.210460
H    -3.160842  2.502920  0.104229
H    -2.449038  0.905961  -0.149887
H    -1.513879  2.162351  0.697934
