35
Energy: -21190.4748039 eV PBE+vdW (tier 2 basis)
C    -0.157703  -0.308306  -0.099035
C    -0.032879  -0.170051  1.406951
O    1.056190  -0.209177  1.979690
H    0.240309  -1.287076  -0.395208
H    0.466377  0.456168  -0.577782
H    -1.186882  -0.213582  -0.465861
N    -1.212479  0.019431  2.072550
C    -1.298682  -0.012510  3.518290
C    -2.547450  -0.825734  3.886302
O    -3.473448  -0.962257  3.081117
H    -2.102050  -0.146556  1.603733
H    -0.383720  -0.502783  3.884316
C    -1.392067  1.394795  4.151296
C    -0.050097  2.123789  4.198047
C    -0.109478  3.464261  4.947867
N    -0.729546  3.424734  6.279731
C    -0.353588  2.533698  7.281355
N    0.998227  2.212798  7.292777
N    -1.132194  1.995910  8.163309
H    -1.778854  1.289632  5.175158
H    -2.143541  1.972817  3.589662
H    0.326578  2.310000  3.181668
H    0.691702  1.471653  4.680309
H    -0.690006  4.199052  4.371758
H    0.905940  3.883561  5.023560
H    -1.731824  3.576767  6.270535
H    1.261221  1.734537  8.148189
H    1.639191  2.954758  7.031086
H    -2.112954  2.223050  7.976541
N    -2.602582  -1.351650  5.139822
C    -1.603748  -1.289182  6.199326
H    -3.484263  -1.812592  5.343278
H    -1.663502  -0.367499  6.798767
H    -0.591242  -1.362850  5.785191
H    -1.749312  -2.145392  6.867580
