35
Energy: -21190.4821188 eV PBE+vdW (tier 2 basis)
C    -0.637718  1.228865  0.820692
C    -0.313935  0.326141  1.998980
O    0.694523  0.493027  2.680157
H    -0.325938  0.748096  -0.117404
H    -0.066102  2.153625  0.936745
H    -1.706651  1.467056  0.735913
N    -1.183704  -0.698453  2.270732
C    -2.411163  -1.067441  1.599703
C    -3.195920  -1.968920  2.579037
O    -2.644340  -2.504102  3.547500
H    -0.966533  -1.262531  3.093339
H    -3.030902  -0.169816  1.430475
C    -2.208088  -1.746684  0.212392
C    -1.095037  -2.797469  0.110034
C    -1.253357  -4.054138  0.973885
N    -2.570304  -4.663160  0.794618
C    -3.143629  -5.579667  1.679081
N    -2.711199  -5.482992  2.990718
N    -4.034142  -6.465748  1.365337
H    -1.992087  -0.952674  -0.516315
H    -3.166729  -2.189166  -0.097812
H    -0.126721  -2.339363  0.359440
H    -1.022144  -3.092312  -0.949898
H    -1.129372  -3.798074  2.030368
H    -0.438552  -4.759638  0.728932
H    -2.791852  -4.890471  -0.170530
H    -3.268957  -6.074896  3.597798
H    -2.570266  -4.541505  3.360630
H    -4.162503  -6.521884  0.350870
N    -4.508753  -2.120824  2.295016
C    -5.375143  -3.053689  3.000304
H    -4.862766  -1.692788  1.447570
H    -6.384742  -2.633186  3.074440
H    -4.974714  -3.200771  4.008030
H    -5.420671  -4.028299  2.492420
