35
Energy: -21190.1716964 eV PBE+vdW (tier 2 basis)
C    0.385646  -0.257461  0.624679
C    -0.060391  0.483132  1.874279
O    0.338291  1.614648  2.136311
H    1.466331  -0.441857  0.696423
H    0.230222  0.390508  -0.245922
H    -0.127216  -1.212996  0.458873
N    -0.934822  -0.206081  2.675715
C    -1.403956  0.214003  4.002396
C    -1.872147  1.691553  4.060981
O    -1.719473  2.364593  5.074649
H    -1.142144  -1.162493  2.412361
H    -2.334288  -0.359811  4.153112
C    -0.492590  -0.169713  5.181599
C    0.885475  0.487643  5.330748
C    2.017643  -0.036333  4.421358
N    2.004067  -1.476825  4.160986
C    2.614219  -2.445433  4.943832
N    2.881716  -2.046430  6.250414
N    2.954048  -3.635831  4.571070
H    -0.368472  -1.263808  5.157313
H    -1.073975  0.062393  6.083888
H    1.182121  0.356731  6.384434
H    0.806333  1.573382  5.187965
H    2.984481  0.252749  4.861770
H    1.957885  0.465522  3.450138
H    1.913159  -1.748069  3.191067
H    3.183022  -2.832867  6.816777
H    2.178172  -1.471261  6.702404
H    2.839909  -3.756451  3.560860
N    -2.582310  2.114731  2.976970
C    -2.997090  3.498727  2.839464
H    -2.514557  1.554208  2.135597
H    -3.910993  3.555187  2.236136
H    -2.214693  4.115281  2.370194
H    -3.198160  3.899468  3.838141
