35
Energy: -21190.5526948 eV PBE+vdW (tier 2 basis)
C    -0.821273  0.036550  1.769715
C    -2.231737  0.426445  2.177226
O    -2.438599  1.451314  2.825461
H    -0.138779  0.347582  2.567394
H    -0.552064  0.602816  0.866760
H    -0.679855  -1.028534  1.557504
N    -3.281445  -0.393797  1.819449
C    -3.288668  -1.475217  0.833310
C    -2.503133  -2.734551  1.263745
O    -2.045616  -3.525718  0.441073
H    -4.201074  0.068122  1.912828
H    -4.336741  -1.818254  0.839272
C    -2.953179  -1.048497  -0.610118
C    -3.750480  0.183030  -1.054229
C    -5.270412  -0.060644  -1.158340
N    -6.093022  1.116884  -0.917582
C    -6.353941  1.537092  0.370721
N    -7.027493  2.760567  0.407822
N    -5.973312  0.846348  1.398496
H    -3.144116  -1.907712  -1.268288
H    -1.877429  -0.843564  -0.698720
H    -3.367233  0.533631  -2.024204
H    -3.579132  1.002238  -0.340989
H    -5.594214  -0.807025  -0.423426
H    -5.529335  -0.457175  -2.150201
H    -6.013928  1.864830  -1.598821
H    -7.343921  3.039121  1.329630
H    -7.741449  2.890108  -0.303516
H    -6.350625  1.240464  2.262600
N    -2.433090  -2.912064  2.611472
C    -1.771056  -4.044648  3.223196
H    -2.804753  -2.162681  3.186876
H    -1.437407  -4.708842  2.418387
H    -2.456438  -4.596832  3.881315
H    -0.895968  -3.729767  3.810317
