35
Energy: -21190.3316227 eV PBE+vdW (tier 2 basis)
C    -0.256678  -0.575754  0.044066
C    -0.283565  -0.662888  1.557292
O    0.374440  -1.500834  2.174838
H    0.784228  -0.464715  -0.283160
H    -0.850751  0.251929  -0.362066
H    -0.630667  -1.520990  -0.369179
N    -1.072128  0.265116  2.183885
C    -1.285740  0.251108  3.624524
C    -2.653159  -0.407608  3.906242
O    -3.694699  0.160749  3.572088
H    -1.713536  0.820705  1.627503
H    -0.461507  -0.344258  4.033784
C    -1.245534  1.666395  4.209344
C    -1.366157  1.677100  5.734313
C    -1.282481  3.086110  6.315118
N    -1.394868  3.040553  7.771815
C    -1.353750  4.186766  8.558618
N    -0.458043  5.161692  8.110967
N    -2.130980  4.261166  9.584823
H    -2.064297  2.254947  3.766985
H    -0.297295  2.130641  3.898018
H    -0.573249  1.058299  6.184314
H    -2.327461  1.224557  6.028924
H    -2.063766  3.725558  5.861656
H    -0.314614  3.529854  6.037149
H    -2.150556  2.445842  8.106233
H    -0.270204  5.888964  8.791737
H    0.390705  4.816814  7.671216
H    -1.920499  5.082975  10.157232
N    -2.654935  -1.627055  4.507483
C    -1.514120  -2.432791  4.928856
H    -3.587614  -1.997935  4.663886
H    -1.858255  -3.461997  5.078467
H    -1.083411  -2.078358  5.878015
H    -0.733120  -2.445798  4.158100
