35
Energy: -21190.3386088 eV PBE+vdW (tier 2 basis)
C    0.138589  -0.000779  0.857703
C    -0.166568  0.013436  2.339047
O    0.690307  -0.289549  3.179908
H    0.835923  -0.823272  0.667391
H    0.654085  0.931387  0.585751
H    -0.747774  -0.102850  0.222396
N    -1.425844  0.354341  2.750623
C    -2.492311  1.103205  2.076891
C    -3.288102  0.187089  1.115896
O    -3.219440  0.299480  -0.108045
H    -1.532464  0.322029  3.762309
H    -3.164736  1.369767  2.905076
C    -2.071860  2.401272  1.369768
C    -1.041482  3.296911  2.073393
C    -1.342900  3.766920  3.517330
N    -0.719469  2.970907  4.560743
C    -1.323028  1.960832  5.277488
N    -0.401067  1.077467  5.836779
N    -2.594126  1.776212  5.476430
H    -2.996195  2.975211  1.198236
H    -1.703250  2.155255  0.365276
H    -0.925065  4.191067  1.442578
H    -0.053013  2.812912  2.077890
H    -2.426283  3.793516  3.700945
H    -0.997435  4.804386  3.635471
H    0.294618  2.961863  4.575340
H    -0.866594  0.368428  6.395799
H    0.267357  0.671427  5.174353
H    -3.137518  2.587049  5.167067
N    -4.076086  -0.762582  1.699514
C    -4.171424  -1.131515  3.104003
H    -4.508069  -1.383927  1.021620
H    -3.366272  -1.816600  3.411105
H    -5.135278  -1.625256  3.273399
H    -4.133055  -0.250290  3.755733
