35
Energy: -21190.2221793 eV PBE+vdW (tier 2 basis)
C    0.328795  -0.128151  -0.014220
C    0.408315  -0.346583  1.487892
O    1.476311  -0.523797  2.065841
H    1.344237  -0.192491  -0.413039
H    -0.086273  0.858794  -0.262986
H    -0.297137  -0.885859  -0.505817
N    -0.774416  -0.327740  2.190078
C    -2.131591  -0.241151  1.660011
C    -2.934798  0.653450  2.627869
O    -3.522112  0.178430  3.598504
H    -0.673754  -0.548417  3.178741
H    -2.061722  0.252617  0.684069
C    -2.791634  -1.618165  1.492242
C    -4.197177  -1.588187  0.880268
C    -4.262329  -0.944083  -0.504288
N    -5.596159  -1.067870  -1.064619
C    -5.896204  -0.515365  -2.305918
N    -7.261544  -0.577367  -2.600124
N    -5.084936  0.021137  -3.151166
H    -2.843019  -2.094920  2.480528
H    -2.121252  -2.232897  0.871497
H    -4.879487  -1.061433  1.566333
H    -4.567851  -2.621184  0.803509
H    -3.549914  -1.444583  -1.181134
H    -3.956203  0.119956  -0.448294
H    -6.349349  -0.997979  -0.385360
H    -7.435944  -0.297787  -3.561133
H    -7.705377  -1.463026  -2.372253
H    -4.145566  0.119949  -2.760123
N    -2.935846  1.993267  2.369976
C    -2.171290  2.705801  1.357894
H    -3.411612  2.540267  3.081059
H    -1.086766  2.575388  1.487665
H    -2.396940  3.773523  1.444652
H    -2.449584  2.395783  0.340193
