35
Energy: -21190.5651011 eV PBE+vdW (tier 2 basis)
C    0.113609  0.055081  0.160772
C    0.030139  0.003452  1.672768
O    1.042012  -0.057038  2.379464
H    0.716022  0.925482  -0.127465
H    -0.863231  0.117790  -0.334270
H    0.639508  -0.839447  -0.195407
N    -1.226550  0.040697  2.200632
C    -1.476746  0.005280  3.643470
C    -1.453554  -1.474954  4.117042
O    -2.480481  -2.140097  4.254434
H    -2.025007  -0.016228  1.578518
H    -0.634134  0.536934  4.110219
C    -2.796582  0.701262  3.984613
C    -2.852097  1.277693  5.406104
C    -2.743799  0.244379  6.537523
N    -2.815845  0.832253  7.869022
C    -1.705322  1.443172  8.422329
N    -2.003427  2.079701  9.640425
N    -0.564073  1.416101  7.821552
H    -3.618039  -0.015381  3.827180
H    -2.935717  1.530653  3.275016
H    -3.802445  1.824843  5.517679
H    -2.044561  2.013508  5.537146
H    -1.782283  -0.280618  6.488559
H    -3.535646  -0.512370  6.448715
H    -3.703049  1.256255  8.120566
H    -1.179720  2.390543  10.144478
H    -2.634421  1.558479  10.244909
H    0.174735  1.799881  8.415009
N    -0.196443  -1.940494  4.331209
C    0.077907  -3.322643  4.668840
H    0.567173  -1.336158  4.023854
H    0.803665  -3.378992  5.490507
H    0.475865  -3.881021  3.807711
H    -0.861596  -3.789117  4.983184
