35
Energy: -21190.2335697 eV PBE+vdW (tier 2 basis)
C    0.212457  0.485812  0.987474
C    -0.780723  -0.542802  1.493176
O    -0.744432  -1.718334  1.116516
H    -0.242751  1.101886  0.198851
H    1.063143  -0.046948  0.553940
H    0.563739  1.160126  1.779733
N    -1.715391  -0.125889  2.396551
C    -2.144373  1.229058  2.672769
C    -3.067503  1.141322  3.901093
O    -3.656362  0.100296  4.186617
H    -2.360579  -0.841216  2.739678
H    -1.268356  1.839154  2.938718
C    -2.885427  1.943571  1.478034
C    -3.430202  1.017675  0.385058
C    -4.569552  0.079032  0.810783
N    -4.883507  -0.901119  -0.221490
C    -4.767450  -2.274364  -0.036892
N    -3.721265  -2.667175  0.795156
N    -5.638851  -3.037905  -0.611527
H    -2.183073  2.652469  1.017466
H    -3.707018  2.553328  1.885582
H    -2.622931  0.401796  -0.034877
H    -3.778601  1.646309  -0.449281
H    -5.469593  0.671598  1.045442
H    -4.314365  -0.458956  1.731714
H    -5.690787  -0.702570  -0.803246
H    -3.626035  -3.673098  0.874344
H    -2.808784  -2.217228  0.692581
H    -5.367380  -4.021864  -0.540449
N    -3.230887  2.280792  4.631151
C    -2.525650  3.545591  4.492448
H    -3.869718  2.170105  5.411851
H    -2.890148  4.227476  5.267360
H    -2.709276  4.021229  3.519049
H    -1.439814  3.433421  4.630130
