35
Energy: -21190.2413915 eV PBE+vdW (tier 2 basis)
C    -0.948470  1.160965  3.286951
C    -0.530096  0.473774  2.003485
O    0.388420  0.882741  1.297126
H    -0.386093  2.093999  3.371998
H    -0.735623  0.532590  4.163429
H    -2.025275  1.377906  3.304062
N    -1.233793  -0.653393  1.641000
C    -2.228816  -1.373967  2.418801
C    -1.717567  -2.022763  3.726803
O    -2.407948  -1.929417  4.744588
H    -0.895284  -1.078231  0.781745
H    -2.980462  -0.659530  2.783196
C    -2.933014  -2.401114  1.507826
C    -3.941414  -3.323940  2.200562
C    -5.144734  -2.598029  2.828023
N    -6.133161  -3.483285  3.414805
C    -5.940183  -4.065071  4.670304
N    -6.909824  -5.046892  4.934414
N    -5.034888  -3.819007  5.546150
H    -2.167305  -3.022918  1.016382
H    -3.429495  -1.833340  0.704199
H    -3.441662  -3.925319  2.974344
H    -4.314602  -4.039471  1.451136
H    -5.648223  -1.984578  2.063784
H    -4.808462  -1.908558  3.614258
H    -6.616301  -4.087457  2.755870
H    -6.838516  -5.350741  5.901823
H    -7.859713  -4.766076  4.701760
H    -4.306360  -3.178248  5.219154
N    -0.533935  -2.697475  3.746147
C    0.428157  -2.956469  2.683307
H    -0.320735  -3.065251  4.668592
H    1.125544  -3.722046  3.040331
H    1.006734  -2.063818  2.408985
H    -0.054969  -3.355359  1.782201
