35
Energy: -21190.6375192 eV PBE+vdW (tier 2 basis)
C    -1.329834  -0.955258  -0.675989
C    -0.925227  -0.678297  0.754005
O    0.264016  -0.580832  1.093051
H    -0.896566  -0.181621  -1.321522
H    -2.413598  -0.968805  -0.834530
H    -0.900330  -1.917517  -0.982756
N    -1.942597  -0.552178  1.648154
C    -1.749750  -0.162509  3.048207
C    -1.359262  -1.393407  3.923616
O    -2.091535  -1.827097  4.812311
H    -2.898931  -0.580059  1.306560
H    -0.893381  0.533682  3.068556
C    -3.002911  0.516011  3.600120
C    -3.215454  1.979581  3.185965
C    -3.304653  2.270717  1.685039
N    -4.328361  1.460535  1.043133
C    -4.457149  1.385459  -0.337902
N    -5.629782  0.743803  -0.748899
N    -3.593357  1.734822  -1.228010
H    -2.947324  0.461846  4.694644
H    -3.879354  -0.097859  3.339289
H    -2.399184  2.598395  3.589165
H    -4.132589  2.344840  3.677733
H    -2.339502  2.041128  1.210637
H    -3.483956  3.350285  1.529926
H    -5.174524  1.309733  1.583185
H    -5.749319  0.824443  -1.754411
H    -6.475336  0.989784  -0.242201
H    -2.742071  2.110727  -0.806660
N    -0.142875  -1.901754  3.605045
C    0.394583  -3.091498  4.233569
H    0.332238  -1.484474  2.796723
H    1.434016  -2.925041  4.545851
H    0.367605  -3.956808  3.553889
H    -0.214671  -3.319746  5.114535
