35
Energy: -21190.4440164 eV PBE+vdW (tier 2 basis)
C    0.001073  0.551029  -0.332546
C    -0.312431  -0.230259  0.928832
O    -0.094593  -1.436383  1.024650
H    1.077452  0.477970  -0.532048
H    -0.281567  1.609734  -0.281057
H    -0.519967  0.081643  -1.175891
N    -0.867409  0.499154  1.948174
C    -1.157587  -0.072351  3.259610
C    -2.578929  0.337782  3.682925
O    -2.772818  1.210488  4.539422
H    -0.987375  1.499069  1.830524
H    -1.121567  -1.160628  3.104738
C    -0.067800  0.331555  4.267171
C    -0.185355  -0.184693  5.714924
C    -0.721147  -1.610711  5.895311
N    -2.174448  -1.609376  5.945748
C    -2.971709  -2.649739  5.520510
N    -4.341464  -2.351166  5.612701
N    -2.619035  -3.792058  5.033910
H    -0.005571  1.429058  4.296790
H    0.875785  -0.029186  3.830808
H    -0.815873  0.499826  6.300776
H    0.815245  -0.132400  6.166585
H    -0.311487  -2.048852  6.820818
H    -0.373507  -2.253595  5.068055
H    -2.611413  -0.694149  6.004058
H    -4.890766  -3.195510  5.477275
H    -4.608044  -1.862581  6.463755
H    -1.605802  -3.858930  4.917314
N    -3.608061  -0.292481  3.061125
C    -3.554065  -1.467813  2.199137
H    -4.510870  -0.061970  3.466565
H    -2.705152  -1.413181  1.511292
H    -4.469728  -1.498156  1.597186
H    -3.480232  -2.401427  2.776886
