35
Energy: -21190.3081157 eV PBE+vdW (tier 2 basis)
C    0.232717  0.323213  -0.401022
C    0.561732  0.139650  1.063683
O    1.664636  0.380056  1.540551
H    -0.193179  -0.593961  -0.837280
H    1.153070  0.594487  -0.924680
H    -0.498810  1.135131  -0.529675
N    -0.445131  -0.376746  1.873224
C    -1.862024  -0.424589  1.534905
C    -2.470642  0.990454  1.443635
O    -2.114162  1.900444  2.186587
H    -0.231318  -0.244823  2.860059
H    -1.957469  -0.934802  0.566282
C    -2.649170  -1.219385  2.606542
C    -2.736074  -2.743731  2.441951
C    -1.418343  -3.532715  2.376684
N    -0.669141  -3.375596  1.124707
C    -1.256479  -3.669744  -0.096217
N    -1.912989  -4.898684  -0.129136
N    -1.187926  -2.810884  -1.063196
H    -3.679280  -0.832883  2.629673
H    -2.226683  -0.960591  3.591298
H    -3.323870  -2.983741  1.541497
H    -3.319769  -3.133291  3.291537
H    -1.633912  -4.597715  2.542514
H    -0.740828  -3.228121  3.186824
H    -0.192299  -2.475802  1.082404
H    -2.205197  -5.202254  -1.050641
H    -1.487984  -5.641288  0.418397
H    -1.505994  -3.216959  -1.947774
N    -3.449982  1.164437  0.503987
C    -3.986337  0.177802  -0.422124
H    -3.875995  2.085632  0.526460
H    -4.630147  0.694276  -1.142173
H    -4.592874  -0.591433  0.081845
H    -3.189756  -0.325943  -0.986339
