35
Energy: -21190.5999469 eV PBE+vdW (tier 2 basis)
C    -0.087074  -3.502693  -0.472787
C    -0.863600  -2.515667  0.381091
O    -1.450332  -1.548774  -0.108116
H    0.367666  -4.318920  0.101509
H    0.699872  -2.958369  -1.009763
H    -0.762375  -3.927071  -1.226137
N    -0.878309  -2.789409  1.717373
C    -1.441069  -1.879139  2.696666
C    -0.857158  -2.309186  4.062172
O    0.059213  -3.137426  4.126699
H    -0.228461  -3.463550  2.123337
H    -1.070137  -0.858184  2.491821
C    -2.976293  -1.818918  2.660584
C    -3.679023  -3.164345  2.913255
C    -5.062423  -3.040729  3.584457
N    -5.045441  -3.134411  5.040122
C    -4.565482  -2.178697  5.903756
N    -4.304749  -2.675744  7.177709
N    -4.372566  -0.915741  5.671998
H    -3.264120  -1.420173  1.679077
H    -3.298554  -1.070351  3.395285
H    -3.056374  -3.815385  3.546853
H    -3.789740  -3.694677  1.956917
H    -5.721130  -3.848448  3.240617
H    -5.556669  -2.103985  3.278166
H    -5.268271  -4.035591  5.443429
H    -3.934895  -1.959335  7.793788
H    -3.790415  -3.550204  7.223983
H    -4.796644  -0.636529  4.783892
N    -1.368625  -1.703949  5.158565
C    -0.855202  -2.007502  6.481615
H    -2.244358  -1.177392  5.115771
H    0.235201  -1.890244  6.505135
H    -1.084065  -3.040937  6.786216
H    -1.309400  -1.312327  7.194946
