35
Energy: -21190.7451453 eV PBE+vdW (tier 2 basis)
C    -1.982685  -4.891395  1.539072
C    -1.761352  -3.392476  1.538223
O    -1.650821  -2.722451  0.509556
H    -1.785653  -5.279839  0.536304
H    -3.024560  -5.109558  1.818280
H    -1.337305  -5.397167  2.268985
N    -1.715696  -2.821473  2.781118
C    -1.636864  -1.384768  2.930821
C    -1.090553  -1.049312  4.318844
O    -1.471583  -1.611562  5.354675
H    -1.890168  -3.400893  3.605100
H    -0.913473  -1.039663  2.176513
C    -2.968652  -0.598162  2.635717
C    -4.306094  -1.341580  2.757864
C    -4.844399  -1.627643  4.171099
N    -4.117903  -2.628587  4.935944
C    -4.126374  -3.957808  4.560678
N    -3.002827  -4.655066  5.045025
N    -4.962732  -4.598675  3.815540
H    -2.888526  -0.255415  1.596194
H    -2.982731  0.307982  3.263431
H    -4.257046  -2.280078  2.187049
H    -5.058979  -0.722343  2.244572
H    -5.899165  -1.934969  4.097375
H    -4.841848  -0.703657  4.768886
H    -3.207404  -2.297416  5.275119
H    -3.150378  -5.659041  4.987798
H    -2.683724  -4.363741  5.965851
H    -5.684367  -3.978775  3.442045
N    -0.176680  -0.045865  4.332582
C    0.409196  0.483294  5.550418
H    0.124413  0.329121  3.441072
H    1.487565  0.277349  5.594775
H    -0.079498  -0.009884  6.396591
H    0.249861  1.567517  5.621883
