35
Energy: -21190.045544 eV PBE+vdW (tier 2 basis)
C    -0.174791  -0.007572  -0.361291
C    -0.002911  -0.060300  1.140356
O    1.107003  -0.162940  1.660100
H    0.749538  -0.383036  -0.809310
H    -0.313869  1.032482  -0.687294
H    -1.023331  -0.609199  -0.701831
N    -1.106116  0.066853  1.965928
C    -2.543880  0.087822  1.724030
C    -3.088560  -1.285682  1.260841
O    -2.452824  -2.039312  0.530610
H    -0.827932  -0.033545  2.937369
H    -2.975741  0.300771  2.713646
C    -3.059584  1.203664  0.786134
C    -2.867670  2.636197  1.305961
C    -1.470232  3.235497  1.076910
N    -1.362035  4.637353  1.452284
C    -1.890727  5.629464  0.648852
N    -1.786533  6.901185  1.238789
N    -2.428506  5.342542  -0.488278
H    -4.135613  1.026293  0.638863
H    -2.613385  1.092480  -0.211335
H    -3.114330  2.676072  2.381203
H    -3.583415  3.290714  0.789633
H    -1.226102  3.175474  0.008035
H    -0.701581  2.682634  1.631033
H    -1.357829  4.839707  2.445993
H    -2.023429  7.658853  0.607106
H    -0.903803  7.075820  1.713700
H    -2.653779  6.189625  -1.014543
N    -4.349593  -1.611969  1.685654
C    -5.206517  -0.902925  2.621978
H    -4.665459  -2.511438  1.336805
H    -5.452585  0.111978  2.277934
H    -4.764205  -0.834884  3.627811
H    -6.148032  -1.454852  2.712017
