35
Energy: -21190.3445193 eV PBE+vdW (tier 2 basis)
C    0.172372  -0.365763  0.306880
C    0.463714  -0.162236  1.784876
O    1.514855  -0.557467  2.295319
H    -0.815162  -0.817625  0.134143
H    0.945273  -1.018358  -0.107317
H    0.193921  0.596058  -0.224872
N    -0.480658  0.486445  2.527090
C    -1.786884  0.941775  2.101638
C    -1.715490  2.119200  1.101670
O    -0.970652  3.078413  1.264070
H    -0.241518  0.590727  3.528916
H    -2.342785  0.108317  1.627688
C    -2.574448  1.414139  3.339022
C    -2.773084  0.308750  4.395691
C    -2.429442  0.757359  5.834482
N    -1.669250  -0.249999  6.569667
C    -0.314169  -0.376954  6.314335
N    0.325505  -1.263024  7.186598
N    0.238338  0.307742  5.370354
H    -3.536802  1.825906  3.005302
H    -2.009732  2.254687  3.769838
H    -2.121911  -0.541154  4.154982
H    -3.801648  -0.076212  4.357770
H    -3.341061  0.957801  6.411549
H    -1.848966  1.693017  5.790999
H    -1.933806  -0.390736  7.537906
H    1.265415  -1.513587  6.898521
H    -0.220950  -2.080430  7.444648
H    1.207031  0.029597  5.198536
N    -2.589720  2.010039  0.054903
C    -2.722682  3.030404  -0.965938
H    -3.124363  1.154369  -0.032461
H    -3.753935  3.405708  -1.024649
H    -2.425482  2.651644  -1.954366
H    -2.057086  3.855444  -0.689534
