35
Energy: -21190.232428 eV PBE+vdW (tier 2 basis)
C    0.471420  -0.606515  0.542698
C    -0.184909  -0.897607  1.876737
O    0.470693  -1.007199  2.911580
H    1.452134  -0.166733  0.743755
H    -0.111889  0.053523  -0.108422
H    0.622023  -1.547259  -0.006423
N    -1.548491  -1.082890  1.913018
C    -2.566281  -0.973480  0.865550
C    -2.211945  -1.778001  -0.401156
O    -2.055757  -1.244997  -1.500822
H    -1.884302  -1.289401  2.849760
H    -3.442679  -1.478165  1.300663
C    -2.956567  0.485116  0.572434
C    -4.167771  0.708140  -0.348255
C    -5.429265  -0.113477  -0.039120
N    -5.876389  -0.031684  1.345684
C    -5.766836  -1.075646  2.248974
N    -5.837899  -0.657712  3.580493
N    -5.577034  -2.332809  2.009429
H    -2.098087  1.013950  0.136160
H    -3.137887  0.948236  1.554025
H    -3.883287  0.492158  -1.386795
H    -4.423570  1.779851  -0.313549
H    -5.257940  -1.172115  -0.276615
H    -6.240330  0.212175  -0.708709
H    -5.806155  0.893590  1.757429
H    -5.999991  -1.445418  4.201010
H    -6.476635  0.110400  3.765189
H    -5.513465  -2.520986  1.006842
N    -2.111404  -3.130605  -0.247109
C    -2.260217  -3.924558  0.965101
H    -1.840769  -3.608976  -1.100763
H    -3.122297  -3.590702  1.557630
H    -1.363243  -3.890919  1.600438
H    -2.444831  -4.964969  0.675025
