35
Energy: -21190.3229843 eV PBE+vdW (tier 2 basis)
C    0.354736  1.007820  0.033545
C    -0.121977  0.460240  1.361588
O    0.555276  -0.321332  2.034013
H    0.727193  0.179460  -0.579759
H    1.200277  1.682556  0.227669
H    -0.417127  1.554748  -0.521729
N    -1.338601  0.910204  1.789048
C    -1.886296  0.552583  3.098764
C    -3.419577  0.529068  2.951685
O    -4.127569  1.476445  3.290978
H    -1.821687  1.615055  1.243457
H    -1.518731  -0.464555  3.295369
C    -1.416095  1.440812  4.267454
C    -1.348694  2.954230  4.013647
C    0.005725  3.444480  3.483493
N    1.092458  3.204490  4.433474
C    2.391383  2.850790  4.064411
N    2.473668  1.992294  2.970992
N    3.477533  3.237406  4.647347
H    -0.420281  1.094020  4.579709
H    -2.092011  1.235475  5.108627
H    -1.557691  3.477866  4.959396
H    -2.148408  3.273458  3.329836
H    -0.068346  4.521011  3.243647
H    0.273491  2.941438  2.549103
H    1.086737  3.829032  5.233941
H    3.435997  1.696705  2.835534
H    1.829062  1.200794  2.958228
H    3.287594  3.978086  5.328818
N    -3.952137  -0.594514  2.386416
C    -3.258153  -1.804462  1.970342
H    -4.963082  -0.564220  2.299789
H    -3.972997  -2.448288  1.447188
H    -2.855188  -2.370720  2.823256
H    -2.435300  -1.583924  1.277934
