35
Energy: -21190.2515451 eV PBE+vdW (tier 2 basis)
C    -0.014187  0.190267  0.257249
C    -0.151446  -0.224793  1.708658
O    0.812421  -0.231467  2.468282
H    -0.010775  1.287647  0.205275
H    -0.802748  -0.184898  -0.403550
H    0.960819  -0.157667  -0.099513
N    -1.391773  -0.628995  2.171973
C    -2.713537  -0.522938  1.543362
C    -2.924476  -1.518750  0.374843
O    -3.837481  -1.369976  -0.436401
H    -1.373993  -0.798879  3.174017
H    -3.407377  -0.890717  2.316164
C    -3.108328  0.940726  1.228451
C    -4.568226  1.217882  0.837535
C    -5.612445  0.619758  1.791324
N    -6.990895  0.906262  1.439928
C    -7.646784  0.203803  0.428136
N    -8.932525  0.716415  0.198348
N    -7.227875  -0.794272  -0.264220
H    -2.459392  1.330016  0.432677
H    -2.857258  1.512399  2.136257
H    -4.758680  0.848526  -0.175909
H    -4.702486  2.311547  0.812864
H    -5.443932  0.981880  2.818837
H    -5.518135  -0.475710  1.825833
H    -7.275065  1.877781  1.524408
H    -9.433844  0.122772  -0.456634
H    -9.472463  0.888755  1.042955
H    -6.227900  -0.978499  -0.145614
N    -2.084146  -2.586667  0.371401
C    -2.178638  -3.655300  -0.603674
H    -1.353758  -2.603749  1.074976
H    -2.309234  -4.627181  -0.108942
H    -1.281198  -3.697697  -1.236923
H    -3.050720  -3.454903  -1.235063
