35
Energy: -21190.6229893 eV PBE+vdW (tier 2 basis)
C    -0.370433  0.928066  -0.586359
C    -0.282686  0.395704  0.828582
O    0.786109  0.009719  1.315189
H    0.315336  1.778780  -0.683776
H    -1.378720  1.247173  -0.877078
H    -0.026445  0.150145  -1.279230
N    -1.450592  0.372705  1.531548
C    -1.526228  -0.076748  2.922542
C    -1.648492  -1.618284  2.994788
O    -2.708699  -2.193443  3.276933
H    -2.314764  0.623883  1.064203
H    -0.560981  0.185411  3.374091
C    -2.661291  0.670574  3.632409
C    -2.986895  0.270164  5.079983
C    -1.830029  0.254325  6.085769
N    -0.762021  -0.722179  5.819772
C    -0.784241  -2.028403  6.310465
N    -2.021561  -2.660963  6.214027
N    0.309449  -2.506702  6.807058
H    -3.584067  0.543496  3.042734
H    -2.405971  1.741783  3.591282
H    -3.492938  -0.701398  5.081347
H    -3.727410  0.991442  5.460858
H    -2.252261  0.100550  7.093319
H    -1.343748  1.241305  6.093156
H    0.172811  -0.352469  5.966898
H    -1.995360  -3.632552  6.504228
H    -2.497634  -2.543507  5.315603
H    0.219556  -3.509488  6.993626
N    -0.487585  -2.253932  2.726366
C    -0.332245  -3.691961  2.801084
H    0.306972  -1.667449  2.464046
H    0.184345  -4.070593  1.909713
H    -1.327823  -4.144224  2.860514
H    0.243453  -3.978288  3.694169
