35
Energy: -21190.0573384 eV PBE+vdW (tier 2 basis)
C    0.781215  -0.913542  1.948970
C    -0.113873  0.266372  1.639453
O    0.342439  1.316337  1.175539
H    0.940877  -0.988572  3.033709
H    1.746095  -0.733861  1.467360
H    0.370957  -1.873585  1.615185
N    -1.456020  0.192188  1.925679
C    -2.363154  -0.959756  2.012877
C    -1.814234  -2.126889  2.857368
O    -1.670253  -3.259007  2.400017
H    -1.924523  1.055464  1.654744
H    -3.224661  -0.585143  2.594439
C    -2.952773  -1.393750  0.658208
C    -2.052315  -1.920812  -0.468913
C    -1.087477  -0.938747  -1.186051
N    -1.469624  0.465097  -1.276034
C    -2.667897  0.967813  -1.739260
N    -3.390247  0.096148  -2.557976
N    -3.172911  2.127676  -1.466645
H    -3.536664  -0.541742  0.278304
H    -3.686562  -2.181911  0.882071
H    -2.744088  -2.324103  -1.220738
H    -1.463010  -2.775425  -0.109504
H    -0.886376  -1.347753  -2.192071
H    -0.109527  -0.934573  -0.690295
H    -0.944934  1.095602  -0.675853
H    -4.158012  0.586096  -3.007388
H    -2.835399  -0.444323  -3.215524
H    -2.597704  2.625331  -0.780868
N    -1.544138  -1.858100  4.170335
C    -1.672034  -0.606432  4.898077
H    -1.186393  -2.665862  4.670841
H    -1.714428  -0.830277  5.969802
H    -2.599833  -0.084098  4.632030
H    -0.831746  0.079463  4.715409
