35
Energy: -21190.54115 eV PBE+vdW (tier 2 basis)
C    -0.280587  0.270025  0.005310
C    -0.200313  -0.118763  1.466417
O    0.729212  -0.802537  1.906409
H    -0.244318  -0.640844  -0.604641
H    0.603131  0.868721  -0.249040
H    -1.183341  0.837811  -0.250403
N    -1.219061  0.325485  2.257963
C    -1.226473  0.088062  3.698935
C    -2.686694  -0.134727  4.131193
O    -3.413580  0.806354  4.454407
H    -1.909691  0.960800  1.872534
H    -0.658337  -0.832799  3.848864
C    -0.559086  1.235654  4.468818
C    -0.233706  0.936129  5.937047
C    0.787053  -0.186672  6.166457
N    0.205520  -1.525414  6.029430
C    0.855081  -2.621437  5.455985
N    1.696657  -2.317857  4.398777
N    0.696188  -3.855575  5.816652
H    -1.217121  2.114751  4.410600
H    0.373115  1.483358  3.938173
H    -1.158157  0.715247  6.494907
H    0.169986  1.856338  6.386485
H    1.233884  -0.072069  7.169966
H    1.614760  -0.106901  5.450324
H    -0.374387  -1.802605  6.815262
H    2.055302  -3.168434  3.976173
H    1.363455  -1.652043  3.695973
H    0.185115  -3.917494  6.702386
N    -3.135813  -1.419244  4.099806
C    -2.409228  -2.615981  3.688350
H    -4.112448  -1.515224  4.359608
H    -3.128097  -3.437635  3.602525
H    -1.639845  -2.913479  4.413849
H    -1.935075  -2.484792  2.706736
