35
Energy: -21189.9931582 eV PBE+vdW (tier 2 basis)
C    -0.066583  1.263177  0.298699
C    0.073738  0.489976  1.589094
O    1.165287  0.092979  1.993526
H    -0.459539  2.272195  0.476141
H    -0.745467  0.750749  -0.392563
H    0.926555  1.337990  -0.152041
N    -1.045390  0.259930  2.370071
C    -2.475255  0.414547  2.131727
C    -3.007126  -0.604132  1.093065
O    -2.296683  -1.089560  0.219867
H    -0.801461  -0.333107  3.157754
H    -2.923698  0.140300  3.096794
C    -2.939515  1.877159  1.833944
C    -3.434921  2.198774  0.420079
C    -3.536463  3.707833  0.166332
N    -2.234227  4.371016  0.188435
C    -1.467413  4.419326  -0.967555
N    -0.310470  5.195511  -0.801188
N    -1.857465  3.812958  -2.033794
H    -3.731611  2.137705  2.553000
H    -2.091615  2.531655  2.076702
H    -4.429790  1.760390  0.246287
H    -2.777344  1.767723  -0.344860
H    -4.156825  4.182553  0.941145
H    -4.016560  3.877873  -0.808478
H    -2.161730  5.193839  0.774807
H    0.352752  5.105089  -1.563472
H    0.145454  5.091349  0.102312
H    -1.147866  3.853934  -2.768356
N    -4.327966  -0.954191  1.204222
C    -5.332456  -0.449148  2.122634
H    -4.635210  -1.570870  0.458082
H    -6.185159  -1.137023  2.122603
H    -5.702551  0.551993  1.848405
H    -4.950002  -0.405650  3.150869
