35
Energy: -21190.141372 eV PBE+vdW (tier 2 basis)
C    0.685536  -0.558267  1.380123
C    0.056956  -0.061864  2.665202
O    0.732319  0.235024  3.649699
H    1.742937  -0.281088  1.397948
H    0.210777  -0.163368  0.475003
H    0.615145  -1.654473  1.331216
N    -1.316304  0.016683  2.737289
C    -2.342517  -0.225497  1.719123
C    -2.188766  -1.601421  1.024923
O    -2.128660  -1.712343  -0.196461
H    -1.627847  0.359278  3.640894
H    -3.287270  -0.288093  2.288289
C    -2.495929  0.907728  0.698423
C    -2.901566  2.232117  1.345034
C    -3.030518  3.381464  0.338200
N    -4.033712  3.138600  -0.693244
C    -3.660760  2.877899  -2.001287
N    -4.772434  2.800058  -2.858173
N    -2.420292  2.764628  -2.327196
H    -3.246863  0.600569  -0.041266
H    -1.564956  1.035160  0.129598
H    -2.155806  2.531374  2.099156
H    -3.859031  2.107105  1.881503
H    -2.071442  3.542291  -0.173169
H    -3.286736  4.310193  0.868836
H    -4.916607  3.623808  -0.590246
H    -4.544850  2.440165  -3.779032
H    -5.575701  2.317108  -2.462093
H    -2.315378  2.476638  -3.301879
N    -2.145422  -2.704327  1.834670
C    -2.259830  -2.797326  3.281036
H    -2.031438  -3.566949  1.312075
H    -2.541230  -3.824574  3.539803
H    -3.049284  -2.136480  3.663477
H    -1.322319  -2.549605  3.798971
