35
Energy: -21190.6775305 eV PBE+vdW (tier 2 basis)
C    -3.377445  1.592586  3.355635
C    -1.991690  1.118283  3.750723
O    -1.074298  1.082072  2.912423
H    -3.968455  1.942871  4.209194
H    -3.914519  0.757700  2.882714
H    -3.278696  2.393643  2.615818
N    -1.852059  0.750277  5.048685
C    -0.725999  -0.001608  5.621294
C    0.637406  0.719630  5.732834
O    1.301970  0.567587  6.762128
H    -2.730350  0.645231  5.577814
H    -0.996927  -0.132680  6.675989
C    -0.555745  -1.406027  4.972608
C    -1.081146  -2.561427  5.835249
C    -2.523727  -2.445279  6.337696
N    -3.517065  -2.307577  5.283352
C    -4.477687  -1.333414  5.262414
N    -5.429928  -1.525221  4.255631
N    -4.422358  -0.317015  6.069630
H    0.508130  -1.590880  4.771015
H    -1.050186  -1.393952  3.992160
H    -0.442353  -2.668248  6.726170
H    -0.964786  -3.502732  5.271595
H    -2.650558  -1.573124  6.989698
H    -2.755501  -3.332023  6.952122
H    -3.475913  -2.940540  4.494476
H    -6.201703  -0.868577  4.281320
H    -5.742741  -2.481911  4.114138
H    -5.268050  0.251619  6.003751
N    1.037421  1.433257  4.656833
C    2.320670  2.102546  4.610005
H    0.427502  1.397204  3.827171
H    3.053052  1.540434  4.009351
H    2.707175  2.187691  5.631472
H    2.210585  3.104807  4.175683
