35
Energy: -21190.0575123 eV PBE+vdW (tier 2 basis)
C    -0.059520  -1.082409  0.529351
C    -0.440521  -0.698130  1.948133
O    0.181968  -1.109826  2.924409
H    1.024207  -0.969795  0.412749
H    -0.571039  -0.498699  -0.246090
H    -0.295929  -2.145051  0.381067
N    -1.530194  0.123547  2.053521
C    -2.145939  0.572462  3.307159
C    -1.116580  1.000337  4.388305
O    -1.223886  0.620131  5.548920
H    -1.999901  0.384815  1.195157
H    -2.679752  1.502063  3.042119
C    -3.197135  -0.395199  3.885727
C    -2.698442  -1.798073  4.270618
C    -2.731925  -2.821170  3.121899
N    -1.842724  -3.966212  3.328823
C    -2.137466  -4.988510  4.231455
N    -3.487869  -5.345563  4.272473
N    -1.302209  -5.617596  4.985911
H    -4.022420  -0.469355  3.157077
H    -3.612110  0.098808  4.773910
H    -3.307641  -2.185568  5.099144
H    -1.675021  -1.721520  4.656419
H    -2.438585  -2.354058  2.172178
H    -3.756659  -3.187157  2.972492
H    -0.869080  -3.676865  3.398303
H    -3.609647  -6.191091  4.822208
H    -3.944127  -5.405136  3.366252
H    -0.383947  -5.164632  4.976814
N    -0.158616  1.913017  4.037802
C    0.139233  2.517517  2.754098
H    0.482133  2.099784  4.802646
H    0.687321  3.451234  2.928504
H    -0.779499  2.775444  2.212745
H    0.754829  1.872059  2.107678
