35
Energy: -21190.2165204 eV PBE+vdW (tier 2 basis)
C    -1.774487  0.754231  1.021305
C    -1.126524  0.015325  2.174766
O    0.096279  -0.068189  2.308258
H    -1.114771  1.572055  0.714819
H    -2.763972  1.158479  1.271990
H    -1.891265  0.068318  0.166815
N    -2.001195  -0.555662  3.057673
C    -1.650449  -1.389895  4.209686
C    -0.419563  -0.890392  5.008269
O    0.469631  -1.668195  5.340779
H    -2.986122  -0.496334  2.827920
H    -2.501323  -1.282806  4.906295
C    -1.535355  -2.887201  3.873476
C    -0.352394  -3.300843  2.972419
C    -0.764358  -4.046674  1.697175
N    -1.641196  -3.286532  0.805410
C    -1.224343  -2.487948  -0.245909
N    0.113446  -2.113776  -0.206615
N    -1.964177  -2.080172  -1.230506
H    -2.487959  -3.170144  3.396894
H    -1.489986  -3.432514  4.825503
H    0.333252  -3.944230  3.539491
H    0.241740  -2.417045  2.711890
H    -1.300083  -4.970454  1.963144
H    0.137106  -4.351169  1.144323
H    -2.588428  -3.625391  0.704379
H    0.316785  -1.461584  -0.958068
H    0.461008  -1.777091  0.689621
H    -2.876954  -2.544698  -1.227254
N    -0.417341  0.404817  5.447795
C    -1.342962  1.487341  5.173658
H    0.446489  0.639412  5.926705
H    -1.237498  2.242195  5.962124
H    -2.381431  1.135361  5.193740
H    -1.158632  1.972539  4.202308
