35
Energy: -21190.1899467 eV PBE+vdW (tier 2 basis)
C    -0.137230  0.196555  -0.030451
C    -0.122402  0.101316  1.482622
O    0.930430  0.132182  2.123883
H    0.342603  1.137528  -0.326929
H    -1.141229  0.155042  -0.469980
H    0.467067  -0.622539  -0.439401
N    -1.344276  -0.005454  2.078787
C    -1.522088  -0.237114  3.519728
C    -2.971956  -0.665040  3.790938
O    -3.215209  -1.726101  4.357135
H    -2.146717  -0.163997  1.479753
H    -0.926094  -1.117303  3.797717
C    -1.082058  0.958325  4.412074
C    0.161625  0.657441  5.248371
C    0.781929  1.912489  5.876227
N    1.037337  3.008473  4.930962
C    2.245887  3.142571  4.244866
N    2.751561  1.955507  3.729915
N    2.774964  4.320711  4.177979
H    -1.908564  1.250138  5.079308
H    -0.877640  1.829112  3.773935
H    0.902217  0.150467  4.616689
H    -0.084776  -0.044890  6.060200
H    1.704648  1.626513  6.408298
H    0.090434  2.316972  6.630023
H    0.782456  3.923162  5.290992
H    3.583176  2.079219  3.163615
H    2.082327  1.316220  3.296146
H    3.567692  4.330070  3.529962
N    -3.989662  0.151552  3.352762
C    -3.944586  1.566890  3.007699
H    -4.898768  -0.219387  3.618339
H    -4.079949  2.214824  3.887874
H    -4.740206  1.789442  2.285703
H    -2.987508  1.822745  2.543417
