35
Energy: -21190.1456543 eV PBE+vdW (tier 2 basis)
C    1.128884  0.893709  0.236778
C    0.533659  1.038335  1.626575
O    1.005688  1.792395  2.470864
H    0.533562  0.271101  -0.442921
H    2.131344  0.456310  0.328843
H    1.248216  1.892001  -0.200557
N    -0.578697  0.274073  1.870362
C    -1.236968  0.201509  3.173703
C    -1.546031  1.590588  3.796355
O    -1.312670  1.816836  4.978495
H    -0.902322  -0.346820  1.139628
H    -2.217349  -0.269769  2.982303
C    -0.468314  -0.666739  4.179784
C    -0.332551  -2.123558  3.735335
C    0.496461  -2.989129  4.685954
N    -0.131109  -3.114965  5.990443
C    0.312839  -4.061691  6.910461
N    -0.321424  -3.927131  8.149177
N    1.194566  -4.986625  6.746250
H    -1.000574  -0.584873  5.137087
H    0.520797  -0.214242  4.341495
H    0.155578  -2.165826  2.748824
H    -1.329901  -2.580361  3.620140
H    1.522950  -2.578141  4.759007
H    0.585743  -3.999483  4.260788
H    -0.409298  -2.235520  6.417072
H    -0.084713  -4.701174  8.762766
H    -1.323315  -3.763467  8.100357
H    1.688746  -4.883944  5.857462
N    -2.181505  2.519446  3.018276
C    -2.599979  2.458729  1.630924
H    -2.305016  3.400789  3.506244
H    -1.782122  2.672647  0.925295
H    -3.391086  3.202158  1.475415
H    -3.023682  1.477298  1.383492
