35
Energy: -21190.3764029 eV PBE+vdW (tier 2 basis)
C    0.057227  0.172941  0.009713
C    0.003149  -0.175532  1.483651
O    1.019656  -0.392338  2.142794
H    0.611147  -0.612402  -0.518624
H    0.621420  1.106579  -0.108837
H    -0.929369  0.291560  -0.454817
N    -1.252670  -0.234954  2.027920
C    -1.496663  -0.481406  3.444051
C    -2.334419  -1.772460  3.590706
O    -3.564814  -1.722792  3.718007
H    -2.054913  -0.040797  1.438699
H    -0.501647  -0.614286  3.889639
C    -2.203848  0.699153  4.115099
C    -2.438543  0.475463  5.620801
C    -3.875062  0.836016  6.048301
N    -4.278281  0.348519  7.349446
C    -4.520233  -0.986105  7.643999
N    -4.908094  -1.777361  6.566729
N    -4.458627  -1.349400  8.884811
H    -3.171682  0.851136  3.612109
H    -1.600842  1.598498  3.931781
H    -1.714780  1.048351  6.218163
H    -2.267130  -0.580679  5.878059
H    -4.577197  0.452669  5.292571
H    -4.005612  1.928497  6.044388
H    -3.922538  0.836743  8.164597
H    -4.904428  -2.769393  6.767810
H    -4.557227  -1.570250  5.632217
H    -4.730222  -2.328969  8.996566
N    -1.685154  -2.964174  3.552303
C    -0.274172  -3.257093  3.349783
H    -2.319857  -3.755761  3.622406
H    0.132697  -3.809686  4.208249
H    0.305509  -2.338240  3.218978
H    -0.135750  -3.866179  2.445176
