35
Energy: -21190.8565939 eV PBE+vdW (tier 2 basis)
C    -0.569043  1.773420  1.161250
C    -1.264420  1.227227  2.394214
O    -2.109715  1.886533  3.007340
H    0.125747  1.062885  0.697837
H    -0.019808  2.681077  1.441888
H    -1.328475  2.065819  0.425771
N    -0.901155  -0.034921  2.756013
C    -1.319038  -0.648417  4.002394
C    -0.098314  -1.397251  4.570622
O    0.850816  -1.711240  3.842164
H    -0.075193  -0.472751  2.346953
H    -1.600297  0.159354  4.692645
C    -2.505670  -1.623387  3.816995
C    -3.857034  -0.967788  3.503566
C    -4.356511  0.045234  4.550083
N    -4.321210  -0.458580  5.931478
C    -3.232663  -0.266512  6.770314
N    -2.648336  0.981649  6.698499
N    -2.709559  -1.145125  7.575931
H    -2.594554  -2.233931  4.727784
H    -2.246472  -2.322822  3.007931
H    -4.604371  -1.769941  3.384093
H    -3.813530  -0.444511  2.536450
H    -5.387615  0.340080  4.306576
H    -3.742024  0.950579  4.483144
H    -4.712833  -1.390650  6.035343
H    -1.989471  1.164041  7.445756
H    -3.225729  1.767716  6.426869
H    -3.155810  -2.058522  7.456751
N    -0.155467  -1.691159  5.888507
C    0.898494  -2.446796  6.541968
H    -0.970369  -1.420547  6.453316
H    1.000932  -3.451976  6.108587
H    0.648909  -2.536935  7.604196
H    1.867788  -1.939852  6.440771
