35
Energy: -21190.7114529 eV PBE+vdW (tier 2 basis)
C    -1.908737  -0.840402  -0.227080
C    -1.464312  -0.240652  1.094770
O    -0.311800  0.146436  1.284508
H    -1.345994  -1.767226  -0.400201
H    -1.642454  -0.147928  -1.035199
H    -2.983669  -1.055349  -0.262061
N    -2.444986  -0.175367  2.053847
C    -2.167136  0.393552  3.362992
C    -2.605697  -0.515325  4.528015
O    -2.735294  -0.073992  5.669535
H    -3.402517  -0.487600  1.804405
H    -1.064606  0.425249  3.412761
C    -2.639935  1.847247  3.578134
C    -4.151478  2.115150  3.739230
C    -4.898263  2.582090  2.483799
N    -5.038834  1.573035  1.424109
C    -5.748641  0.404457  1.643054
N    -6.982265  0.577618  2.243295
N    -5.210423  -0.729959  1.309729
H    -2.225427  2.450603  2.755164
H    -2.136363  2.187250  4.491458
H    -4.280562  2.904797  4.494756
H    -4.658016  1.233054  4.159160
H    -4.384907  3.442164  2.029767
H    -5.898024  2.940157  2.766443
H    -4.155409  1.353525  0.969355
H    -7.572829  -0.242558  2.296138
H    -7.479166  1.438247  2.040449
H    -5.872817  -1.506364  1.369484
N    -2.789877  -1.825070  4.203545
C    -3.117994  -2.836883  5.185007
H    -2.641214  -2.086507  3.235340
H    -2.306081  -3.570533  5.294852
H    -4.040174  -3.369243  4.912412
H    -3.267076  -2.330039  6.144774
