35
Energy: -21190.1564309 eV PBE+vdW (tier 2 basis)
C    0.253643  1.308154  0.799164
C    0.091256  1.162717  2.303724
O    0.948682  1.584771  3.075855
H    1.261638  0.978841  0.523316
H    0.177334  2.374073  0.544827
H    -0.482570  0.750785  0.206738
N    -1.085208  0.578364  2.688679
C    -1.599302  0.247794  4.025256
C    -2.230730  1.361693  4.898581
O    -2.707156  1.002627  5.984966
H    -1.690538  0.299919  1.927106
H    -2.504551  -0.336886  3.789875
C    -0.742090  -0.745596  4.848334
C    0.598352  -0.336419  5.476695
C    0.549685  0.748785  6.553924
N    0.279947  2.057833  5.977266
C    -0.176531  3.155455  6.676235
N    -1.002166  2.839706  7.761103
N    0.168502  4.338812  6.274772
H    -0.559306  -1.603505  4.183287
H    -1.407752  -1.105651  5.645242
H    1.317051  -0.044244  4.701126
H    1.006108  -1.243093  5.951227
H    1.511062  0.749247  7.102246
H    -0.228778  0.510303  7.289132
H    0.864140  2.308896  5.183112
H    -1.443823  3.656197  8.169764
H    -1.680489  2.100987  7.557934
H    -0.341534  5.059098  6.793762
N    -2.463730  2.623599  4.441944
C    -1.797165  3.421579  3.416824
H    -2.941715  3.159575  5.160922
H    -2.130702  4.456392  3.542563
H    -2.073599  3.097973  2.405500
H    -0.706845  3.411632  3.529389
