35
Energy: -21190.3477486 eV PBE+vdW (tier 2 basis)
C    -0.327092  -0.052008  -0.192438
C    -0.096373  -0.189729  1.300457
O    1.005192  -0.446333  1.774557
H    0.641713  -0.142231  -0.690023
H    -0.778820  0.914452  -0.455453
H    -0.993103  -0.842532  -0.566934
N    -1.182340  0.014117  2.132257
C    -2.590827  0.062065  1.752944
C    -3.344479  1.175523  2.525713
O    -4.553960  1.110817  2.735114
H    -0.974833  -0.234995  3.098388
H    -2.625208  0.372168  0.697151
C    -3.295270  -1.304319  1.874941
C    -4.506069  -1.463427  0.952529
C    -5.192729  -2.825342  1.131349
N    -6.289460  -3.078944  0.212987
C    -6.067290  -3.454214  -1.107370
N    -7.244579  -3.447297  -1.864406
N    -4.957472  -3.786699  -1.672830
H    -3.594329  -1.464011  2.922943
H    -2.549277  -2.077988  1.634412
H    -4.187504  -1.353458  -0.096878
H    -5.229588  -0.662561  1.156723
H    -5.587503  -2.908603  2.155087
H    -4.464189  -3.644024  1.020695
H    -7.107175  -2.491432  0.346710
H    -7.082409  -3.861910  -2.777754
H    -8.049723  -3.857766  -1.398476
H    -4.156408  -3.631295  -1.057167
N    -2.564850  2.223580  2.905631
C    -3.090897  3.387437  3.590815
H    -1.571151  2.152587  2.712282
H    -4.165173  3.230986  3.735248
H    -2.939518  4.299715  2.997084
H    -2.613260  3.520176  4.571315
