35
Energy: -21190.6363603 eV PBE+vdW (tier 2 basis)
C    0.152274  -0.588324  0.178854
C    -0.284154  -1.287848  1.446961
O    0.412996  -2.151835  1.992729
H    -0.467861  -0.910788  -0.670618
H    1.192285  -0.854116  -0.026456
H    0.053525  0.502501  0.254623
N    -1.488668  -0.927199  1.996321
C    -2.574393  -0.209179  1.338325
C    -2.446310  1.330059  1.396585
O    -3.108680  2.038399  0.641439
H    -1.798264  -1.603118  2.712880
H    -2.613029  -0.451566  0.263879
C    -3.926982  -0.598514  1.970535
C    -4.359282  -2.076479  1.838925
C    -4.065487  -2.976681  3.048949
N    -2.642610  -3.236688  3.210833
C    -2.069638  -3.615483  4.445113
N    -0.731353  -3.925277  4.289220
N    -2.640298  -3.668682  5.597629
H    -4.676004  0.043855  1.490770
H    -3.910486  -0.310176  3.034986
H    -3.923373  -2.521751  0.928935
H    -5.447600  -2.104742  1.684082
H    -4.644604  -3.913275  2.958689
H    -4.419955  -2.472477  3.960097
H    -2.225182  -3.739041  2.428847
H    -0.255619  -4.064274  5.173596
H    -0.210049  -3.377235  3.597844
H    -3.652467  -3.547427  5.528015
N    -1.596248  1.797466  2.347447
C    -1.378350  3.209614  2.586641
H    -1.097080  1.101286  2.892741
H    -0.324099  3.480504  2.435690
H    -1.672168  3.489676  3.607852
H    -1.995807  3.766305  1.873363
