35
Energy: -21190.4092358 eV PBE+vdW (tier 2 basis)
C    0.198377  0.073051  0.347827
C    -0.061367  -0.283185  1.795983
O    0.856215  -0.563528  2.566646
H    1.247958  -0.150357  0.138051
H    0.029081  1.145255  0.177324
H    -0.449935  -0.501237  -0.323826
N    -1.353113  -0.251722  2.286110
C    -2.665856  -0.133983  1.654547
C    -3.068606  -1.407395  0.866620
O    -2.296247  -1.968057  0.088545
H    -1.369204  -0.578081  3.248072
H    -3.357449  -0.043307  2.500097
C    -2.841031  1.126895  0.774960
C    -4.306181  1.474587  0.471700
C    -5.035974  2.323663  1.530130
N    -4.881096  1.957199  2.933420
C    -5.484635  0.881026  3.527404
N    -5.309555  0.860661  4.912463
N    -6.087379  -0.027038  2.819850
H    -2.308439  0.976617  -0.172222
H    -2.341350  1.966353  1.285145
H    -4.879155  0.558322  0.281239
H    -4.350183  2.053017  -0.463626
H    -6.110793  2.325783  1.299932
H    -4.687241  3.364122  1.460186
H    -4.132411  2.398504  3.451764
H    -5.787467  0.107137  5.392734
H    -5.394916  1.752584  5.390972
H    -6.614482  -0.662970  3.423079
N    -4.343291  -1.815207  1.106849
C    -4.947069  -2.916722  0.383964
H    -4.946763  -1.227949  1.701099
H    -5.314144  -3.688775  1.074955
H    -4.183066  -3.356092  -0.266496
H    -5.789581  -2.572185  -0.233623
