35
Energy: -21190.2135402 eV PBE+vdW (tier 2 basis)
C    -1.251108  -0.200638  -0.391842
C    -0.802325  -0.171372  1.060910
O    0.386742  -0.264411  1.363946
H    -0.755795  0.619575  -0.926109
H    -2.335588  -0.115256  -0.533179
H    -0.906536  -1.139248  -0.843095
N    -1.820474  -0.034254  1.965387
C    -1.787564  -0.004902  3.435350
C    -2.036245  1.417289  4.006001
O    -3.049516  1.594351  4.695926
H    -2.746732  0.087723  1.572892
H    -2.706501  -0.522907  3.746634
C    -0.612120  -0.773009  4.071421
C    -0.837356  -1.175318  5.538684
C    -0.850213  -0.057475  6.591643
N    0.362941  0.737073  6.572891
C    0.424868  2.106144  6.727856
N    1.739839  2.596819  6.628300
N    -0.536938  2.949478  6.889143
H    0.326509  -0.218578  3.967281
H    -0.473188  -1.693515  3.488329
H    -0.046092  -1.896264  5.803969
H    -1.785039  -1.728182  5.636421
H    -1.002480  -0.517200  7.584255
H    -1.707257  0.605608  6.422066
H    1.222825  0.268259  6.313909
H    1.759417  3.577028  6.897127
H    2.431326  2.060596  7.147277
H    -1.456097  2.503623  6.844296
N    -1.172325  2.431786  3.761705
C    0.146735  2.431631  3.149478
H    -1.410619  3.261197  4.302201
H    0.346473  1.493542  2.624356
H    0.924734  2.581972  3.912476
H    0.215426  3.247706  2.416598
