35
Energy: -21190.294838 eV PBE+vdW (tier 2 basis)
C    0.050670  -0.885662  -0.353232
C    0.129753  -0.457236  1.104078
O    1.196709  -0.196487  1.651649
H    -0.971749  -1.041201  -0.720461
H    0.617001  -1.817407  -0.476299
H    0.540938  -0.122799  -0.970367
N    -1.072350  -0.374826  1.752825
C    -1.227235  -0.023067  3.163611
C    -0.515948  1.293139  3.550321
O    0.197566  1.377965  4.544891
H    -1.912209  -0.599676  1.234019
H    -2.308381  0.163292  3.297300
C    -0.811701  -1.150438  4.120328
C    -1.474981  -2.500859  3.838030
C    -3.011538  -2.500544  3.829761
N    -3.611458  -1.964226  5.042981
C    -4.326925  -0.791060  5.062536
N    -4.907398  -0.532066  6.312669
N    -4.450888  -0.063731  3.998216
H    -1.050831  -0.816795  5.138613
H    0.279684  -1.260745  4.086486
H    -1.117006  -3.222617  4.589385
H    -1.140386  -2.893039  2.863976
H    -3.376627  -3.527588  3.673705
H    -3.405272  -1.895351  3.002871
H    -3.778075  -2.606187  5.806985
H    -5.259294  0.414562  6.406693
H    -4.335489  -0.792178  7.112671
H    -4.958306  0.798888  4.202977
N    -0.780544  2.397216  2.782537
C    -1.696118  2.550525  1.668188
H    -0.253343  3.211233  3.080105
H    -1.984978  3.606348  1.595408
H    -2.614900  1.971454  1.829223
H    -1.256291  2.247286  0.705024
