35
Energy: -21190.5608303 eV PBE+vdW (tier 2 basis)
C    -2.558587  -0.789488  0.899986
C    -2.494540  -0.373104  2.353906
O    -2.476547  0.814190  2.689391
H    -2.413370  -1.865067  0.741891
H    -1.798688  -0.234167  0.338131
H    -3.538638  -0.502811  0.495733
N    -2.449075  -1.395160  3.264216
C    -2.576105  -1.158338  4.702379
C    -1.718685  -2.155536  5.509822
O    -2.085534  -2.595443  6.595109
H    -2.634974  -2.333620  2.924539
H    -2.122721  -0.167104  4.859781
C    -4.046879  -1.117039  5.156644
C    -4.330573  -0.321529  6.436690
C    -3.811295  1.135427  6.426160
N    -3.993362  1.881756  5.192824
C    -5.243229  2.161639  4.662724
N    -5.184960  2.538150  3.323289
N    -6.382817  2.170830  5.273656
H    -4.412893  -2.145917  5.284550
H    -4.622255  -0.669536  4.333535
H    -3.897220  -0.834936  7.305694
H    -5.420649  -0.319274  6.577204
H    -2.732805  1.153253  6.638917
H    -4.277237  1.682756  7.260843
H    -3.257212  1.768728  4.499681
H    -4.471494  2.089653  2.754664
H    -6.102900  2.588779  2.896902
H    -6.269867  1.979319  6.271284
N    -0.520387  -2.469965  4.935864
C    0.462250  -3.315127  5.586600
H    -0.294673  -2.035189  4.048336
H    0.773122  -4.136774  4.927516
H    -0.003493  -3.732329  6.485587
H    1.352285  -2.742027  5.883950
