35
Energy: -21190.5237431 eV PBE+vdW (tier 2 basis)
C    0.504931  -0.310139  -0.035694
C    0.085734  -0.480549  1.411584
O    0.755121  -1.169191  2.193020
H    1.536087  0.062172  -0.063354
H    -0.138175  0.367506  -0.610398
H    0.500691  -1.296048  -0.517984
N    -1.054070  0.168786  1.774700
C    -1.761154  0.090364  3.064502
C    -1.055407  0.792633  4.251988
O    -1.678172  1.605405  4.941820
H    -1.491987  0.743395  1.066019
H    -2.668134  0.691450  2.933203
C    -2.178056  -1.346003  3.442942
C    -3.220632  -1.980386  2.511397
C    -4.599646  -1.293927  2.470951
N    -5.280901  -1.185641  3.764813
C    -4.904504  -0.217371  4.699189
N    -4.773302  1.058524  4.150129
N    -4.685479  -0.572177  5.918428
H    -2.568724  -1.312153  4.469581
H    -1.285194  -1.984318  3.469037
H    -3.359679  -3.027630  2.824654
H    -2.831699  -2.028566  1.479828
H    -5.255912  -1.854663  1.788924
H    -4.515627  -0.283258  2.051253
H    -5.379511  -2.077421  4.247088
H    -4.387048  1.759771  4.772176
H    -5.536379  1.378434  3.562545
H    -4.562963  0.245107  6.522261
N    0.224343  0.414064  4.479422
C    1.011716  0.940993  5.575477
H    0.626366  -0.278475  3.837143
H    1.272406  0.149435  6.292988
H    0.415069  1.701468  6.090192
H    1.940608  1.398798  5.207321
