35
Energy: -21190.2219965 eV PBE+vdW (tier 2 basis)
C    -1.547901  0.313619  -0.072355
C    -1.002646  0.368393  1.343836
O    0.191537  0.512392  1.583798
H    -1.113136  1.137017  -0.650270
H    -2.642187  0.367168  -0.132104
H    -1.215985  -0.624085  -0.537144
N    -1.942985  0.262235  2.336590
C    -1.623796  0.111432  3.757826
C    -0.445576  1.018581  4.202114
O    0.536862  0.563692  4.787928
H    -2.900698  0.076282  2.063147
H    -2.511063  0.480780  4.303380
C    -1.378132  -1.353755  4.141891
C    -1.497457  -1.626222  5.642448
C    -1.010085  -3.024862  6.048706
N    0.311687  -3.399964  5.532406
C    1.502548  -3.018735  6.157731
N    1.562663  -1.680075  6.520164
N    2.400782  -3.929450  6.347708
H    -0.381815  -1.649038  3.787400
H    -2.106927  -1.971722  3.593322
H    -2.548555  -1.534526  5.964125
H    -0.937365  -0.871489  6.208435
H    -1.707786  -3.774124  5.646608
H    -1.050966  -3.106328  7.149733
H    0.384622  -4.389667  5.315178
H    2.467649  -1.396084  6.877725
H    1.173397  -0.999273  5.861753
H    3.283072  -3.513422  6.659900
N    -0.588426  2.366147  4.045403
C    -1.608226  3.106288  3.326747
H    0.249201  2.871823  4.317437
H    -2.604706  2.691183  3.518821
H    -1.439193  3.116661  2.238711
H    -1.607437  4.141070  3.689167
