35
Energy: -21189.9108459 eV PBE+vdW (tier 2 basis)
C    0.048420  -0.073366  0.026018
C    0.062299  -0.121335  1.540743
O    1.125333  -0.238680  2.150728
H    -0.569134  -0.865057  -0.414637
H    1.081396  -0.201191  -0.307698
H    -0.329587  0.887663  -0.343848
N    -1.105119  -0.012695  2.267437
C    -2.549738  0.041559  2.006809
C    -3.289106  -1.151820  2.664056
O    -4.226508  -0.930493  3.431355
H    -0.882192  -0.032336  3.260866
H    -2.934884  0.894273  2.586753
C    -3.001082  0.264673  0.556175
C    -4.511346  0.495654  0.448511
C    -4.942350  0.720523  -0.998043
N    -6.375914  0.957468  -1.072072
C    -6.938781  1.386309  -2.262628
N    -8.342502  1.405286  -2.206213
N    -6.194184  1.685795  -3.270994
H    -2.477188  1.146955  0.161143
H    -2.719761  -0.581895  -0.085452
H    -5.052863  -0.367046  0.869052
H    -4.803310  1.364213  1.057990
H    -4.642010  -0.138365  -1.627693
H    -4.444131  1.599132  -1.429340
H    -6.949103  0.303278  -0.547212
H    -8.727112  1.732100  -1.322944
H    -8.773975  1.872419  -2.996526
H    -6.746993  2.091572  -4.029954
N    -2.908476  -2.432916  2.379290
C    -1.824684  -2.937620  1.549678
H    -3.451246  -3.113809  2.901475
H    -0.834220  -2.758260  1.989955
H    -1.960908  -4.018510  1.435732
H    -1.844799  -2.501657  0.543282
