35
Energy: -21189.8093969 eV PBE+vdW (tier 2 basis)
C    0.281957  0.333547  -0.196782
C    0.087937  1.366688  0.899678
O    0.999078  2.115747  1.244962
H    0.179881  -0.686575  0.197754
H    1.290518  0.459107  -0.598596
H    -0.442846  0.461437  -1.011982
N    -1.138934  1.435277  1.506852
C    -2.374000  0.700386  1.249307
C    -2.179593  -0.825755  1.484386
O    -1.823135  -1.184989  2.604452
H    -1.185481  2.116211  2.262284
H    -2.987177  0.945113  2.125530
C    -3.151523  1.229747  0.024232
C    -4.666841  0.949755  0.083103
C    -5.504946  2.063297  0.741059
N    -5.193750  2.363237  2.140302
C    -4.152473  3.192119  2.553354
N    -3.899284  4.270937  1.709173
N    -3.418857  3.041242  3.605954
H    -2.726912  0.851735  -0.912431
H    -2.985703  2.315723  0.004904
H    -4.863120  -0.003778  0.602489
H    -5.064325  0.819943  -0.936047
H    -6.569748  1.791296  0.686575
H    -5.391011  2.987278  0.160294
H    -5.342399  1.586255  2.777250
H    -3.228145  4.905870  2.131504
H    -4.719754  4.750539  1.350528
H    -3.603334  2.149837  4.075422
N    -2.450874  -1.780551  0.534658
C    -2.706671  -1.726091  -0.897731
H    -2.293255  -2.705308  0.925114
H    -2.716709  -2.756605  -1.269054
H    -1.923493  -1.187271  -1.446871
H    -3.681355  -1.282112  -1.137780
