35
Energy: -21190.5473505 eV PBE+vdW (tier 2 basis)
C    0.833890  -2.314509  0.403647
C    0.503090  -1.769339  1.776705
O    0.845212  -2.361405  2.809556
H    0.220477  -3.207827  0.222612
H    1.885183  -2.622768  0.389580
H    0.645569  -1.605880  -0.411426
N    -0.216975  -0.611697  1.791723
C    -0.741962  0.105728  2.966455
C    0.326916  0.799384  3.851523
O    0.181088  1.982966  4.159576
H    -0.373218  -0.162928  0.897219
H    -1.304823  0.949140  2.547577
C    -1.717777  -0.712789  3.838415
C    -2.944355  -1.249853  3.078298
C    -2.820827  -2.732640  2.681525
N    -3.838557  -3.207509  1.759837
C    -3.776699  -2.918075  0.403424
N    -4.910499  -3.348732  -0.290281
N    -2.826487  -2.321938  -0.236340
H    -2.038182  -0.031102  4.638344
H    -1.179508  -1.535775  4.329678
H    -3.123169  -0.647617  2.174094
H    -3.845162  -1.132285  3.699086
H    -2.863726  -3.360409  3.583594
H    -1.840481  -2.935937  2.230718
H    -4.777865  -3.290869  2.136096
H    -4.782613  -3.242515  -1.292376
H    -5.236761  -4.278560  -0.040868
H    -2.143679  -1.933451  0.417010
N    1.346280  0.009728  4.268867
C    2.407362  0.498359  5.126409
H    1.337724  -0.968611  3.959924
H    2.246084  1.568660  5.292956
H    3.390471  0.350251  4.658105
H    2.402092  -0.016840  6.097903
