35
Energy: -21190.2981907 eV PBE+vdW (tier 2 basis)
C    0.109544  -0.012231  0.080863
C    0.087700  0.008637  1.600103
O    1.114134  0.040724  2.275978
H    0.709834  0.833423  -0.276224
H    -0.888253  0.031808  -0.372631
H    0.611494  -0.930646  -0.249532
N    -1.160714  -0.003932  2.153625
C    -1.404988  -0.052660  3.589936
C    -0.664437  1.054199  4.388300
O    -0.072522  0.799350  5.431970
H    -1.976518  -0.037213  1.542472
H    -2.476636  0.180132  3.702571
C    -1.103477  -1.426285  4.228036
C    -1.608233  -2.660321  3.471737
C    -3.114188  -2.960580  3.533871
N    -4.010203  -1.970630  2.919193
C    -3.905991  -1.553499  1.602420
N    -3.432905  -2.509111  0.718276
N    -4.174090  -0.366813  1.146359
H    -1.492569  -1.414527  5.256818
H    -0.013105  -1.496861  4.327790
H    -1.100207  -3.541107  3.895229
H    -1.291810  -2.613609  2.419624
H    -3.439217  -3.050111  4.580449
H    -3.305579  -3.947513  3.082679
H    -4.292564  -1.221321  3.540239
H    -3.587041  -2.246938  -0.249185
H    -3.653029  -3.476703  0.925440
H    -4.446299  0.265850  1.904068
N    -0.774893  2.344475  3.943866
C    -1.450079  2.884961  2.778411
H    -0.228156  2.987223  4.507760
H    -1.653478  3.947672  2.958545
H    -2.415295  2.391826  2.608460
H    -0.854282  2.796944  1.857053
