35
Energy: -21190.564168 eV PBE+vdW (tier 2 basis)
C    0.540223  0.318344  0.071612
C    0.365295  0.430664  1.570539
O    1.304486  0.740091  2.315418
H    -0.370204  0.013455  -0.458391
H    1.338930  -0.403054  -0.139731
H    0.868201  1.291234  -0.315682
N    -0.883060  0.173335  2.048123
C    -1.263448  0.327676  3.454589
C    -0.856788  -0.906802  4.315649
O    -1.684052  -1.610010  4.906335
H    -1.595551  -0.144126  1.401364
H    -0.673325  1.176149  3.835124
C    -2.751695  0.649503  3.584259
C    -3.706898  -0.356573  2.902576
C    -4.990962  -0.597836  3.697454
N    -4.664941  -1.190498  4.987185
C    -5.577237  -1.826986  5.806063
N    -6.914140  -1.500147  5.549653
N    -5.313421  -2.680681  6.738939
H    -2.925261  1.659274  3.185568
H    -2.976977  0.692796  4.657932
H    -3.210427  -1.330836  2.774392
H    -3.987343  -0.003141  1.898860
H    -5.664336  -1.252183  3.118518
H    -5.519661  0.366320  3.827592
H    -3.693009  -1.486923  5.094010
H    -7.509748  -1.864204  6.287767
H    -7.096165  -0.519213  5.356186
H    -4.319631  -2.926273  6.736963
N    0.479519  -1.102150  4.368482
C    1.089462  -2.202139  5.090094
H    1.061265  -0.455293  3.824515
H    1.578095  -2.907260  4.402305
H    0.304554  -2.730059  5.641074
H    1.839251  -1.829454  5.800665
