35
Energy: -21190.193061 eV PBE+vdW (tier 2 basis)
C    -0.064027  -0.293702  -0.604196
C    -0.055269  0.207854  0.830116
O    0.990549  0.488116  1.410094
H    0.967040  -0.269488  -0.966014
H    -0.686425  0.325873  -1.263204
H    -0.437409  -1.324321  -0.667292
N    -1.263172  0.341796  1.473789
C    -2.612842  0.018695  1.012974
C    -3.517789  1.219934  1.377710
O    -4.192394  1.224625  2.404535
H    -1.171804  0.644533  2.441706
H    -2.569151  -0.088043  -0.079543
C    -3.175089  -1.268693  1.629135
C    -2.372883  -2.522646  1.280879
C    -2.902899  -3.792361  1.948603
N    -4.241584  -4.117920  1.485063
C    -4.983802  -5.130885  2.086464
N    -6.183897  -5.375323  1.407966
N    -4.690338  -5.822646  3.131684
H    -4.218437  -1.379740  1.300546
H    -3.224871  -1.139489  2.720318
H    -1.324673  -2.397492  1.590804
H    -2.352188  -2.672900  0.186458
H    -2.950471  -3.635790  3.037528
H    -2.192605  -4.622953  1.773904
H    -4.369020  -4.062860  0.477755
H    -6.759332  -6.031256  1.928820
H    -6.700006  -4.537047  1.153099
H    -3.732385  -5.650297  3.444168
N    -3.508629  2.289206  0.526625
C    -2.670803  2.506510  -0.640457
H    -4.055088  3.072914  0.870594
H    -1.605234  2.598197  -0.382324
H    -2.986561  3.437241  -1.123179
H    -2.788078  1.701923  -1.379923
