35
Energy: -21190.171832 eV PBE+vdW (tier 2 basis)
C    -0.032098  -0.445329  -0.002990
C    -0.128360  0.544608  1.145403
O    0.601933  1.529509  1.214320
H    0.753276  -0.091711  -0.675759
H    -0.972283  -0.519314  -0.565968
H    0.225448  -1.453024  0.348152
N    -1.073484  0.311818  2.117547
C    -1.986483  -0.816881  2.277419
C    -3.388182  -0.252711  2.622342
O    -3.833443  -0.294630  3.767818
H    -1.039338  0.986546  2.879269
H    -2.038958  -1.336464  1.310201
C    -1.546470  -1.800412  3.368021
C    -0.211713  -2.495869  3.117824
C    0.208438  -3.390219  4.294091
N    0.473222  -2.640783  5.519765
C    -0.159700  -2.877468  6.731981
N    -1.505341  -3.246578  6.618024
N    0.526811  -2.763578  7.818816
H    -2.344773  -2.551316  3.482038
H    -1.501549  -1.247488  4.317914
H    0.578533  -1.749327  2.942299
H    -0.266710  -3.123021  2.212041
H    1.109324  -3.958956  4.013335
H    -0.576340  -4.130690  4.503087
H    1.444828  -2.396955  5.685070
H    -1.985573  -3.291800  7.509814
H    -2.045610  -2.736707  5.922983
H    -0.074342  -2.803635  8.645752
N    -4.099054  0.317369  1.605412
C    -3.699408  0.524649  0.224005
H    -4.973513  0.729913  1.915010
H    -2.890262  1.263012  0.126428
H    -4.567515  0.888953  -0.335222
H    -3.378818  -0.414186  -0.248732
