35
Energy: -21190.1679573 eV PBE+vdW (tier 2 basis)
C    0.101274  -0.112567  0.897845
C    -0.189495  0.450604  2.280733
O    0.704928  0.891715  2.997435
H    -0.383346  0.486212  0.112817
H    -0.239688  -1.150125  0.786371
H    1.183145  -0.074678  0.747121
N    -1.493788  0.448464  2.708910
C    -2.687842  0.057790  1.987564
C    -3.725954  1.185502  2.141477
O    -3.775512  1.854118  3.171492
H    -1.663484  0.955886  3.577074
H    -2.428832  -0.084336  0.930678
C    -3.309278  -1.249713  2.539804
C    -2.407830  -2.471847  2.382286
C    -2.973664  -3.713982  3.084523
N    -2.128844  -4.895650  2.952735
C    -1.284664  -5.381058  3.944615
N    -0.894561  -4.427668  4.884649
N    -0.866053  -6.595232  4.069754
H    -4.276825  -1.427119  2.041896
H    -3.538963  -1.081270  3.604106
H    -1.413048  -2.246885  2.796759
H    -2.254008  -2.702382  1.315590
H    -3.965377  -3.951932  2.669430
H    -3.124215  -3.499781  4.153297
H    -2.444942  -5.605826  2.305242
H    -0.196069  -4.814729  5.512225
H    -0.622849  -3.520100  4.517053
H    -1.342512  -7.225497  3.418698
N    -4.610993  1.366207  1.119304
C    -4.631298  0.701222  -0.173634
H    -5.291626  2.098613  1.295182
H    -5.480488  1.088059  -0.746173
H    -4.764234  -0.386431  -0.080572
H    -3.719622  0.896067  -0.757965
