35
Energy: -21189.8405094 eV PBE+vdW (tier 2 basis)
C    -0.050351  -0.142637  -0.052417
C    0.070312  -0.088993  1.458842
O    1.157530  -0.167627  2.022183
H    -0.558814  -1.063248  -0.370342
H    0.960576  -0.136834  -0.467644
H    -0.606815  0.713038  -0.456655
N    -1.081040  0.052473  2.200662
C    -2.483463  0.058223  1.783490
C    -2.839508  -1.269909  1.048990
O    -2.647637  -2.318522  1.659446
H    -0.900632  -0.038912  3.194992
H    -3.040518  -0.085220  2.722286
C    -2.946341  1.416275  1.227285
C    -2.769238  2.549651  2.240428
C    -3.325318  3.882860  1.715737
N    -3.119089  5.024334  2.586310
C    -1.900523  5.695544  2.646545
N    -1.883607  6.659895  3.660098
N    -0.854708  5.531123  1.913388
H    -4.010795  1.336857  0.955025
H    -2.405132  1.675126  0.306318
H    -1.704919  2.666306  2.489207
H    -3.283377  2.292289  3.181978
H    -4.407502  3.790048  1.534085
H    -2.875384  4.121657  0.739314
H    -3.629303  5.004287  3.464101
H    -1.035268  7.216693  3.607946
H    -2.717714  7.239284  3.709312
H    -0.930186  4.708275  1.311754
N    -3.398219  -1.310553  -0.202436
C    -3.600472  -0.307434  -1.238057
H    -3.598320  -2.272077  -0.462788
H    -4.424923  0.381544  -1.008708
H    -2.694599  0.278567  -1.435236
H    -3.856303  -0.834320  -2.163541
