35
Energy: -21189.7877138 eV PBE+vdW (tier 2 basis)
C    0.693561  0.626661  1.073076
C    -0.138992  -0.097927  2.111313
O    0.301265  -1.068510  2.721724
H    0.227556  0.553991  0.081187
H    1.672105  0.141144  1.036787
H    0.827975  1.687652  1.318578
N    -1.412384  0.354959  2.384659
C    -2.270441  1.347318  1.723511
C    -2.852627  0.736913  0.412937
O    -3.670283  -0.174037  0.536944
H    -1.902132  -0.293036  2.995173
H    -3.170073  1.361846  2.356097
C    -1.721659  2.779818  1.746306
C    -2.825713  3.822513  1.532381
C    -2.301179  5.251488  1.326336
N    -1.496551  5.779693  2.427800
C    -0.132372  5.538748  2.585686
N    0.582059  5.454360  1.385712
N    0.503398  5.401505  3.697970
H    -0.915892  2.938429  1.022727
H    -1.260694  2.925966  2.733513
H    -3.516148  3.806333  2.392643
H    -3.444282  3.563533  0.656213
H    -3.149919  5.933264  1.166590
H    -1.693670  5.290202  0.413091
H    -1.983293  5.810771  3.318799
H    1.579061  5.431209  1.583083
H    0.349123  6.168836  0.700361
H    -0.137954  5.333966  4.493317
N    -2.467085  1.122391  -0.846708
C    -1.657069  2.219235  -1.357398
H    -2.970649  0.578967  -1.542605
H    -2.117715  3.204565  -1.192118
H    -1.556243  2.078454  -2.439023
H    -0.646279  2.229197  -0.935461
