35
Energy: -21190.2407128 eV PBE+vdW (tier 2 basis)
C    -0.204043  0.320893  -0.362115
C    -0.085032  0.885519  1.039599
O    0.923426  1.473982  1.416915
H    0.804371  0.094326  -0.720727
H    -0.629792  1.091149  -1.020493
H    -0.834444  -0.572310  -0.437577
N    -1.149842  0.717112  1.906486
C    -2.502528  0.224264  1.628651
C    -2.536503  -1.296241  1.311753
O    -3.404962  -1.784002  0.592034
H    -1.017775  1.238861  2.768607
H    -3.029054  0.313299  2.593502
C    -3.298934  1.048928  0.598785
C    -4.808480  1.058765  0.849480
C    -5.569695  1.946345  -0.141182
N    -5.199207  3.357789  -0.051214
C    -4.814988  4.141564  -1.127630
N    -4.103611  3.456512  -2.120043
N    -5.149818  5.387989  -1.136633
H    -3.105981  0.655435  -0.410798
H    -2.924690  2.082766  0.639896
H    -5.201497  0.034804  0.781309
H    -5.007106  1.414716  1.875010
H    -6.652883  1.836681  0.031484
H    -5.388189  1.604668  -1.169225
H    -5.745281  3.916193  0.597844
H    -3.689855  4.066133  -2.816141
H    -3.452292  2.748785  -1.791804
H    -4.688890  5.894713  -1.896377
N    -1.570760  -2.023215  1.935062
C    -1.447141  -3.459516  1.784243
H    -0.855953  -1.505407  2.435225
H    -1.432575  -3.956330  2.763583
H    -0.531991  -3.728888  1.237311
H    -2.314668  -3.811410  1.216068
