35
Energy: -21190.273536 eV PBE+vdW (tier 2 basis)
C    0.581559  0.086025  2.514084
C    0.060358  -0.637105  1.288527
O    0.733886  -1.448337  0.657771
H    1.636473  -0.170752  2.637513
H    0.031658  -0.213213  3.417863
H    0.479293  1.176077  2.420551
N    -1.226563  -0.346917  0.895020
C    -2.210121  0.457676  1.597749
C    -2.726951  -0.080900  2.949099
O    -2.990434  0.734242  3.842787
H    -1.526987  -0.869069  0.076792
H    -1.732217  1.401840  1.894094
C    -3.418211  0.786628  0.679814
C    -3.435421  2.225109  0.151946
C    -3.491533  3.298739  1.267300
N    -4.389877  3.016580  2.369915
C    -5.766526  3.001302  2.214530
N    -6.421216  2.360070  3.269891
N    -6.470752  3.474850  1.240815
H    -4.353626  0.604178  1.226751
H    -3.425698  0.083872  -0.167073
H    -4.310018  2.327826  -0.505828
H    -2.548048  2.418626  -0.471565
H    -3.750130  4.270668  0.819758
H    -2.494092  3.434999  1.708670
H    -4.012258  2.362798  3.059410
H    -7.412984  2.577266  3.272835
H    -5.990505  2.471832  4.183026
H    -5.879324  3.843397  0.493614
N    -2.909292  -1.412839  3.143160
C    -2.838622  -2.513928  2.188912
H    -3.279497  -1.619693  4.065985
H    -3.361286  -2.275073  1.253704
H    -3.347156  -3.375999  2.633747
H    -1.805964  -2.805210  1.957044
