35
Energy: -21190.1014661 eV PBE+vdW (tier 2 basis)
C    -1.415962  -0.337693  -0.798297
C    -1.033201  -0.709289  0.618921
O    -0.313569  -1.674301  0.868164
H    -0.746138  -0.876964  -1.473211
H    -1.356990  0.738454  -0.996027
H    -2.448781  -0.649437  -1.008737
N    -1.537585  0.043149  1.658210
C    -2.379224  1.242326  1.659686
C    -3.653631  1.062400  0.796222
O    -3.909181  1.800645  -0.153180
H    -1.192942  -0.278980  2.557713
H    -2.731190  1.333132  2.701967
C    -1.624800  2.532964  1.311712
C    -2.357096  3.801030  1.759054
C    -1.631413  5.101803  1.386581
N    -0.341687  5.309793  2.046927
C    0.863133  4.751819  1.624334
N    0.986950  4.620241  0.241909
N    1.839468  4.371004  2.378072
H    -1.450448  2.577591  0.228566
H    -0.637581  2.471659  1.790650
H    -2.511202  3.778784  2.853005
H    -3.356304  3.831420  1.299691
H    -2.274035  5.959598  1.634901
H    -1.477879  5.134826  0.300457
H    -0.401279  5.358211  3.059553
H    1.936028  4.355541  -0.004689
H    0.646733  5.406266  -0.304540
H    1.572522  4.382155  3.366601
N    -4.497113  0.045946  1.145908
C    -4.369848  -0.926755  2.219103
H    -5.295238  -0.035363  0.523848
H    -5.354590  -1.371604  2.400983
H    -4.049298  -0.448995  3.154492
H    -3.658455  -1.730213  1.980541
