35
Energy: -21190.31292 eV PBE+vdW (tier 2 basis)
C    0.181395  -0.349854  0.185179
C    0.203064  -0.101596  1.685544
O    1.256616  0.007781  2.305741
H    1.217339  -0.459706  -0.145401
H    -0.270364  0.495291  -0.354567
H    -0.377375  -1.256919  -0.079808
N    -1.004514  -0.010180  2.333765
C    -2.342471  0.027521  1.774343
C    -3.065645  1.257197  2.356823
O    -2.932313  1.566527  3.538044
H    -0.942063  0.260542  3.314812
H    -2.263317  0.122083  0.681896
C    -3.168598  -1.234618  2.115383
C    -2.614888  -2.521665  1.507415
C    -3.432329  -3.755078  1.925650
N    -2.963960  -5.017782  1.386839
C    -1.871316  -5.693604  1.923485
N    -1.508357  -6.800318  1.145652
N    -1.202503  -5.424856  2.989731
H    -4.206247  -1.073951  1.778018
H    -3.209704  -1.319251  3.212873
H    -1.566679  -2.659580  1.810688
H    -2.619330  -2.450515  0.406498
H    -4.481694  -3.628374  1.617262
H    -3.448770  -3.840524  3.023040
H    -3.075645  -5.135028  0.384433
H    -0.791987  -7.344362  1.618558
H    -2.288558  -7.380444  0.847302
H    -1.462737  -4.523290  3.395012
N    -3.875722  1.922196  1.485666
C    -4.686455  3.061436  1.877416
H    -3.898489  1.614447  0.521167
H    -4.508350  3.239360  2.943001
H    -5.755489  2.861691  1.720809
H    -4.404421  3.961499  1.314315
