35
Energy: -21190.2849689 eV PBE+vdW (tier 2 basis)
C    0.112769  -0.179237  1.345293
C    -0.820815  -0.792733  2.367144
O    -0.426480  -1.271494  3.425844
H    0.090194  -0.734066  0.397421
H    1.126578  -0.211944  1.751776
H    -0.157087  0.864151  1.123665
N    -2.172132  -0.806984  2.065773
C    -2.824597  -0.084898  0.969897
C    -4.286449  0.217406  1.316269
O    -4.812082  1.294579  1.021391
H    -2.730401  -1.035839  2.883766
H    -2.344551  0.895598  0.857861
C    -2.765194  -0.848818  -0.398018
C    -2.237998  -0.057339  -1.602041
C    -3.082981  1.138607  -2.081237
N    -3.127080  2.294438  -1.184235
C    -1.974827  2.930779  -0.741227
N    -0.927961  2.965802  -1.664804
N    -1.790073  3.455939  0.426064
H    -3.762994  -1.252579  -0.635579
H    -2.120142  -1.724633  -0.242228
H    -1.217495  0.300898  -1.401920
H    -2.153333  -0.758986  -2.447651
H    -2.714149  1.448821  -3.071001
H    -4.127006  0.828165  -2.236111
H    -3.817997  2.192441  -0.435908
H    -1.205145  3.122529  -2.629396
H    -0.202260  3.607007  -1.358365
H    -2.592537  3.275207  1.036402
N    -4.973445  -0.787468  1.926948
C    -6.387410  -0.686965  2.246524
H    -4.525125  -1.693493  2.011767
H    -6.586917  -1.150151  3.220127
H    -7.013232  -1.172062  1.482753
H    -6.651974  0.374092  2.286942
