35
Energy: -21190.6681459 eV PBE+vdW (tier 2 basis)
C    -2.276210  1.574619  2.636149
C    -1.049312  0.733402  2.924708
O    0.066717  1.255928  3.077387
H    -2.003020  2.626163  2.755822
H    -3.107611  1.332792  3.311901
H    -2.632986  1.419393  1.608352
N    -1.202201  -0.615268  3.027835
C    -2.357466  -1.423584  2.665769
C    -2.449827  -2.774980  3.406691
O    -3.537863  -3.357297  3.419995
H    -0.338441  -1.096703  3.297262
H    -3.263385  -0.891428  2.988257
C    -2.521117  -1.665607  1.139410
C    -1.618161  -2.684926  0.423408
C    -0.138974  -2.328320  0.176236
N    0.761299  -2.707349  1.265447
C    1.343882  -1.838020  2.157535
N    1.867990  -0.664425  1.667424
N    1.352206  -2.177636  3.422559
H    -2.442522  -0.691976  0.630879
H    -3.558347  -2.002551  1.003110
H    -2.070616  -2.855256  -0.565660
H    -1.673934  -3.660615  0.933858
H    -0.038398  -1.248055  0.000716
H    0.193459  -2.830499  -0.745530
H    0.532085  -3.589622  1.715270
H    1.621820  0.163950  2.220541
H    1.807027  -0.517032  0.665937
H    1.964327  -1.559327  3.960137
N    -1.330164  -3.290906  3.966475
C    -1.377706  -4.581684  4.632530
H    -0.397462  -2.848768  3.889949
H    -2.013549  -4.545890  5.528158
H    -0.358073  -4.852132  4.926973
H    -1.786726  -5.356679  3.969182
