35
Energy: -21190.234416 eV PBE+vdW (tier 2 basis)
C    -0.054461  0.236854  0.092507
C    -0.127842  0.144607  1.603302
O    0.863211  0.254825  2.323536
H    -0.513790  1.169429  -0.265183
H    -0.584943  -0.587969  -0.401734
H    0.998993  0.226037  -0.198097
N    -1.368645  -0.068175  2.154868
C    -2.660257  -0.104436  1.482645
C    -3.079561  1.213242  0.790876
O    -3.573626  1.170799  -0.336690
H    -1.359061  -0.109465  3.170549
H    -2.618622  -0.818714  0.646378
C    -3.727960  -0.592800  2.476260
C    -5.114404  -0.793666  1.865254
C    -6.146031  -1.279821  2.888997
N    -5.828105  -2.582005  3.470440
C    -5.367736  -2.692605  4.770166
N    -5.324004  -4.026289  5.206976
N    -5.061939  -1.644598  5.456823
H    -3.801534  0.100653  3.328275
H    -3.371674  -1.546368  2.894457
H    -5.052763  -1.509371  1.030038
H    -5.483066  0.148246  1.431074
H    -7.131528  -1.348574  2.406796
H    -6.226766  -0.560438  3.716146
H    -6.388108  -3.362045  3.148942
H    -4.803961  -4.154758  6.068279
H    -5.041304  -4.700115  4.499314
H    -4.675933  -1.899635  6.368010
N    -2.917534  2.405449  1.438631
C    -2.378015  2.707473  2.758022
H    -3.218781  3.189745  0.868641
H    -2.642460  3.742822  3.000524
H    -1.284292  2.611158  2.801757
H    -2.818261  2.070898  3.535497
