35
Energy: -21190.3861929 eV PBE+vdW (tier 2 basis)
C    -0.976743  0.536562  -0.804816
C    -0.523746  0.138203  0.587168
O    0.626724  -0.228606  0.822001
H    -2.015463  0.885966  -0.846873
H    -0.861483  -0.327314  -1.471593
H    -0.315557  1.327635  -1.178994
N    -1.481435  0.237368  1.561258
C    -1.271102  -0.273652  2.901287
C    -2.508781  -1.099866  3.276406
O    -3.611272  -0.845367  2.786325
H    -2.460357  0.355083  1.307150
H    -0.363297  -0.893905  2.864249
C    -1.073287  0.856120  3.939071
C    0.236318  1.622281  3.758106
C    0.347848  2.809511  4.722364
N    1.625595  3.521551  4.658911
C    2.813311  2.965023  5.138710
N    2.659186  2.207746  6.302549
N    3.989743  3.096326  4.629803
H    -1.109534  0.425500  4.953008
H    -1.937615  1.535833  3.862497
H    0.319311  1.984954  2.722416
H    1.089814  0.946267  3.917575
H    0.187471  2.467811  5.754230
H    -0.447822  3.542054  4.517282
H    1.773421  4.005895  3.778042
H    3.569324  1.965134  6.683511
H    2.045347  2.615695  7.002621
H    3.950285  3.536788  3.706397
N    -2.342925  -2.086052  4.200464
C    -1.096477  -2.558311  4.785342
H    -3.202005  -2.571251  4.438555
H    -0.374016  -2.868482  4.017663
H    -1.318651  -3.430720  5.408244
H    -0.621480  -1.801261  5.426044
