35
Energy: -21190.2115924 eV PBE+vdW (tier 2 basis)
C    1.752066  -0.341614  0.145983
C    1.283721  -0.628479  1.565753
O    2.091960  -0.784582  2.481555
H    2.322101  -1.207849  -0.213796
H    2.437835  0.513760  0.168977
H    0.941689  -0.132983  -0.563692
N    -0.074302  -0.679301  1.713351
C    -0.888716  -1.099115  2.862074
C    -1.627663  0.050478  3.583833
O    -2.843075  -0.055435  3.773182
H    -0.609628  -0.569745  0.860405
H    -1.708323  -1.669607  2.405657
C    -0.191081  -2.059659  3.844031
C    -1.171057  -2.730270  4.815785
C    -2.205090  -3.657649  4.162884
N    -1.609233  -4.784882  3.450266
C    -1.560118  -4.848973  2.075728
N    -1.109644  -6.098405  1.614738
N    -1.935040  -3.853766  1.341798
H    0.594604  -1.547416  4.410551
H    0.318159  -2.830010  3.247683
H    -1.720769  -1.971018  5.393298
H    -0.582068  -3.309554  5.544078
H    -2.837380  -3.105207  3.456264
H    -2.870530  -4.057767  4.941321
H    -1.620922  -5.678283  3.925498
H    -0.870926  -6.101316  0.628893
H    -0.368220  -6.515563  2.172571
H    -1.777433  -4.051963  0.351875
N    -0.950778  1.142125  4.042528
C    0.451727  1.503256  3.930325
H    -1.575702  1.817756  4.473237
H    0.753078  2.048918  4.833474
H    0.644553  2.146474  3.056494
H    1.088874  0.617427  3.840263
