35
Energy: -21190.2642939 eV PBE+vdW (tier 2 basis)
C    -0.203669  -0.532907  -0.458091
C    0.734044  0.124987  0.536454
O    1.589517  0.937959  0.197082
H    -0.892917  -1.257737  -0.007084
H    0.397584  -1.039351  -1.222899
H    -0.786636  0.248399  -0.961384
N    0.556705  -0.244353  1.845554
C    1.409253  0.280732  2.909149
C    1.611253  -0.822284  3.966100
O    2.611469  -1.531520  3.980981
H    -0.149863  -0.932304  2.076042
H    2.398052  0.441101  2.458491
C    0.898920  1.626534  3.450298
C    1.892715  2.292850  4.403524
C    1.386801  3.609112  5.011436
N    1.023966  4.631678  4.029176
C    -0.249909  4.761496  3.478582
N    -1.292033  4.475968  4.367643
N    -0.540311  5.117737  2.274440
H    -0.086893  1.514507  3.934620
H    0.719806  2.272406  2.580063
H    2.836976  2.477698  3.864553
H    2.150708  1.613871  5.233649
H    2.158405  4.022461  5.678730
H    0.503777  3.412176  5.632079
H    1.753680  4.830635  3.350652
H    -2.180612  4.730874  3.945194
H    -1.182657  4.880562  5.294350
H    0.292148  5.143089  1.678613
N    0.570474  -0.976940  4.843350
C    0.587143  -1.963344  5.907472
H    -0.163366  -0.277857  4.840011
H    1.410132  -2.656143  5.703038
H    -0.358423  -2.520314  5.936417
H    0.756760  -1.499776  6.890717
