35
Energy: -21190.1934279 eV PBE+vdW (tier 2 basis)
C    -0.327211  0.561909  -0.262144
C    -0.080045  1.019018  1.157748
O    1.016680  1.464234  1.509301
H    0.528117  0.880183  -0.863338
H    -1.240669  0.988175  -0.691982
H    -0.409226  -0.532823  -0.295191
N    -1.079532  0.908358  2.093686
C    -2.484220  0.499707  2.049723
C    -2.731202  -0.654393  1.048948
O    -2.146807  -1.726183  1.180743
H    -0.753774  1.218792  3.004712
H    -2.657356  -0.014312  3.009930
C    -3.452027  1.705735  2.038497
C    -3.419712  2.648866  0.818730
C    -3.193687  4.125217  1.180174
N    -1.916654  4.328416  1.849301
C    -0.739954  4.288471  1.110854
N    0.391268  4.560754  1.886784
N    -0.778381  4.034282  -0.152713
H    -3.195358  2.293016  2.933814
H    -4.470639  1.326760  2.215647
H    -4.363966  2.592640  0.252871
H    -2.615823  2.382350  0.120993
H    -3.979842  4.472025  1.866174
H    -3.250978  4.727365  0.259226
H    -1.912415  4.988997  2.617355
H    1.246168  4.248940  1.433670
H    0.343399  4.149530  2.817049
H    0.166516  3.928357  -0.528865
N    -3.661871  -0.426520  0.080873
C    -3.989183  -1.420423  -0.923634
H    -4.024847  0.512227  -0.029185
H    -5.073744  -1.459165  -1.085407
H    -3.639084  -2.392392  -0.561382
H    -3.492895  -1.207169  -1.882535
