35
Energy: -21190.6535783 eV PBE+vdW (tier 2 basis)
C    -2.843047  -0.080205  1.276243
C    -1.934477  -0.360741  2.459388
O    -0.709435  -0.356526  2.359099
H    -2.755975  0.982011  1.007728
H    -3.897142  -0.313589  1.467215
H    -2.486807  -0.657507  0.415378
N    -2.584412  -0.626740  3.642470
C    -1.850458  -0.792789  4.887921
C    -1.745804  -2.266165  5.358879
O    -1.254232  -2.542232  6.452556
H    -3.596156  -0.452046  3.683872
H    -0.811916  -0.499457  4.659469
C    -2.378393  0.067481  6.045261
C    -2.157770  1.582207  5.932780
C    -3.150214  2.362711  5.052045
N    -4.543109  2.173666  5.438322
C    -5.361007  1.220517  4.866061
N    -6.354428  0.748261  5.711636
N    -5.310960  0.784417  3.643277
H    -1.861972  -0.303724  6.939710
H    -3.446728  -0.153243  6.208269
H    -1.138731  1.786509  5.566958
H    -2.203360  2.010146  6.947712
H    -3.048216  2.072300  3.999731
H    -2.913276  3.435757  5.096660
H    -4.789334  2.460249  6.380366
H    -6.936477  0.044780  5.268932
H    -6.081439  0.517495  6.661984
H    -4.709878  1.390205  3.077934
N    -2.208995  -3.190581  4.479342
C    -2.101929  -4.616099  4.709177
H    -2.562956  -2.840900  3.595596
H    -1.400707  -5.084990  4.003653
H    -3.080888  -5.105506  4.613287
H    -1.726372  -4.760674  5.728086
