35
Energy: -21189.8021402 eV PBE+vdW (tier 2 basis)
C    -0.072035  -0.104616  -0.292255
C    0.202707  -0.102002  1.198612
O    1.339951  -0.231088  1.642542
H    0.890107  -0.149948  -0.808537
H    -0.608022  0.797186  -0.614983
H    -0.668163  -0.982773  -0.575461
N    -0.856633  0.052523  2.064658
C    -2.303994  0.115065  1.835453
C    -2.828513  -1.250777  1.295378
O    -2.742681  -2.216293  2.051260
H    -0.568540  -0.088711  3.027941
H    -2.722326  0.094317  2.852290
C    -2.777215  1.446746  1.225690
C    -4.265963  1.708374  1.483457
C    -4.785289  3.030978  0.918066
N    -4.738702  3.057814  -0.536080
C    -5.445720  4.025718  -1.255223
N    -5.151062  3.971509  -2.621440
N    -6.277065  4.903627  -0.817227
H    -2.540437  1.502756  0.155557
H    -2.182824  2.238731  1.706174
H    -4.434210  1.719232  2.571958
H    -4.884211  0.887539  1.088870
H    -4.225964  3.876155  1.365185
H    -5.836207  3.150635  1.216894
H    -3.820486  2.876476  -0.932830
H    -5.752080  4.601514  -3.145131
H    -5.140337  3.034978  -3.016653
H    -6.290698  4.942556  0.204007
N    -3.370891  -1.422264  0.047071
C    -3.587997  -0.541400  -1.092748
H    -3.657766  -2.389660  -0.073577
H    -3.946347  -1.161453  -1.921548
H    -2.663409  -0.055365  -1.428234
H    -4.348400  0.228595  -0.902338
