35
Energy: -21190.4546419 eV PBE+vdW (tier 2 basis)
C    -0.490219  1.632154  4.571570
C    -0.768900  0.178976  4.924302
O    0.099796  -0.570297  5.357024
H    -0.507498  2.234387  5.490890
H    -1.219643  2.048400  3.863960
H    0.514322  1.710738  4.143356
N    -2.067469  -0.223284  4.714827
C    -2.571222  -1.487521  5.240039
C    -2.439987  -2.686767  4.276308
O    -2.732391  -3.817510  4.660386
H    -2.766474  0.511664  4.587646
H    -1.958701  -1.762176  6.113502
C    -4.044011  -1.343820  5.653284
C    -4.304989  -0.284314  6.745359
C    -5.089947  0.944921  6.272810
N    -4.407228  1.738589  5.244021
C    -4.961843  1.953951  3.971325
N    -4.348261  3.020666  3.312156
N    -5.905475  1.312029  3.383745
H    -4.369836  -2.334874  5.989216
H    -4.636767  -1.118878  4.751099
H    -3.353128  0.045296  7.190469
H    -4.877996  -0.734805  7.569154
H    -5.305514  1.597669  7.132075
H    -6.068146  0.630398  5.880524
H    -3.962155  2.573214  5.615861
H    -3.347459  3.121703  3.454048
H    -4.611863  3.053961  2.332132
H    -6.350935  0.623659  3.993089
N    -2.022970  -2.385878  3.020665
C    -1.811849  -3.391769  2.000838
H    -1.773371  -1.419261  2.843364
H    -2.380645  -3.156075  1.090891
H    -2.160151  -4.349252  2.403222
H    -0.747075  -3.482893  1.741842
