35
Energy: -21190.5456452 eV PBE+vdW (tier 2 basis)
C    -0.787904  2.280236  0.943054
C    -0.977979  0.977822  1.682019
O    -0.030556  0.201243  1.891239
H    -0.784443  2.045452  -0.132930
H    0.184832  2.707039  1.207980
H    -1.578463  3.014053  1.144114
N    -2.254202  0.707540  2.073413
C    -2.784863  -0.560779  2.600462
C    -2.370173  -0.913137  4.051333
O    -3.229368  -1.292783  4.848242
H    -2.938329  1.431336  1.893141
H    -3.869026  -0.409841  2.680313
C    -2.515377  -1.742694  1.648980
C    -3.278335  -1.649890  0.319437
C    -2.641429  -2.456729  -0.834813
N    -1.721042  -1.707996  -1.694181
C    -0.554228  -1.102783  -1.235432
N    0.293115  -1.900646  -0.475133
N    -0.298819  0.108488  -1.610574
H    -2.794971  -2.666857  2.175586
H    -1.435045  -1.793404  1.471442
H    -3.340334  -0.599637  -0.006498
H    -4.314306  -1.988980  0.474275
H    -3.426386  -2.841059  -1.499678
H    -2.134681  -3.351359  -0.438913
H    -2.194465  -1.053894  -2.313501
H    0.747140  -1.405501  0.287714
H    -0.056227  -2.813943  -0.206184
H    0.664276  0.355201  -1.363229
N    -1.046201  -0.820415  4.324340
C    -0.496361  -1.148634  5.624204
H    -0.429626  -0.529581  3.556924
H    0.066838  -0.300285  6.037330
H    0.174835  -2.017958  5.565334
H    -1.327423  -1.389775  6.295443
