35
Energy: -21190.1531799 eV PBE+vdW (tier 2 basis)
C    0.684013  0.887191  0.932966
C    0.110476  -0.348593  1.601674
O    0.776855  -1.376533  1.736008
H    1.003828  0.620230  -0.081781
H    1.579385  1.199041  1.485478
H    -0.012927  1.732573  0.878614
N    -1.167447  -0.215226  2.069833
C    -2.008858  -1.318167  2.559966
C    -3.438437  -0.837816  2.873248
O    -4.378228  -1.586335  2.620226
H    -1.671373  0.605847  1.752538
H    -2.170130  -2.019836  1.726667
C    -1.446735  -2.191010  3.710534
C    -1.080041  -1.552060  5.054919
C    0.237400  -0.748904  5.083152
N    1.413192  -1.487720  4.667809
C    2.035670  -2.409099  5.496443
N    2.972493  -3.191297  4.816960
N    1.850207  -2.614979  6.757972
H    -0.581766  -2.739612  3.318518
H    -2.229304  -2.944503  3.881638
H    -0.986085  -2.373461  5.781042
H    -1.896872  -0.918037  5.433057
H    0.405848  -0.366176  6.101429
H    0.167128  0.138145  4.438330
H    1.457645  -1.679676  3.667005
H    3.560930  -3.704452  5.465831
H    3.504352  -2.709171  4.098300
H    1.068233  -2.066303  7.120718
N    -3.677200  0.425499  3.367883
C    -2.828885  1.331792  4.132817
H    -4.679039  0.566686  3.481212
H    -3.019630  1.248999  5.213597
H    -3.020561  2.369559  3.827169
H    -1.773355  1.113764  3.958920
