35
Energy: -21190.1485773 eV PBE+vdW (tier 2 basis)
C    -1.533069  -0.021198  -0.123254
C    -1.439547  -1.173056  0.862072
O    -0.617155  -2.072822  0.731988
H    -0.733522  0.695388  0.110192
H    -2.494265  0.507928  -0.097566
H    -1.354504  -0.404246  -1.133273
N    -2.363220  -1.118784  1.885140
C    -2.322637  -1.934673  3.090343
C    -1.195632  -1.436448  4.037026
O    -0.217248  -0.807223  3.631988
H    -2.883460  -0.252619  1.958032
H    -3.264189  -1.718282  3.617614
C    -2.329004  -3.467920  2.757945
C    -1.435811  -4.388720  3.598004
C    0.076923  -4.213190  3.330922
N    0.841365  -4.184354  4.575615
C    2.103905  -3.602607  4.687785
N    2.309533  -2.480699  3.901773
N    2.945485  -4.156729  5.501279
H    -2.031848  -3.569978  1.709233
H    -3.371420  -3.809550  2.827533
H    -1.735586  -5.424388  3.380903
H    -1.616636  -4.250554  4.674513
H    0.254325  -3.283877  2.781351
H    0.427929  -5.017597  2.659687
H    0.850782  -5.062017  5.090905
H    3.155426  -1.968787  4.119324
H    1.508332  -1.876475  3.706148
H    3.784866  -3.581468  5.609769
N    -1.408385  -1.708184  5.351427
C    -0.406770  -1.471604  6.378463
H    -2.205016  -2.285393  5.593913
H    -0.893077  -1.146357  7.305948
H    0.261118  -0.680025  6.024913
H    0.190006  -2.375460  6.567724
