35
Energy: -21190.3121065 eV PBE+vdW (tier 2 basis)
C    -1.262895  -1.673075  -0.026994
C    -0.356732  -0.828212  0.855729
O    0.858086  -1.016973  0.892845
H    -0.627266  -2.367859  -0.581860
H    -1.826651  -1.058704  -0.743260
H    -1.989818  -2.246850  0.563556
N    -0.939090  0.147031  1.619076
C    -2.335595  0.527737  1.719730
C    -2.408743  2.063388  1.606186
O    -1.544787  2.777140  2.109384
H    -0.288995  0.749375  2.122591
H    -2.880915  0.066848  0.883717
C    -3.008251  0.102067  3.047928
C    -3.075165  -1.409129  3.313299
C    -1.808415  -2.000349  3.956228
N    -1.912692  -3.414765  4.280240
C    -2.657222  -3.849733  5.358588
N    -2.711839  -5.252829  5.434363
N    -3.233180  -3.007010  6.147932
H    -4.030087  0.512444  3.041545
H    -2.486589  0.607305  3.876284
H    -3.310709  -1.949565  2.381165
H    -3.903880  -1.606502  4.006771
H    -1.609706  -1.467071  4.895840
H    -0.928830  -1.874149  3.313458
H    -1.845393  -4.063908  3.504466
H    -3.119793  -5.592980  6.298712
H    -1.832268  -5.721632  5.229666
H    -3.633715  -3.478417  6.961914
N    -3.505841  2.545606  0.957066
C    -3.788843  3.964246  0.834428
H    -4.162107  1.880970  0.565610
H    -4.723444  4.231203  1.347337
H    -3.861517  4.263341  -0.219998
H    -2.959346  4.505335  1.301376
