35
Energy: -21190.1416837 eV PBE+vdW (tier 2 basis)
C    -1.516839  0.780436  -0.195371
C    -0.996222  0.877119  1.227429
O    0.058026  1.439192  1.499964
H    -2.523763  0.350613  -0.274496
H    -0.822525  0.162483  -0.779144
H    -1.516058  1.782335  -0.640941
N    -1.816528  0.318379  2.184997
C    -1.388439  0.127225  3.573974
C    -1.272471  -1.374870  3.908245
O    -0.182846  -1.866017  4.184940
H    -2.596016  -0.233634  1.845967
H    -0.349884  0.480996  3.599465
C    -2.215889  0.917072  4.615662
C    -1.765265  2.361184  4.864684
C    -1.849204  3.321029  3.662889
N    -3.090905  3.275615  2.900208
C    -4.284898  3.721950  3.423456
N    -5.369335  3.457732  2.558956
N    -4.342271  4.276914  4.586658
H    -2.155295  0.376352  5.572955
H    -3.279594  0.911854  4.335158
H    -0.722954  2.364493  5.220764
H    -2.385069  2.769178  5.674313
H    -1.035128  3.122351  2.954067
H    -1.723766  4.347385  4.031751
H    -3.167690  2.503934  2.246399
H    -6.226555  3.916423  2.850861
H    -5.170725  3.650758  1.579282
H    -5.273630  4.658952  4.766902
N    -2.396082  -2.169482  3.852953
C    -3.803535  -1.801318  3.866833
H    -2.180735  -3.125709  4.122833
H    -4.008168  -0.938519  3.223060
H    -4.170847  -1.554087  4.875466
H    -4.391822  -2.641882  3.479865
