35
Energy: -21190.4285602 eV PBE+vdW (tier 2 basis)
C    0.005290  -0.938589  0.283487
C    0.174406  -0.580903  1.750159
O    1.283254  -0.474373  2.269198
H    0.519836  -1.887906  0.090620
H    0.499970  -0.169480  -0.322757
H    -1.040361  -1.026609  -0.037081
N    -0.994503  -0.393503  2.438407
C    -1.071278  0.016411  3.839578
C    -1.805718  -1.089666  4.622819
O    -3.008064  -1.000609  4.893526
H    -1.871721  -0.496049  1.939491
H    -0.031289  0.116572  4.183620
C    -1.778264  1.377339  3.938095
C    -2.079491  1.942105  5.334065
C    -0.900832  2.106510  6.302187
N    -0.514286  0.885202  6.995827
C    0.710615  0.281819  6.826470
N    0.864720  -0.855601  7.641358
N    1.557462  0.729286  5.961884
H    -2.735589  1.308608  3.398286
H    -1.148017  2.088297  3.381896
H    -2.863039  1.333681  5.809795
H    -2.522045  2.939763  5.187095
H    -1.170657  2.865304  7.055239
H    -0.001439  2.462731  5.783667
H    -1.257802  0.308962  7.373049
H    1.818846  -1.199828  7.664313
H    0.486932  -0.754362  8.580660
H    2.449993  0.235270  6.012063
N    -1.085835  -2.186102  4.989252
C    0.284976  -2.546819  4.671908
H    -1.656442  -2.884504  5.458089
H    0.782957  -2.923841  5.574513
H    0.844367  -1.679921  4.308185
H    0.324897  -3.321806  3.890694
