35
Energy: -21190.0612147 eV PBE+vdW (tier 2 basis)
C    -0.402280  -2.805845  0.197753
C    -0.215403  -1.865753  1.369558
O    0.710832  -1.996312  2.167073
H    0.107717  -2.383327  -0.680114
H    -1.446974  -2.982638  -0.081506
H    0.085060  -3.753056  0.445723
N    -1.093749  -0.813578  1.521948
C    -2.297161  -0.450598  0.769469
C    -3.348013  -1.590147  0.732016
O    -3.784472  -2.032812  -0.328792
H    -0.839226  -0.223803  2.308127
H    -2.751780  0.366086  1.355294
C    -2.026637  0.089010  -0.641238
C    -1.063630  1.275095  -0.649582
C    -0.808303  1.804882  -2.058123
N    0.119234  2.935823  -2.011324
C    0.590763  3.576495  -3.157427
N    -0.301844  3.571984  -4.226496
N    1.737493  4.148820  -3.301047
H    -2.993512  0.374757  -1.079857
H    -1.646943  -0.721952  -1.277699
H    -0.104180  0.973101  -0.197721
H    -1.458875  2.094662  -0.026275
H    -1.763563  2.132691  -2.495574
H    -0.429178  0.991189  -2.704154
H    0.849997  2.828353  -1.313820
H    -1.282021  3.693800  -3.991551
H    0.010579  4.200710  -4.960112
H    2.348612  3.970105  -2.499577
N    -3.777367  -2.079225  1.932542
C    -3.414261  -1.670857  3.280023
H    -4.439301  -2.842190  1.831163
H    -2.440994  -2.072379  3.596394
H    -4.183282  -2.035349  3.970193
H    -3.387084  -0.576687  3.373289
