35
Energy: -21190.4449802 eV PBE+vdW (tier 2 basis)
C    0.544947  -0.808991  1.174730
C    0.578605  0.057322  2.420589
O    1.555963  0.095713  3.164922
H    1.528242  -1.272209  1.060430
H    0.313958  -0.224239  0.273669
H    -0.211962  -1.601521  1.260610
N    -0.526518  0.834331  2.681557
C    -1.857184  0.732468  2.101943
C    -2.491652  2.126656  1.843600
O    -3.707762  2.246072  1.691414
H    -0.495045  1.303671  3.587772
H    -1.746752  0.304129  1.094533
C    -2.816045  -0.195579  2.879412
C    -2.851828  -0.074931  4.412541
C    -3.159710  1.315671  4.990694
N    -1.945923  2.130369  5.089564
C    -1.901120  3.528752  5.049730
N    -3.092070  4.156455  4.731793
N    -0.833558  4.242150  5.189642
H    -2.550374  -1.234910  2.634783
H    -3.820388  -0.016550  2.471011
H    -1.906713  -0.440958  4.847186
H    -3.624447  -0.770738  4.771733
H    -3.645711  1.203198  5.976956
H    -3.864828  1.830323  4.325687
H    -1.237544  1.744660  5.707366
H    -3.021580  5.164994  4.808459
H    -3.953486  3.768539  5.096807
H    -0.000410  3.655623  5.287530
N    -1.605607  3.146210  1.747778
C    -1.998339  4.524219  1.530655
H    -0.634809  2.931697  1.949322
H    -1.553110  5.166117  2.301603
H    -3.089561  4.577235  1.598707
H    -1.684323  4.878273  0.537853
