35
Energy: -21190.1257197 eV PBE+vdW (tier 2 basis)
C    0.758043  -1.236089  0.778870
C    0.416630  -0.759242  2.178968
O    1.271967  -0.571480  3.039836
H    1.432433  -0.506215  0.314097
H    -0.115630  -1.376494  0.130045
H    1.305523  -2.184104  0.851850
N    -0.916746  -0.570481  2.428742
C    -1.398432  -0.000109  3.676882
C    -1.372737  -0.876046  4.952379
O    -1.472580  -0.291725  6.030863
H    -1.576251  -0.695626  1.670172
H    -0.718816  0.821403  3.946473
C    -2.812667  0.576494  3.491641
C    -3.916032  -0.455958  3.243172
C    -5.280667  0.188590  2.967658
N    -5.302142  0.962739  1.728489
C    -5.728656  2.280698  1.633140
N    -5.457837  3.062498  2.759606
N    -6.337814  2.651954  0.558049
H    -2.780865  1.292698  2.655059
H    -3.044290  1.140840  4.406585
H    -4.010091  -1.119839  4.116606
H    -3.664545  -1.105591  2.387096
H    -5.557555  0.851183  3.798859
H    -6.053846  -0.595838  2.928079
H    -5.595922  0.455516  0.898997
H    -5.629851  4.051742  2.622346
H    -4.575631  2.884889  3.231570
H    -6.476353  3.665144  0.535333
N    -1.300546  -2.238781  4.911016
C    -1.165543  -3.179290  3.809253
H    -1.258657  -2.625582  5.849274
H    -1.913909  -3.004454  3.027993
H    -1.336051  -4.185626  4.208718
H    -0.163797  -3.157478  3.356886
