35
Energy: -21190.3657313 eV PBE+vdW (tier 2 basis)
C    -1.289209  1.811280  2.522528
C    -0.217825  0.814287  2.932974
O    0.954728  0.929139  2.578909
H    -1.349360  2.604832  3.281009
H    -2.281086  1.351662  2.433853
H    -1.000400  2.268401  1.571054
N    -0.665045  -0.222917  3.709421
C    0.282324  -1.093247  4.402629
C    1.452661  -1.650017  3.563284
O    2.565728  -1.716295  4.080995
H    -1.574619  -0.066055  4.166493
H    0.811351  -0.516262  5.178512
C    -0.419396  -2.302059  5.067139
C    -1.708834  -1.992137  5.836850
C    -1.586990  -0.872986  6.882749
N    -2.869487  -0.326790  7.310719
C    -3.606523  0.459858  6.453022
N    -4.848896  0.821778  6.980855
N    -3.151697  0.771457  5.280005
H    0.327797  -2.763109  5.729696
H    -0.653896  -3.055500  4.300673
H    -2.056319  -2.914773  6.327352
H    -2.499775  -1.709024  5.128335
H    -1.006905  -0.031869  6.482354
H    -1.056779  -1.225815  7.778153
H    -3.412145  -0.891242  7.955435
H    -5.354893  1.506312  6.430218
H    -4.852074  1.046943  7.971963
H    -3.745839  1.467360  4.825115
N    1.218748  -2.219551  2.339686
C    0.049816  -2.145725  1.480439
H    2.086579  -2.520194  1.906158
H    -0.872597  -2.278833  2.054506
H    0.109553  -2.958452  0.746008
H    -0.017469  -1.188743  0.939363
