35
Energy: -21190.4685498 eV PBE+vdW (tier 2 basis)
C    -1.219639  1.093805  -0.682007
C    -1.311029  1.373120  0.804644
O    -0.541352  0.828784  1.606673
H    -1.377998  0.020371  -0.845132
H    -0.203951  1.329369  -1.022562
H    -1.941071  1.655201  -1.287752
N    -2.282490  2.251525  1.179924
C    -2.639196  2.647769  2.552818
C    -1.589690  3.559576  3.239031
O    -1.932416  4.663107  3.668355
H    -2.817272  2.686939  0.438999
H    -3.506450  3.310978  2.444003
C    -3.069888  1.432152  3.402765
C    -3.603220  1.767934  4.803608
C    -2.522778  2.039610  5.853868
N    -3.111857  2.124244  7.178786
C    -2.341525  2.503363  8.273380
N    -3.039965  2.375074  9.481046
N    -1.124644  2.924976  8.283907
H    -2.236561  0.720105  3.478474
H    -3.861130  0.922123  2.833193
H    -4.201496  0.905260  5.140721
H    -4.292088  2.625894  4.763564
H    -2.028236  2.998117  5.650777
H    -1.747288  1.250086  5.794949
H    -3.800458  1.406610  7.389844
H    -2.504152  2.779339  10.244058
H    -3.990276  2.736069  9.453555
H    -0.692735  2.846416  7.360467
N    -0.350257  3.028839  3.369825
C    0.726347  3.724484  4.046670
H    -0.184795  2.117141  2.928639
H    1.104305  3.131181  4.891764
H    0.335579  4.675271  4.424238
H    1.562180  3.927752  3.362321
