35
Energy: -21190.0338826 eV PBE+vdW (tier 2 basis)
C    0.235445  -0.036561  0.457753
C    -0.002136  0.115198  1.941194
O    0.924707  0.343076  2.716922
H    0.329994  -1.106508  0.220815
H    1.178793  0.459190  0.215419
H    -0.550852  0.388059  -0.169454
N    -1.256546  -0.144829  2.480481
C    -2.627498  0.041514  1.989692
C    -2.813288  -0.129400  0.470247
O    -3.144996  0.802579  -0.266847
H    -1.193885  -0.072059  3.495403
H    -3.205622  -0.798370  2.417335
C    -3.309594  1.320968  2.542105
C    -2.506456  2.617868  2.727347
C    -2.099427  3.405653  1.478442
N    -0.835713  2.932230  0.917184
C    -0.451330  3.149901  -0.407477
N    -1.494751  3.106037  -1.320053
N    0.758907  3.340154  -0.821192
H    -3.697955  1.049967  3.536696
H    -4.191374  1.520660  1.916459
H    -1.611430  2.427307  3.342260
H    -3.139371  3.279044  3.339141
H    -2.028335  4.477724  1.742097
H    -2.875744  3.322752  0.711228
H    -0.049577  3.028222  1.554733
H    -1.144748  3.103430  -2.272357
H    -2.204741  2.395999  -1.137117
H    1.399258  3.477556  -0.033953
N    -2.681370  -1.392146  -0.018228
C    -2.365168  -2.612999  0.705200
H    -2.866916  -1.459318  -1.014521
H    -1.846356  -3.304033  0.030633
H    -3.268635  -3.115656  1.085087
H    -1.695061  -2.399097  1.545072
