35
Energy: -21190.3436553 eV PBE+vdW (tier 2 basis)
C    0.265242  -0.408702  1.516696
C    -0.067237  -1.030840  2.863825
O    0.804365  -1.504329  3.589426
H    1.340159  -0.524118  1.355994
H    0.020448  0.663364  1.499139
H    -0.274680  -0.891973  0.691943
N    -1.383329  -1.047972  3.247843
C    -2.543807  -0.476626  2.590123
C    -3.315663  0.353097  3.632347
O    -3.462932  -0.052299  4.783078
H    -1.549533  -1.392563  4.192323
H    -2.197535  0.175755  1.775605
C    -3.492974  -1.554556  2.017320
C    -2.895012  -2.362217  0.868090
C    -3.731414  -3.593176  0.495710
N    -3.756741  -4.588270  1.563232
C    -2.718595  -5.499604  1.678790
N    -2.957309  -6.448351  2.686044
N    -1.702300  -5.434040  0.890492
H    -4.425867  -1.064048  1.691499
H    -3.763924  -2.229713  2.843190
H    -1.888554  -2.716000  1.131205
H    -2.788193  -1.730304  -0.028873
H    -3.320368  -4.044502  -0.419854
H    -4.772878  -3.301063  0.296106
H    -4.667225  -4.945784  1.825182
H    -2.145715  -7.015922  2.906359
H    -3.384069  -6.070075  3.528545
H    -0.977639  -6.103092  1.158810
N    -3.844145  1.521275  3.168885
C    -4.661808  2.396162  3.989221
H    -3.650379  1.787795  2.211339
H    -4.731863  1.941637  4.982965
H    -5.673001  2.504496  3.572671
H    -4.206224  3.391281  4.084174
