35
Energy: -21190.4326631 eV PBE+vdW (tier 2 basis)
C    -1.538517  0.460202  -0.402949
C    -0.379450  0.717895  0.545034
O    0.577339  1.417238  0.223035
H    -1.510200  -0.571082  -0.781658
H    -1.438627  1.143660  -1.250099
H    -2.516871  0.613159  0.073192
N    -0.438922  0.138453  1.787180
C    -1.450359  -0.736564  2.344702
C    -1.328265  -0.631015  3.873145
O    -0.235240  -0.424237  4.417497
H    0.335611  0.353738  2.414627
H    -2.450161  -0.377498  2.052037
C    -1.334417  -2.218101  1.875873
C    0.057611  -2.869933  2.016460
C    0.163676  -3.954358  3.090257
N    -0.004303  -3.413368  4.421439
C    -0.188183  -4.199050  5.538058
N    -0.199219  -3.461763  6.733234
N    -0.411945  -5.469250  5.594691
H    -1.641305  -2.236838  0.821585
H    -2.086559  -2.810952  2.419889
H    0.822641  -2.098660  2.193310
H    0.335717  -3.335049  1.061213
H    1.134559  -4.474042  2.984328
H    -0.617746  -4.712801  2.910889
H    0.236338  -2.433939  4.558461
H    -0.136433  -4.087079  7.531556
H    0.483859  -2.709849  6.781560
H    -0.456746  -5.886781  4.663248
N    -2.472287  -0.815372  4.564750
C    -2.509923  -0.877018  6.020473
H    -3.320434  -1.013880  4.048436
H    -3.550324  -0.786868  6.348997
H    -1.929763  -0.044595  6.435900
H    -2.083353  -1.819308  6.393756
