35
Energy: -21190.3674432 eV PBE+vdW (tier 2 basis)
C    2.453012  -0.195082  2.274803
C    1.447821  -0.947583  3.123493
O    1.763850  -1.461517  4.197239
H    3.211236  -0.905674  1.920646
H    2.964382  0.542841  2.903864
H    2.010462  0.313885  1.409819
N    0.173636  -1.003557  2.617819
C    -0.849844  -1.876125  3.205362
C    -2.048312  -2.049856  2.268136
O    -2.649767  -3.116864  2.196004
H    0.067683  -0.767453  1.636605
H    -0.423850  -2.879971  3.327345
C    -1.347631  -1.346847  4.580215
C    -1.967881  -2.441370  5.462464
C    -0.933778  -3.218842  6.309253
N    0.235472  -3.726736  5.609296
C    0.245577  -4.819579  4.757398
N    -0.879437  -5.645508  4.815153
N    1.227050  -5.155197  3.983235
H    -2.076024  -0.540397  4.404597
H    -0.492771  -0.889532  5.096303
H    -2.558915  -3.124467  4.832414
H    -2.685743  -1.984676  6.160815
H    -1.429388  -4.053409  6.826069
H    -0.557439  -2.549404  7.097565
H    0.922232  -3.018546  5.350179
H    -1.775957  -5.167819  4.778380
H    -0.811507  -6.358876  4.094372
H    2.029547  -4.536355  4.132094
N    -2.412771  -0.936644  1.554749
C    -3.606302  -0.919636  0.725649
H    -2.007315  -0.046570  1.824969
H    -3.788015  -1.938793  0.369822
H    -3.456371  -0.254641  -0.133036
H    -4.494550  -0.589670  1.285825
