35
Energy: -21190.3200545 eV PBE+vdW (tier 2 basis)
C    0.343799  -1.008475  1.530509
C    0.004904  -1.105789  3.003998
O    0.815546  -1.531281  3.832477
H    -0.184125  -1.784631  0.959060
H    1.416388  -1.188033  1.423078
H    0.094366  -0.026390  1.106385
N    -1.249544  -0.736489  3.401937
C    -2.391930  -0.369991  2.586478
C    -2.851026  1.044871  2.989299
O    -3.019643  1.339071  4.169985
H    -1.391350  -0.717528  4.409911
H    -2.070821  -0.384273  1.536636
C    -3.579825  -1.338451  2.756726
C    -3.351016  -2.800321  2.336980
C    -2.696659  -3.745202  3.380103
N    -1.262180  -3.967003  3.291761
C    -0.618144  -4.579313  2.227310
N    -1.452710  -5.331167  1.389799
N    0.636298  -4.496006  1.939240
H    -4.412187  -0.926202  2.164248
H    -3.912162  -1.290149  3.806370
H    -2.780975  -2.857805  1.397840
H    -4.340565  -3.220058  2.101083
H    -3.209727  -4.718795  3.330771
H    -2.897055  -3.370800  4.394316
H    -0.663997  -3.342386  3.823307
H    -0.887392  -5.903796  0.769220
H    -2.169886  -5.874685  1.861947
H    1.117089  -3.841815  2.563386
N    -3.073714  1.902268  1.953131
C    -3.550752  3.260318  2.143989
H    -2.884422  1.578252  1.012536
H    -2.823484  3.993077  1.768543
H    -3.684492  3.412000  3.220123
H    -4.512401  3.418745  1.636895
