35
Energy: -21190.0727745 eV PBE+vdW (tier 2 basis)
C    0.465560  -0.100965  0.760304
C    0.087667  -0.091436  2.222014
O    0.896152  -0.366112  3.104845
H    1.361333  -0.721005  0.661895
H    0.719081  0.921293  0.431615
H    -0.325355  -0.505044  0.121010
N    -1.179260  0.342725  2.612313
C    -2.433023  0.448930  1.875004
C    -2.927140  -0.920104  1.343303
O    -2.171835  -1.858501  1.117918
H    -1.281651  0.207567  3.614811
H    -3.167580  0.773788  2.629570
C    -2.430875  1.524869  0.759509
C    -2.773151  2.942789  1.235951
C    -1.831929  3.551530  2.291960
N    -0.409395  3.526509  1.956359
C    0.086846  4.063368  0.776551
N    -0.470343  5.300475  0.438227
N    0.962916  3.397999  0.101239
H    -3.154935  1.239000  -0.017133
H    -1.456026  1.521011  0.258124
H    -3.797222  2.960956  1.647522
H    -2.783877  3.605151  0.357352
H    -1.924758  3.020857  3.248931
H    -2.152860  4.585063  2.492955
H    0.035626  2.633518  2.151078
H    0.007221  5.776862  -0.318467
H    -0.668971  5.917574  1.221084
H    1.364844  3.958978  -0.654575
N    -4.277518  -1.031411  1.129652
C    -5.327242  -0.062450  1.395279
H    -4.546283  -1.935706  0.755357
H    -6.295404  -0.557331  1.264976
H    -5.296038  0.799574  0.711604
H    -5.288066  0.314762  2.427591
