35
Energy: -21190.5328176 eV PBE+vdW (tier 2 basis)
C    -1.322735  2.203231  -0.026313
C    -1.522544  1.169020  1.065808
O    -0.819961  1.138399  2.075293
H    -1.385546  3.203681  0.418865
H    -2.049988  2.127466  -0.843795
H    -0.310507  2.090803  -0.434682
N    -2.550146  0.289991  0.853805
C    -2.774095  -0.861749  1.706658
C    -3.016014  -2.069286  0.787873
O    -3.521608  -1.933647  -0.327356
H    -2.993611  0.228234  -0.060342
H    -1.859435  -0.997927  2.305603
C    -3.977253  -0.678873  2.657419
C    -3.770589  0.430844  3.686533
C    -4.964272  0.596578  4.636056
N    -5.277356  -0.599821  5.408450
C    -4.594539  -0.921186  6.577146
N    -5.152627  -2.031182  7.224163
N    -3.576396  -0.331091  7.098338
H    -4.162877  -1.628389  3.182420
H    -4.872591  -0.476678  2.046360
H    -3.603433  1.392634  3.179886
H    -2.855398  0.230698  4.262734
H    -5.863560  0.841061  4.052646
H    -4.784725  1.456821  5.305800
H    -6.252482  -0.876733  5.410390
H    -4.565747  -2.325617  7.999470
H    -5.393016  -2.805001  6.610442
H    -3.343938  0.535207  6.607799
N    -2.669879  -3.273115  1.317978
C    -2.890996  -4.533321  0.633401
H    -2.218810  -3.280531  2.225198
H    -3.359726  -4.307374  -0.329864
H    -3.557414  -5.188815  1.211228
H    -1.942887  -5.058386  0.453726
