35
Energy: -21190.1797362 eV PBE+vdW (tier 2 basis)
C    -1.428205  0.033555  -0.799359
C    -2.018729  0.120538  0.595056
O    -2.125302  -0.873627  1.310172
H    -1.683178  -0.936774  -1.236716
H    -0.334438  0.089890  -0.706857
H    -1.760192  0.837783  -1.468537
N    -2.441573  1.381372  0.952889
C    -2.615477  1.883241  2.314245
C    -1.220130  2.170388  2.931121
O    -0.207354  1.605079  2.534022
H    -2.180299  2.102055  0.288716
H    -3.144546  2.844722  2.203680
C    -3.462383  1.004019  3.260086
C    -4.960936  0.928978  2.936081
C    -5.366939  -0.033970  1.804524
N    -4.950966  -1.420539  2.006101
C    -5.397344  -2.185976  3.077561
N    -6.721661  -1.936561  3.457958
N    -4.722270  -3.076040  3.723074
H    -3.353071  1.428633  4.267670
H    -3.020342  0.002699  3.309890
H    -5.345220  1.935708  2.695599
H    -5.489453  0.607909  3.846021
H    -4.938878  0.288274  0.846515
H    -6.458692  0.014555  1.681022
H    -3.958529  -1.557003  1.809508
H    -7.033222  -2.645002  4.116339
H    -7.371811  -1.819486  2.685336
H    -3.738887  -3.063507  3.437413
N    -1.173367  3.088375  3.946565
C    -2.224773  3.970878  4.426660
H    -0.237641  3.218902  4.317212
H    -1.790154  4.652602  5.164963
H    -3.042823  3.426050  4.919319
H    -2.653018  4.585265  3.620374
