35
Energy: -21190.47923 eV PBE+vdW (tier 2 basis)
C    -5.407626  1.492205  1.438998
C    -3.941956  1.234064  1.715159
O    -3.163911  0.869103  0.825897
H    -5.487139  2.254519  0.654119
H    -5.970790  1.825828  2.318949
H    -5.862127  0.572979  1.049087
N    -3.530002  1.436015  2.999268
C    -2.139608  1.249982  3.413768
C    -1.881495  -0.251600  3.715893
O    -1.887351  -0.706295  4.858397
H    -4.218230  1.641794  3.714870
H    -1.535923  1.535080  2.540088
C    -1.816873  2.145740  4.609390
C    -0.340902  2.147634  5.025758
C    0.615641  2.626564  3.934022
N    1.973692  2.717575  4.463344
C    3.056822  3.095988  3.678418
N    3.022042  2.600913  2.371793
N    3.958829  3.860285  4.193907
H    -2.417575  1.811910  5.468839
H    -2.135602  3.169740  4.357736
H    -0.044079  1.144393  5.361022
H    -0.239771  2.809632  5.900883
H    0.268986  3.595588  3.522502
H    0.608191  1.913877  3.097064
H    2.036320  3.195726  5.359809
H    2.615293  1.676299  2.259402
H    3.899993  2.697340  1.874225
H    4.767257  3.957855  3.573910
N    -1.668319  -0.985899  2.590321
C    -1.548502  -2.431181  2.622148
H    -1.879305  -0.519254  1.705110
H    -1.267368  -2.730231  3.637260
H    -0.775583  -2.763302  1.917787
H    -2.497029  -2.926861  2.363858
