35
Energy: -21190.4500009 eV PBE+vdW (tier 2 basis)
C    -0.357106  0.527002  -0.967907
C    -0.535047  0.019896  0.450475
O    -0.195602  -1.114277  0.791832
H    0.707827  0.480956  -1.227647
H    -0.718426  1.551580  -1.118273
H    -0.889605  -0.145853  -1.651347
N    -1.095251  0.905563  1.324387
C    -1.358022  0.561060  2.707425
C    -2.559815  1.406062  3.152263
O    -2.712356  2.557527  2.741549
H    -1.403158  1.830108  1.034929
H    -1.594178  -0.514549  2.738181
C    -0.120747  0.817289  3.600614
C    -0.232509  0.263168  5.020032
C    1.073666  0.420242  5.812317
N    1.008539  -0.147422  7.152206
C    1.637076  -1.317517  7.541309
N    1.870512  -2.222124  6.500129
N    1.977321  -1.455682  8.778809
H    0.075252  1.900902  3.619834
H    0.731332  0.344806  3.089535
H    -0.498832  -0.807592  4.978666
H    -1.041062  0.758427  5.578993
H    1.318211  1.490056  5.897697
H    1.904486  -0.043703  5.259335
H    0.947000  0.501466  7.928536
H    1.157342  -2.281919  5.778771
H    2.179155  -3.135410  6.812364
H    2.316093  -2.401100  8.971269
N    -3.401416  0.801413  4.032480
C    -4.543770  1.472754  4.624866
H    -3.207179  -0.158051  4.292758
H    -5.479097  0.951529  4.379951
H    -4.582010  2.485813  4.211574
H    -4.445465  1.534267  5.717644
