35
Energy: -21190.1424661 eV PBE+vdW (tier 2 basis)
C    -1.854184  1.373810  -0.453230
C    -1.042806  1.291230  0.821997
O    0.184885  1.337474  0.830008
H    -1.170437  1.642437  -1.262909
H    -2.651225  2.127912  -0.393731
H    -2.314813  0.400051  -0.692156
N    -1.726275  1.154766  2.015885
C    -3.143681  0.875578  2.188449
C    -3.887700  1.862066  3.112790
O    -4.943135  2.368930  2.726126
H    -1.093426  0.973470  2.789658
H    -3.610507  1.074517  1.220289
C    -3.402695  -0.603785  2.549803
C    -4.869092  -1.020209  2.724369
C    -5.815274  -0.685670  1.548534
N    -5.277685  -0.856519  0.198893
C    -4.593315  -1.968970  -0.255197
N    -5.039810  -3.177035  0.283546
N    -3.613904  -1.800733  -1.082308
H    -2.856542  -0.858643  3.471633
H    -2.937924  -1.197872  1.749736
H    -5.297679  -0.553070  3.625323
H    -4.876956  -2.104286  2.903726
H    -6.118565  0.366351  1.613233
H    -6.740369  -1.273855  1.666192
H    -4.903916  -0.017215  -0.230465
H    -4.683698  -4.001064  -0.186748
H    -6.036088  -3.235375  0.475234
H    -3.274586  -2.689923  -1.456659
N    -3.412920  2.129982  4.365711
C    -2.184080  1.704313  5.014629
H    -3.979752  2.820056  4.849683
H    -1.995385  0.635010  4.856892
H    -2.293949  1.850263  6.095088
H    -1.305182  2.277343  4.680614
