35
Energy: -21190.0796137 eV PBE+vdW (tier 2 basis)
C    0.718970  -0.328976  0.198959
C    0.537229  0.070526  1.653292
O    1.458328  0.520700  2.327965
H    -0.212178  -0.607799  -0.309837
H    1.413363  -1.177824  0.154378
H    1.187795  0.503535  -0.338786
N    -0.730151  -0.096405  2.147520
C    -1.126390  0.112984  3.541951
C    -0.416012  1.307949  4.231439
O    0.123594  1.177331  5.325881
H    -1.420244  -0.519528  1.538213
H    -2.191636  0.401523  3.503663
C    -1.039730  -1.168049  4.388144
C    0.340301  -1.827286  4.456139
C    0.349491  -3.090760  5.316331
N    -0.473620  -4.133704  4.719322
C    -0.751578  -5.358233  5.301466
N    -0.746432  -5.367300  6.698020
N    -1.076298  -6.344025  4.531247
H    -1.775130  -1.885487  3.992603
H    -1.366830  -0.909740  5.405755
H    1.066334  -1.114792  4.865246
H    0.695314  -2.085973  3.445213
H    -0.056653  -2.835835  6.308721
H    1.396918  -3.419371  5.462895
H    -0.379257  -4.241815  3.713198
H    -0.694382  -6.293711  7.103904
H    -0.140572  -4.701280  7.165697
H    -1.338241  -7.170769  5.072989
N    -0.548137  2.543977  3.659491
C    -1.095388  2.913338  2.368514
H    -0.015793  3.249639  4.158982
H    -1.355743  3.978319  2.391868
H    -2.015649  2.355950  2.155986
H    -0.388182  2.746956  1.540376
