35
Energy: -21190.2848773 eV PBE+vdW (tier 2 basis)
C    1.288591  -1.050075  0.565799
C    0.804594  -0.377135  1.833460
O    1.400746  0.583385  2.323080
H    1.290578  -0.312815  -0.246682
H    0.683653  -1.914293  0.264139
H    2.325320  -1.375215  0.715537
N    -0.323750  -0.914446  2.391744
C    -0.937967  -0.335961  3.580642
C    -1.215943  -1.345606  4.709186
O    -0.842268  -1.095169  5.852511
H    -0.811726  -1.626447  1.863911
H    -0.154826  0.303813  4.002296
C    -2.164022  0.544551  3.252059
C    -2.613194  1.439734  4.412029
C    -1.609812  2.548193  4.755215
N    -1.377196  3.440103  3.619454
C    -0.158500  4.087893  3.407559
N    0.963032  3.291614  3.602034
N    -0.190681  5.336803  3.073026
H    -3.005590  -0.080057  2.915483
H    -1.880589  1.185988  2.404193
H    -3.577023  1.899002  4.140970
H    -2.799543  0.844294  5.318660
H    -0.647342  2.121143  5.060448
H    -1.982655  3.110018  5.630359
H    -2.121585  4.117551  3.468490
H    1.833355  3.750829  3.359788
H    0.931562  2.331534  3.249221
H    0.737117  5.663315  2.788607
N    -1.933617  -2.486112  4.451511
C    -2.448573  -3.009998  3.200202
H    -2.032036  -3.069314  5.277253
H    -1.690334  -3.564745  2.621435
H    -2.867721  -2.213367  2.572631
H    -3.269495  -3.702751  3.418316
