35
Energy: -21190.4151397 eV PBE+vdW (tier 2 basis)
C    -0.543435  1.008389  0.190971
C    -0.817735  -0.095864  1.192363
O    -0.075360  -1.071519  1.308650
H    0.457028  1.415214  0.382309
H    -1.274256  1.825622  0.221835
H    -0.533169  0.574721  -0.816763
N    -1.933032  0.078420  1.967226
C    -2.381602  -0.926207  2.921403
C    -3.553171  -1.711786  2.294765
O    -4.650065  -1.169376  2.141180
H    -2.583101  0.822381  1.736300
H    -1.511185  -1.570375  3.085971
C    -2.820570  -0.266195  4.236718
C    -3.338320  -1.240089  5.300503
C    -2.312846  -2.276591  5.756809
N    -2.866077  -3.105674  6.814331
C    -2.131401  -4.161464  7.344870
N    -2.888451  -4.947467  8.220968
N    -0.902007  -4.468185  7.113524
H    -3.619509  0.454813  4.009648
H    -1.963697  0.304783  4.625352
H    -4.235021  -1.753383  4.915599
H    -3.666046  -0.660805  6.176567
H    -1.414715  -1.766224  6.141196
H    -1.983462  -2.894490  4.899704
H    -3.860643  -3.296960  6.725844
H    -2.297238  -5.623006  8.696883
H    -3.464127  -4.419449  8.871630
H    -0.505230  -3.898828  6.362701
N    -3.325769  -2.996693  1.910954
C    -2.087286  -3.766171  1.959997
H    -4.146946  -3.443179  1.512290
H    -2.133196  -4.545063  1.190471
H    -1.942137  -4.260381  2.933406
H    -1.220840  -3.130654  1.740278
