35
Energy: -21190.4663337 eV PBE+vdW (tier 2 basis)
C    2.211577  1.831369  0.439036
C    1.578157  0.733910  1.268111
O    2.048931  -0.411441  1.315794
H    3.064386  2.242178  0.998372
H    1.522094  2.653217  0.210933
H    2.592967  1.400078  -0.492287
N    0.482956  1.100184  1.977843
C    -0.227363  0.214921  2.877209
C    -1.555625  0.920404  3.191670
O    -1.713057  2.120578  2.958245
H    0.091321  2.040367  1.924526
H    -0.428831  -0.728480  2.343462
C    0.575770  -0.116519  4.175107
C    1.091879  -1.564964  4.249160
C    2.513857  -1.672937  4.815174
N    3.501286  -1.055851  3.932727
C    4.144528  0.146190  4.186301
N    4.282232  0.476358  5.540418
N    4.609488  0.960473  3.296840
H    -0.028822  0.113920  5.063920
H    1.420211  0.584216  4.202134
H    1.096703  -2.000079  3.238086
H    0.421233  -2.191413  4.857386
H    2.761712  -2.736730  4.966395
H    2.566708  -1.186420  5.798265
H    3.274619  -1.156306  2.942571
H    4.900721  1.277546  5.632969
H    4.570546  -0.292667  6.139796
H    4.345536  0.645072  2.359115
N    -2.547614  0.171508  3.748808
C    -2.524126  -1.232991  4.117330
H    -3.370135  0.715136  3.991516
H    -3.546460  -1.626865  4.085303
H    -2.118729  -1.399623  5.127467
H    -1.923552  -1.813220  3.407349
