35
Energy: -21190.4444132 eV PBE+vdW (tier 2 basis)
C    0.228822  -1.492164  0.812929
C    0.679000  -0.427733  1.791563
O    1.861794  -0.289236  2.106444
H    1.043087  -2.210183  0.684781
H    0.012660  -1.036167  -0.164603
H    -0.675758  -2.016114  1.149618
N    -0.287720  0.376773  2.349331
C    -1.571315  0.688926  1.754553
C    -1.424176  1.368433  0.365817
O    -0.451381  2.052810  0.050782
H    0.131729  1.176324  2.833552
H    -2.124109  -0.251029  1.592909
C    -2.435722  1.555991  2.716300
C    -1.752995  2.634048  3.584002
C    -0.860315  3.678572  2.882707
N    0.482811  3.205251  2.614295
C    1.538954  3.313223  3.515473
N    2.685661  2.675030  3.053924
N    1.541253  3.911638  4.660358
H    -2.950444  0.868287  3.402875
H    -3.224464  2.029609  2.111366
H    -1.158191  2.159360  4.379338
H    -2.565828  3.162624  4.106171
H    -0.817693  4.584093  3.509025
H    -1.304395  3.991698  1.927585
H    0.699121  2.984072  1.645456
H    3.408873  2.676986  3.766651
H    2.540419  1.745340  2.650688
H    0.677598  4.437855  4.812746
N    -2.473869  1.142475  -0.473058
C    -2.579173  1.742464  -1.790890
H    -3.225629  0.544689  -0.150245
H    -1.652117  2.294513  -1.976697
H    -3.427301  2.439315  -1.847818
H    -2.698223  0.972422  -2.564675
