35
Energy: -21190.5189376 eV PBE+vdW (tier 2 basis)
C    -0.135063  -0.602278  0.050697
C    -0.178709  -0.992787  1.513265
O    0.578980  -1.850696  1.981876
H    0.881706  -0.270824  -0.193608
H    -0.843457  0.191419  -0.216073
H    -0.344987  -1.489888  -0.559167
N    -1.095580  -0.337029  2.279088
C    -1.253357  -0.591033  3.712600
C    -2.174880  -1.825185  3.918312
O    -3.368206  -1.719400  4.192871
H    -1.759717  0.285064  1.831914
H    -0.248577  -0.842714  4.084081
C    -1.778942  0.650892  4.426348
C    -1.713032  0.541848  5.951381
C    -2.105665  1.854030  6.637886
N    -2.058310  1.763129  8.090508
C    -3.217381  1.730088  8.843236
N    -2.947145  1.740546  10.224314
N    -4.375242  1.729202  8.279392
H    -2.821952  0.827191  4.119199
H    -1.179876  1.512388  4.088129
H    -0.693715  0.259354  6.263268
H    -2.390242  -0.250331  6.299641
H    -3.132507  2.131160  6.361779
H    -1.438865  2.667880  6.310885
H    -1.252450  2.166033  8.551940
H    -3.765474  1.550194  10.793049
H    -2.161666  1.156447  10.502506
H    -5.123454  1.607318  8.964519
N    -1.521750  -3.005624  3.740287
C    -2.211666  -4.280779  3.746060
H    -0.580419  -2.944843  3.346843
H    -1.637092  -5.024392  4.313228
H    -2.372462  -4.663161  2.726277
H    -3.187750  -4.137881  4.221461
