35
Energy: -21190.1444141 eV PBE+vdW (tier 2 basis)
C    0.534774  -0.145915  -0.192254
C    0.314211  0.379771  1.215523
O    1.148603  1.112456  1.752178
H    -0.295188  -0.743933  -0.587896
H    1.445115  -0.758631  -0.195281
H    0.713279  0.705915  -0.859852
N    -0.858825  -0.006864  1.792659
C    -1.385001  0.192458  3.153228
C    -2.533127  1.222003  3.291406
O    -3.420762  0.976633  4.109393
H    -1.445992  -0.595135  1.213248
H    -1.914071  -0.745768  3.367882
C    -0.346985  0.350276  4.288486
C    0.118131  1.763644  4.634794
C    1.172665  1.775139  5.750978
N    2.319465  0.883634  5.532642
C    3.477175  1.294075  4.872549
N    3.247250  2.050046  3.727499
N    4.618135  0.963256  5.382874
H    0.522895  -0.279588  4.059554
H    -0.819089  -0.087454  5.180953
H    -0.733768  2.370054  4.980695
H    0.521440  2.261781  3.745948
H    0.701431  1.438537  6.685874
H    1.506049  2.813754  5.914856
H    2.596338  0.365353  6.360648
H    4.090724  2.258548  3.205202
H    2.486407  1.736528  3.122219
H    5.384431  1.181030  4.739573
N    -2.569945  2.361840  2.543447
C    -1.606543  2.938790  1.618333
H    -3.400082  2.909992  2.749573
H    -0.576130  2.724544  1.918668
H    -1.732889  4.027696  1.624320
H    -1.753054  2.582425  0.586847
