35
Energy: -21190.6143356 eV PBE+vdW (tier 2 basis)
C    -2.211008  1.696893  4.364902
C    -1.371384  0.441823  4.264916
O    -0.166073  0.439107  4.549321
H    -3.249921  1.560988  4.041008
H    -1.745445  2.485386  3.761353
H    -2.205988  2.038032  5.407963
N    -2.019395  -0.676002  3.839790
C    -1.431472  -2.014515  3.806938
C    -0.519084  -2.271102  2.569570
O    -0.619908  -3.283085  1.866554
H    -2.994704  -0.594523  3.578667
H    -0.744590  -2.063195  4.668582
C    -2.507513  -3.098768  3.991281
C    -3.854413  -2.921054  3.267546
C    -3.848327  -2.804796  1.737344
N    -3.298545  -3.980137  1.097120
C    -3.733044  -4.393070  -0.159220
N    -2.929191  -5.410072  -0.677171
N    -4.730561  -3.970960  -0.861506
H    -2.720912  -3.179283  5.066753
H    -2.053747  -4.051730  3.689297
H    -4.392950  -2.045837  3.673654
H    -4.478446  -3.786223  3.536305
H    -3.318867  -1.885594  1.414083
H    -4.891776  -2.687778  1.413073
H    -2.287719  -4.059161  1.244196
H    -2.597127  -6.088413  0.001642
H    -3.353163  -5.837067  -1.494521
H    -5.158521  -3.138239  -0.452472
N    0.423591  -1.324892  2.378092
C    1.402577  -1.415210  1.310620
H    0.506782  -0.596284  3.096258
H    0.938920  -1.866400  0.426426
H    2.264660  -2.037334  1.596221
H    1.759262  -0.409504  1.062418
