35
Energy: -21190.4685378 eV PBE+vdW (tier 2 basis)
C    -2.925813  -0.331790  2.302332
C    -1.480586  0.000409  2.640510
O    -0.596291  0.014365  1.783902
H    -2.939763  -1.218437  1.658320
H    -3.358146  0.498291  1.727154
H    -3.545977  -0.511253  3.189141
N    -1.262609  0.323528  3.947442
C    0.070042  0.521151  4.507188
C    1.014130  1.393443  3.644832
O    2.165858  1.040693  3.409103
H    -2.008874  0.143707  4.636559
H    -0.090459  1.101157  5.432765
C    0.764553  -0.810323  4.862673
C    -0.151998  -1.795695  5.594667
C    -0.653652  -1.294442  6.961335
N    -1.901342  -1.899652  7.410061
C    -3.114749  -1.456988  6.938968
N    -4.188089  -2.214016  7.415299
N    -3.200381  -0.452274  6.120581
H    1.660987  -0.584759  5.458098
H    1.128762  -1.263242  3.931698
H    0.376975  -2.751819  5.726090
H    -1.025321  -2.013546  4.963373
H    -0.837645  -0.213580  6.934336
H    0.103528  -1.467955  7.739223
H    -1.866377  -2.881448  7.662430
H    -5.102396  -1.837443  7.192547
H    -4.118039  -2.514414  8.383500
H    -4.174150  -0.167634  5.996911
N    0.574211  2.635902  3.271324
C    -0.746358  3.224791  3.387601
H    1.240845  3.103405  2.665058
H    -0.648236  4.315385  3.318189
H    -1.196928  2.993228  4.359524
H    -1.437107  2.885370  2.599310
