35
Energy: -21190.4408811 eV PBE+vdW (tier 2 basis)
C    0.577664  -0.357723  0.151831
C    0.148483  -0.366258  1.606395
O    0.829160  -0.888180  2.488463
H    1.560296  0.124115  0.076630
H    -0.126114  0.158401  -0.512291
H    0.696303  -1.395081  -0.185066
N    -1.037310  0.266684  1.868252
C    -1.669923  0.208859  3.171054
C    -3.156288  -0.110554  2.944034
O    -3.736189  0.246706  1.918089
H    -1.659587  0.531034  1.107460
H    -1.170617  -0.598634  3.729971
C    -1.536272  1.530919  3.961004
C    -0.087903  1.912986  4.265226
C    0.009929  3.228379  5.033229
N    1.409133  3.551685  5.303089
C    1.798896  4.752668  5.881387
N    0.912833  5.237851  6.848635
N    2.888390  5.313327  5.478860
H    -2.102068  1.431660  4.901926
H    -2.028987  2.329198  3.383124
H    0.470763  2.002940  3.320507
H    0.404940  1.112722  4.837315
H    -0.535188  3.128504  5.985850
H    -0.494361  4.034336  4.466168
H    2.043374  3.327321  4.539592
H    1.297212  5.982681  7.418869
H    0.435178  4.534140  7.404822
H    3.136341  6.115335  6.064138
N    -3.767477  -0.766190  3.967177
C    -5.182009  -1.091522  3.966644
H    -3.195812  -1.067955  4.747213
H    -5.611683  -0.691916  3.042383
H    -5.693697  -0.637113  4.826200
H    -5.339776  -2.178546  3.991150
