35
Energy: -21190.1844807 eV PBE+vdW (tier 2 basis)
C    -1.018757  0.550433  -0.164508
C    -0.575387  0.738217  1.272423
O    0.486755  1.293395  1.539481
H    -0.870480  1.497164  -0.695432
H    -2.050878  0.218738  -0.301667
H    -0.351732  -0.191464  -0.624842
N    -1.331156  0.195016  2.302670
C    -2.750030  -0.176664  2.364714
C    -3.156957  -1.274940  1.350578
O    -4.280954  -1.311792  0.856912
H    -0.905183  0.420085  3.199286
H    -2.852666  -0.686124  3.338009
C    -3.737830  1.005117  2.403959
C    -3.712533  1.964876  1.217578
C    -4.668619  3.151922  1.403250
N    -4.618587  4.140446  0.330791
C    -3.447985  4.821161  0.003164
N    -2.727289  5.313656  1.088478
N    -3.177099  5.018084  -1.242914
H    -3.530745  1.566872  3.330159
H    -4.744048  0.574676  2.512550
H    -3.982822  1.434837  0.293298
H    -2.698929  2.368022  1.073957
H    -4.475203  3.646365  2.370757
H    -5.707614  2.798288  1.467154
H    -5.072157  3.845351  -0.530509
H    -1.737637  5.452131  0.927304
H    -2.940111  4.947028  2.009018
H    -2.386029  5.657911  -1.355406
N    -2.201334  -2.220476  1.138697
C    -2.386868  -3.332798  0.228241
H    -1.286261  -2.050296  1.542012
H    -2.104589  -4.279004  0.707985
H    -1.792042  -3.208631  -0.689076
H    -3.446960  -3.369440  -0.043671
