35
Energy: -21190.2441258 eV PBE+vdW (tier 2 basis)
C    1.032655  -0.409760  1.333191
C    0.109011  0.585405  2.008209
O    0.459779  1.746812  2.193469
H    1.834567  -0.659792  2.041413
H    1.497172  0.091046  0.477037
H    0.565190  -1.340719  1.002512
N    -1.114348  0.159333  2.501244
C    -1.920205  -1.029273  2.199829
C    -1.178906  -2.366037  2.454379
O    -1.377250  -3.358262  1.757983
H    -1.624743  0.943438  2.901539
H    -2.705030  -1.026044  2.975296
C    -2.671587  -1.000295  0.856318
C    -1.833659  -0.916796  -0.418768
C    -2.716537  -0.903402  -1.665507
N    -1.906251  -0.801570  -2.866706
C    -2.496547  -0.648916  -4.117569
N    -1.558238  -0.709006  -5.154105
N    -3.742052  -0.473422  -4.394833
H    -3.362785  -0.142767  0.891499
H    -3.292884  -1.907050  0.824083
H    -1.154298  -1.781579  -0.467868
H    -1.216224  -0.006250  -0.423284
H    -3.388423  -0.030994  -1.632042
H    -3.359820  -1.805134  -1.675001
H    -1.076656  -1.389068  -2.871313
H    -1.990674  -0.470381  -6.042004
H    -0.709544  -0.174910  -4.986474
H    -4.332722  -0.594862  -3.569282
N    -0.372294  -2.356258  3.550635
C    0.408804  -3.506426  3.960238
H    -0.227690  -1.464115  4.011160
H    0.271886  -3.708146  5.030570
H    1.481050  -3.359289  3.761464
H    0.060370  -4.369912  3.384045
