35
Energy: -21190.452676 eV PBE+vdW (tier 2 basis)
C    0.969528  0.326506  2.662767
C    0.247318  1.265556  3.606984
O    0.824714  1.785555  4.567332
H    0.832619  0.597137  1.606936
H    0.615355  -0.702401  2.811394
H    2.034485  0.367458  2.905583
N    -1.080272  1.511588  3.388527
C    -1.941232  1.096678  2.294054
C    -2.574727  2.366006  1.695118
O    -3.000401  3.259823  2.424602
H    -1.481225  2.224902  3.995759
H    -1.325387  0.584349  1.542656
C    -3.079638  0.149506  2.744755
C    -2.608354  -1.226764  3.252423
C    -3.019139  -1.558559  4.698391
N    -2.524257  -0.628686  5.702828
C    -1.163324  -0.532500  5.949977
N    -0.798051  0.506138  6.811309
N    -0.347630  -1.391943  5.434329
H    -3.771252  0.030060  1.897093
H    -3.654092  0.684854  3.517504
H    -1.514520  -1.302743  3.214096
H    -2.998954  -2.020666  2.598904
H    -2.634605  -2.555170  4.951831
H    -4.114797  -1.588593  4.793799
H    -3.036481  0.242602  5.779830
H    0.012610  1.022261  6.465869
H    -1.547423  1.139151  7.077715
H    0.591016  -1.245395  5.813025
N    -2.658515  2.392723  0.336014
C    -3.289056  3.477657  -0.394376
H    -2.263002  1.618361  -0.183165
H    -4.153567  3.120548  -0.970976
H    -2.577836  3.960288  -1.078287
H    -3.629900  4.213460  0.341312
