35
Energy: -21190.3369348 eV PBE+vdW (tier 2 basis)
C    0.053188  -0.041267  0.628714
C    -0.258185  0.487689  2.011950
O    0.564763  1.193021  2.617644
H    0.055529  -1.139070  0.624437
H    1.039286  0.330757  0.339471
H    -0.683863  0.292225  -0.114648
N    -1.435008  0.145104  2.609081
C    -2.696735  -0.249584  1.987546
C    -2.529146  -1.537134  1.140082
O    -2.010989  -2.535830  1.626974
H    -1.586418  0.621965  3.508506
H    -3.324539  -0.595169  2.825693
C    -3.416008  0.947062  1.331274
C    -3.903723  2.055640  2.285876
C    -2.863831  2.852578  3.089869
N    -2.514801  2.180621  4.356660
C    -1.579553  2.805614  5.221386
N    -0.377516  3.109338  4.619373
N    -1.959088  3.020181  6.435284
H    -4.315051  0.578673  0.810384
H    -2.759523  1.396156  0.567030
H    -4.645267  1.631662  2.984286
H    -4.463405  2.777395  1.672747
H    -3.270770  3.858936  3.293673
H    -1.947917  2.999587  2.502669
H    -3.348673  2.020544  4.923852
H    0.337279  3.450978  5.250929
H    -0.019987  2.452147  3.908415
H    -1.180139  3.344813  7.016107
N    -3.014881  -1.496234  -0.134120
C    -2.924722  -2.631146  -1.033612
H    -3.376526  -0.621323  -0.491025
H    -3.891307  -2.819830  -1.518359
H    -2.639965  -3.504816  -0.438360
H    -2.161493  -2.472237  -1.809916
