35
Energy: -21190.18191 eV PBE+vdW (tier 2 basis)
C    0.154247  0.629224  0.067099
C    0.214449  0.131906  1.498639
O    1.263361  0.174070  2.146362
H    1.025905  1.264921  -0.110973
H    -0.760256  1.187400  -0.169723
H    0.187402  -0.235603  -0.608513
N    -0.915514  -0.413955  2.052210
C    -2.298566  -0.266775  1.638940
C    -2.624920  -1.053819  0.339906
O    -1.836668  -1.828444  -0.184606
H    -0.791091  -0.723634  3.020468
H    -2.862890  -0.806939  2.416550
C    -2.793631  1.216366  1.638880
C    -3.988653  1.539804  2.548386
C    -3.796609  1.214137  4.045511
N    -2.547527  1.682259  4.610369
C    -1.461516  0.852424  4.850934
N    -0.244326  1.517630  4.846965
N    -1.486980  -0.421219  5.088414
H    -3.031010  1.544286  0.616520
H    -1.944433  1.834332  1.958117
H    -4.902034  1.015340  2.216377
H    -4.213720  2.613098  2.440037
H    -3.834424  0.128095  4.201215
H    -4.646569  1.625651  4.611532
H    -2.351268  2.675743  4.558022
H    0.531158  0.864809  4.933004
H    -0.097188  2.151645  4.065722
H    -2.437551  -0.758343  5.257511
N    -3.892662  -0.846504  -0.135512
C    -4.415435  -1.545657  -1.294619
H    -4.500386  -0.199251  0.350790
H    -4.687107  -0.845020  -2.096780
H    -5.297669  -2.146792  -1.033417
H    -3.626498  -2.212374  -1.657941
