35
Energy: -21190.5197773 eV PBE+vdW (tier 2 basis)
C    -0.248226  0.933411  0.401597
C    -0.145943  0.609720  1.876644
O    0.916838  0.735135  2.499991
H    0.027851  1.985167  0.254748
H    -1.246750  0.765439  -0.019533
H    0.481084  0.324911  -0.147141
N    -1.288854  0.173692  2.471601
C    -1.409640  -0.095854  3.904832
C    -0.882378  -1.511272  4.292193
O    -1.601317  -2.364891  4.812980
H    -2.111346  0.027156  1.897960
H    -0.744562  0.626960  4.403671
C    -2.845768  0.133358  4.384542
C    -3.930947  -0.624610  3.611391
C    -5.301599  -0.503271  4.288637
N    -6.391767  -1.163258  3.568700
C    -6.825340  -0.736475  2.313420
N    -6.779816  0.647772  2.132329
N    -7.252238  -1.477703  1.348704
H    -3.052674  1.214636  4.351521
H    -2.880544  -0.169754  5.440757
H    -3.658470  -1.686983  3.541509
H    -4.037214  -0.232974  2.586119
H    -5.556029  0.556534  4.436012
H    -5.261020  -0.948023  5.293525
H    -6.360609  -2.176559  3.630132
H    -7.268215  0.906565  1.279948
H    -7.079577  1.198969  2.931746
H    -7.106500  -2.470974  1.549457
N    0.437080  -1.674660  4.023419
C    1.141716  -2.915359  4.275706
H    0.924630  -0.881748  3.593584
H    1.981370  -2.757605  4.967044
H    1.533147  -3.346815  3.343236
H    0.437279  -3.621673  4.727444
