35
Energy: -21190.6195767 eV PBE+vdW (tier 2 basis)
C    0.542643  -0.143510  0.516148
C    0.442820  -0.363861  2.010702
O    1.443683  -0.619341  2.698643
H    -0.416571  0.069925  0.029969
H    0.989213  -1.034425  0.057039
H    1.230512  0.691513  0.331020
N    -0.802887  -0.260523  2.542956
C    -1.073992  -0.372725  3.973770
C    -1.182423  -1.857514  4.431946
O    -2.221856  -2.343148  4.881162
H    -1.615046  -0.128732  1.927171
H    -0.188441  0.040397  4.483054
C    -2.292451  0.456769  4.394298
C    -3.662194  0.157956  3.744337
C    -4.016438  0.953750  2.484196
N    -3.336995  0.480749  1.259337
C    -2.907004  1.357019  0.245743
N    -2.327519  2.526453  0.719303
N    -2.965594  1.142209  -1.022867
H    -2.043601  1.521566  4.250913
H    -2.395059  0.311571  5.477829
H    -3.766040  -0.921731  3.566146
H    -4.437705  0.399339  4.486564
H    -5.107157  0.913330  2.327485
H    -3.763781  2.013447  2.614520
H    -3.785488  -0.339322  0.857996
H    -1.891503  3.054412  -0.030059
H    -1.738973  2.433959  1.542727
H    -3.539279  0.322857  -1.240655
N    -0.012003  -2.531081  4.298021
C    0.121956  -3.939970  4.606981
H    0.770899  -2.016235  3.879947
H    -0.817657  -4.282272  5.053513
H    0.940126  -4.107260  5.320950
H    0.322256  -4.532033  3.701673
