35
Energy: -21190.2616455 eV PBE+vdW (tier 2 basis)
C    -0.648655  -1.646603  0.595513
C    -0.462498  -0.734292  1.794367
O    0.177132  0.311850  1.732090
H    -1.065431  -1.060195  -0.231987
H    -1.301763  -2.507046  0.788181
H    0.335903  -2.010743  0.275616
N    -1.067755  -1.155621  2.952291
C    -0.842491  -0.461659  4.220435
C    -0.980052  -1.398086  5.427144
O    -0.132339  -1.346919  6.326897
H    -1.447762  -2.093568  2.974217
H    0.212345  -0.153235  4.239102
C    -1.688129  0.830831  4.353566
C    -1.417112  1.609293  5.657149
C    -2.641211  1.729305  6.582046
N    -3.348378  0.473972  6.818667
C    -3.178801  -0.360449  7.908127
N    -1.945404  -0.244282  8.550623
N    -4.166764  -1.136181  8.231101
H    -2.754198  0.575940  4.276477
H    -1.439958  1.442988  3.478031
H    -1.074655  2.627830  5.425025
H    -0.588085  1.140290  6.206149
H    -3.367666  2.417238  6.125949
H    -2.335931  2.175747  7.540408
H    -4.304162  0.424467  6.486426
H    -1.135199  -0.272432  7.927419
H    -1.835446  -0.922157  9.297940
H    -3.898395  -1.779533  8.979401
N    -2.010229  -2.290824  5.502156
C    -3.310771  -2.273207  4.843525
H    -1.974283  -2.816912  6.372549
H    -4.097010  -2.084313  5.588671
H    -3.512869  -3.236137  4.351524
H    -3.353305  -1.482664  4.090563
