35
Energy: -21190.1463274 eV PBE+vdW (tier 2 basis)
C    0.528761  -0.542277  2.262612
C    -0.246848  -0.039725  3.463802
O    0.328815  0.260075  4.507600
H    0.680380  -1.625956  2.371247
H    0.057525  -0.364873  1.291829
H    1.513243  -0.065579  2.285311
N    -1.625379  0.013399  3.422196
C    -2.606330  -0.098665  2.338288
C    -2.277710  -1.198407  1.306303
O    -2.176689  -0.961421  0.098474
H    -1.993898  0.365960  4.302632
H    -3.527391  -0.460513  2.830487
C    -2.969688  1.240083  1.677206
C    -1.812069  2.048687  1.061155
C    -2.220658  2.751852  -0.232535
N    -2.490446  1.758042  -1.261322
C    -3.368588  2.024850  -2.284128
N    -3.711716  0.878347  -3.023317
N    -3.826486  3.219597  -2.467660
H    -3.480285  1.852866  2.434926
H    -3.723620  1.023162  0.906279
H    -0.956132  1.397862  0.835982
H    -1.444113  2.793713  1.778860
H    -1.418519  3.432691  -0.559912
H    -3.116449  3.377739  -0.087539
H    -2.403308  0.785901  -0.964046
H    -4.057121  1.087108  -3.953774
H    -2.998850  0.152988  -3.044489
H    -4.440702  3.253800  -3.284479
N    -2.155802  -2.471324  1.772976
C    -2.277571  -2.968468  3.134047
H    -1.936223  -3.140306  1.041223
H    -2.505550  -4.039296  3.091919
H    -3.100817  -2.474144  3.664208
H    -1.358645  -2.826670  3.720641
