35
Energy: -21190.0398986 eV PBE+vdW (tier 2 basis)
C    0.136650  -1.483376  0.635003
C    -0.253699  -0.581459  1.793546
O    0.407622  -0.510862  2.823655
H    0.066671  -2.527420  0.966343
H    1.185340  -1.292360  0.378553
H    -0.482575  -1.355291  -0.261671
N    -1.390559  0.160294  1.599108
C    -2.005928  1.001032  2.627234
C    -0.962211  1.868049  3.387202
O    -0.904054  1.874645  4.612142
H    -1.916795  0.011209  0.746729
H    -2.649007  1.709404  2.075654
C    -2.884490  0.197577  3.607761
C    -4.175232  0.896117  4.053947
C    -3.989332  2.191017  4.843659
N    -5.280460  2.653318  5.340980
C    -5.459605  3.884607  5.951884
N    -4.322409  4.388192  6.582908
N    -6.613841  4.458557  5.864769
H    -2.269700  -0.068280  4.477826
H    -3.161919  -0.739286  3.104988
H    -4.749054  0.193508  4.678116
H    -4.803591  1.104158  3.168748
H    -3.498674  2.961687  4.220977
H    -3.303428  1.993196  5.680985
H    -6.082382  2.439109  4.754207
H    -4.505388  5.126240  7.251927
H    -3.637095  3.714107  6.910375
H    -6.651590  5.308906  6.431934
N    -0.183918  2.711273  2.643741
C    -0.076781  2.848335  1.203993
H    0.497611  3.203405  3.212685
H    0.344885  3.835129  0.978407
H    -1.063387  2.799139  0.726888
H    0.568170  2.081511  0.746903
