35
Energy: -21190.4835863 eV PBE+vdW (tier 2 basis)
C    0.318381  0.979333  -0.113906
C    -0.261152  1.059520  1.286473
O    -0.567570  2.132090  1.809122
H    0.542856  -0.043596  -0.439235
H    1.236600  1.578703  -0.148392
H    -0.392445  1.430514  -0.817398
N    -0.438523  -0.140764  1.913631
C    -0.838639  -0.234346  3.304045
C    -0.469046  -1.663662  3.760867
O    0.260915  -2.385336  3.076368
H    0.015298  -0.984332  1.563286
H    -0.229015  0.469583  3.899939
C    -2.316179  0.129757  3.532537
C    -3.323650  -0.807637  2.854026
C    -4.603740  -0.986549  3.677012
N    -4.332228  -1.646236  4.958248
C    -4.827986  -1.243003  6.197862
N    -5.085542  0.119716  6.310213
N    -5.041706  -2.007079  7.215761
H    -2.454424  1.164991  3.194608
H    -2.491864  0.143430  4.621024
H    -2.874547  -1.800945  2.688479
H    -3.586023  -0.430558  1.855698
H    -5.343336  -1.568650  3.102697
H    -5.072901  -0.016395  3.883482
H    -4.241380  -2.655178  4.895463
H    -5.290537  0.371826  7.272005
H    -4.425300  0.749342  5.864286
H    -4.961639  -2.996769  6.966031
N    -0.967312  -2.051799  4.960942
C    -0.725853  -3.383670  5.488485
H    -1.726642  -1.514144  5.365859
H    0.341501  -3.621830  5.420169
H    -1.277731  -4.155897  4.929874
H    -1.035642  -3.409427  6.538439
