35
Energy: -21190.4008117 eV PBE+vdW (tier 2 basis)
C    0.758345  -0.230343  1.388225
C    0.111738  1.066233  0.954742
O    0.746013  1.940052  0.345101
H    0.395083  -1.067169  0.774550
H    0.530405  -0.479308  2.433405
H    1.839467  -0.139100  1.257120
N    -1.212026  1.244782  1.226397
C    -2.095090  0.413071  2.025265
C    -2.318848  -1.024546  1.505653
O    -2.388595  -1.949888  2.313053
H    -1.561799  2.191067  1.011086
H    -1.675512  0.253929  3.032419
C    -3.472245  1.090491  2.195438
C    -3.482834  2.463158  2.903751
C    -3.521239  3.698148  1.985904
N    -2.272855  3.947572  1.268982
C    -1.199255  4.611427  1.924571
N    -0.098412  4.719877  1.093600
N    -1.186867  5.072101  3.125175
H    -4.081822  0.383895  2.774129
H    -3.961894  1.178135  1.211490
H    -2.628414  2.542834  3.592811
H    -4.381502  2.515481  3.535811
H    -3.821691  4.579639  2.580834
H    -4.305586  3.560230  1.227841
H    -2.391055  4.284885  0.316733
H    0.684930  5.144803  1.581545
H    0.171420  3.852013  0.611239
H    -2.113207  5.042917  3.557428
N    -2.472846  -1.250288  0.165643
C    -2.457400  -0.334904  -0.967075
H    -2.613308  -2.235576  -0.035707
H    -2.924713  -0.843657  -1.818266
H    -1.441188  -0.033206  -1.257669
H    -3.037334  0.573006  -0.765758
