35
Energy: -21190.3818966 eV PBE+vdW (tier 2 basis)
C    -1.260218  -0.422085  -0.089964
C    -1.356576  0.237941  1.273561
O    -1.096110  1.420787  1.456002
H    -1.756347  -1.399104  -0.146839
H    -0.198654  -0.553614  -0.339717
H    -1.692179  0.249600  -0.839946
N    -1.781101  -0.584480  2.297077
C    -1.695553  -0.194211  3.709150
C    -2.576210  1.042966  4.021858
O    -2.288959  1.837583  4.918124
H    -1.845061  -1.576801  2.100494
H    -2.164594  -1.026079  4.261993
C    -0.253908  -0.018184  4.218531
C    -0.112267  -0.278636  5.720633
C    1.230620  0.189399  6.298643
N    1.598884  1.572710  5.975426
C    1.135405  2.668903  6.706824
N    -0.225896  2.646289  6.982299
N    1.997267  3.565139  7.062267
H    0.095329  0.994800  3.983769
H    0.390180  -0.714348  3.658974
H    -0.208325  -1.357218  5.931234
H    -0.928891  0.211634  6.265025
H    2.034103  -0.436513  5.883192
H    1.223252  0.019642  7.390205
H    2.597009  1.696713  5.833909
H    -0.563987  3.494523  7.422546
H    -0.846320  2.321836  6.235368
H    1.528785  4.391282  7.445542
N    -3.728540  1.124026  3.310379
C    -4.624434  2.259321  3.426874
H    -3.804554  0.521862  2.498475
H    -4.316781  3.090825  2.774458
H    -4.610087  2.613665  4.462694
H    -5.643312  1.953001  3.163101
