35
Energy: -21190.641571 eV PBE+vdW (tier 2 basis)
C    2.257397  -2.147418  0.021415
C    1.755266  -1.518007  1.303075
O    2.353805  -0.609155  1.886108
H    3.297604  -2.462241  0.170885
H    2.261276  -1.384555  -0.768216
H    1.653422  -3.004404  -0.302546
N    0.571502  -2.011593  1.773918
C    0.031689  -1.488585  3.012397
C    0.885934  -1.919112  4.226793
O    1.266183  -3.084894  4.399059
H    0.175997  -2.835788  1.322127
H    0.117017  -0.397485  2.925312
C    -1.469961  -1.790772  3.213386
C    -1.949799  -3.159859  3.727442
C    -1.772532  -4.382277  2.814341
N    -0.429485  -4.933659  2.857376
C    0.388016  -5.029106  1.748998
N    1.727902  -5.153083  2.081844
N    0.039842  -5.020898  0.494757
H    -1.968847  -1.562416  2.257616
H    -1.838244  -1.037680  3.927069
H    -3.028240  -3.054384  3.922377
H    -1.496016  -3.377516  4.707659
H    -2.018741  -4.114508  1.773930
H    -2.503268  -5.152507  3.111802
H    0.080633  -4.711222  3.710877
H    2.329547  -5.124786  1.266279
H    2.034847  -4.559513  2.851864
H    -0.974760  -5.092416  0.387104
N    1.163104  -0.958511  5.145111
C    1.024690  0.484536  4.989374
H    1.741334  -1.296968  5.908577
H    1.470621  0.965854  5.866021
H    -0.029427  0.792278  4.945780
H    1.548691  0.838969  4.090488
