35
Energy: -21190.1423567 eV PBE+vdW (tier 2 basis)
C    -0.219717  0.719370  0.167178
C    -0.126296  0.585354  1.678611
O    0.924744  0.767388  2.285462
H    0.778834  0.959175  -0.206669
H    -0.910668  1.520653  -0.130715
H    -0.565418  -0.210520  -0.305533
N    -1.279335  0.259008  2.353281
C    -2.578019  -0.096388  1.790410
C    -3.649843  0.535010  2.704186
O    -4.073109  -0.059150  3.694410
H    -1.150033  0.114786  3.352692
H    -2.631958  0.361427  0.796284
C    -2.776830  -1.614794  1.667620
C    -4.100699  -2.034662  1.018636
C    -4.295249  -1.509968  -0.403136
N    -5.532303  -2.043234  -0.972576
C    -6.116077  -1.519048  -2.123515
N    -5.203356  -0.956487  -3.016595
N    -7.371425  -1.503896  -2.416675
H    -2.719292  -2.048970  2.674985
H    -1.927275  -2.016441  1.093504
H    -4.937753  -1.698721  1.651510
H    -4.146954  -3.134226  0.998003
H    -3.433943  -1.819895  -1.019710
H    -4.312315  -0.405197  -0.414424
H    -6.220808  -2.315413  -0.277933
H    -5.653106  -0.751606  -3.904063
H    -4.329462  -1.462075  -3.129742
H    -7.944399  -1.821608  -1.630247
N    -4.078794  1.787686  2.376752
C    -3.565140  2.660563  1.332189
H    -4.724140  2.182995  3.053881
H    -2.499720  2.895164  1.473543
H    -4.125429  3.600533  1.363496
H    -3.707482  2.229677  0.330614
