35
Energy: -21190.4802228 eV PBE+vdW (tier 2 basis)
C    -1.354968  -0.123848  -0.081383
C    -0.930879  0.129688  1.351970
O    0.101511  0.761569  1.609625
H    -0.577074  -0.721963  -0.573033
H    -1.410654  0.836375  -0.608140
H    -2.315530  -0.644281  -0.178237
N    -1.756483  -0.380270  2.307659
C    -1.546761  -0.374200  3.765728
C    -1.697226  1.021003  4.429012
O    -2.510867  1.178847  5.341196
H    -2.603346  -0.830396  1.984483
H    -2.395627  -0.934342  4.177990
C    -0.248323  -1.094147  4.174635
C    -0.063992  -1.177585  5.691287
C    1.134203  -2.037346  6.095569
N    0.928614  -3.441771  5.760419
C    2.005245  -4.261442  5.465619
N    1.620548  -5.609460  5.349023
N    3.197135  -3.784971  5.355446
H    0.616231  -0.589120  3.722793
H    -0.278611  -2.109372  3.750680
H    -0.981891  -1.565971  6.165583
H    0.078321  -0.170515  6.110902
H    1.338507  -1.915097  7.173530
H    2.044958  -1.724207  5.569603
H    0.183297  -3.903748  6.272790
H    2.348338  -6.205582  4.969428
H    0.732830  -5.757132  4.874403
H    3.849942  -4.497960  5.021917
N    -0.852905  1.976798  3.970703
C    -0.855611  3.330212  4.488151
H    -0.262499  1.729326  3.167866
H    -1.537464  3.367494  5.344378
H    -1.198854  4.048927  3.729408
H    0.151273  3.623650  4.815662
