35
Energy: -21190.4303529 eV PBE+vdW (tier 2 basis)
C    -0.586202  1.584478  -0.931850
C    0.008037  0.982977  0.323261
O    1.226999  0.940923  0.504773
H    -0.575531  0.821635  -1.728844
H    0.063989  2.405471  -1.250349
H    -1.612263  1.953494  -0.807567
N    -0.841735  0.455655  1.261396
C    -2.263533  0.192719  1.173238
C    -2.719968  -0.193830  2.593428
O    -1.933845  -0.652108  3.421538
H    -0.396446  0.069100  2.094576
H    -2.793716  1.113797  0.875445
C    -2.655476  -0.919589  0.162834
C    -2.241472  -2.359164  0.499111
C    -0.730761  -2.675577  0.501647
N    0.029544  -2.189201  -0.648260
C    -0.352011  -2.383238  -1.962217
N    -0.894785  -3.647457  -2.216717
N    -0.217997  -1.418067  -2.812916
H    -2.255078  -0.638678  -0.821049
H    -3.751671  -0.897710  0.053208
H    -2.727225  -3.011067  -0.241277
H    -2.642310  -2.656843  1.481258
H    -0.613637  -3.767329  0.601788
H    -0.248750  -2.247481  1.387915
H    0.486331  -1.290696  -0.520822
H    -1.010918  -3.858408  -3.201231
H    -0.473388  -4.415226  -1.700782
H    -0.382086  -1.738106  -3.771138
N    -4.050513  -0.035438  2.828690
C    -4.684661  -0.424538  4.074981
H    -4.619974  0.377114  2.099556
H    -5.145288  0.439933  4.572243
H    -3.906863  -0.835207  4.726698
H    -5.453651  -1.191266  3.907119
