35
Energy: -21190.0506797 eV PBE+vdW (tier 2 basis)
C    -0.025488  -0.117846  0.123299
C    -0.092833  0.003242  1.631419
O    0.931924  0.081218  2.307568
H    -0.032256  -1.183633  -0.141860
H    0.921662  0.320670  -0.204305
H    -0.857105  0.355616  -0.409605
N    -1.316315  -0.003628  2.261605
C    -2.687290  0.026927  1.763472
C    -2.893041  -0.955176  0.578659
O    -2.445441  -2.095424  0.631278
H    -1.208216  0.016396  3.271592
H    -3.283019  -0.463404  2.551936
C    -3.267747  1.456380  1.637169
C    -2.573433  2.455125  0.691726
C    -1.421600  3.243128  1.348362
N    -0.807254  4.232819  0.486038
C    -1.413939  5.444177  0.183702
N    -0.725301  6.151235  -0.808948
N    -2.485933  5.951835  0.689417
H    -3.273389  1.886161  2.652219
H    -4.335041  1.364813  1.377903
H    -3.317760  3.180588  0.332073
H    -2.188622  1.953356  -0.208779
H    -0.630207  2.567543  1.694496
H    -1.795605  3.755169  2.249208
H    -0.184368  3.870894  -0.228476
H    -1.105080  7.089106  -0.902899
H    0.285307  6.163354  -0.696276
H    -2.960558  5.296994  1.314438
N    -3.641345  -0.494221  -0.464187
C    -3.977042  -1.323879  -1.606556
H    -3.960196  0.465650  -0.452138
H    -5.065580  -1.414033  -1.724230
H    -3.552016  -2.317069  -1.429031
H    -3.552150  -0.913369  -2.533186
