35
Energy: -21190.4620085 eV PBE+vdW (tier 2 basis)
C    -0.708812  -0.451418  -0.079967
C    0.007388  -0.592422  1.248124
O    0.807930  -1.493658  1.479460
H    -0.332367  -1.225771  -0.752836
H    -0.545268  0.537142  -0.530099
H    -1.794006  -0.580313  0.040756
N    -0.273362  0.356494  2.210434
C    -1.249414  1.439979  2.147723
C    -0.765708  2.665719  1.342581
O    -1.578326  3.498954  0.930370
H    0.166297  0.163288  3.107144
H    -2.153709  1.092847  1.624709
C    -1.647176  1.813091  3.594714
C    -2.928973  2.645603  3.779190
C    -2.776914  4.176106  3.807211
N    -1.873801  4.662202  4.837069
C    -0.558095  5.031344  4.593697
N    0.176256  5.190095  5.779069
N    0.030464  5.215643  3.463017
H    -0.796869  2.310384  4.088605
H    -1.790424  0.854086  4.114826
H    -3.390068  2.337306  4.731642
H    -3.659868  2.391356  2.996356
H    -3.771703  4.619594  3.969090
H    -2.432638  4.541801  2.834085
H    -2.046173  4.306273  5.772305
H    1.068556  5.633895  5.579586
H    -0.321599  5.676802  6.520596
H    -0.582347  4.988115  2.676674
N    0.570289  2.747159  1.150341
C    1.214646  3.884132  0.519417
H    1.139215  2.016768  1.565159
H    0.459340  4.424082  -0.061533
H    2.011740  3.540546  -0.151282
H    1.632026  4.568309  1.272110
