35
Energy: -21190.4034305 eV PBE+vdW (tier 2 basis)
C    0.679161  -2.114836  0.878454
C    0.647864  -0.705222  1.428665
O    1.612634  0.053394  1.372229
H    0.359142  -2.853730  1.626227
H    1.701475  -2.334856  0.561418
H    0.002357  -2.214821  0.019105
N    -0.535680  -0.273650  1.996444
C    -1.722267  -1.066054  2.309356
C    -2.527812  -1.554389  1.081818
O    -3.239646  -2.552796  1.188989
H    -0.420765  0.613839  2.476492
H    -1.430601  -1.992208  2.829102
C    -2.673757  -0.297399  3.260038
C    -3.537859  0.806502  2.627827
C    -2.804735  2.110891  2.257979
N    -3.516207  2.926597  1.271241
C    -3.406904  2.674531  -0.095804
N    -2.114863  2.319442  -0.516235
N    -4.341302  2.742645  -0.979742
H    -2.079177  0.099465  4.099877
H    -3.346365  -1.050038  3.691253
H    -4.354618  1.048127  3.325565
H    -4.022297  0.409095  1.724180
H    -1.821578  1.892632  1.831134
H    -2.628235  2.718959  3.158056
H    -4.470643  3.154803  1.536508
H    -2.072042  2.344447  -1.532297
H    -1.365686  2.868395  -0.099828
H    -5.260163  2.867754  -0.546103
N    -2.423538  -0.798576  -0.038841
C    -3.228054  -1.039180  -1.222839
H    -1.888920  0.068356  0.000702
H    -2.602784  -1.341028  -2.075665
H    -3.784125  -0.131728  -1.495339
H    -3.931007  -1.848626  -0.998968
