35
Energy: -21190.0460147 eV PBE+vdW (tier 2 basis)
C    0.105808  0.074086  0.044111
C    0.084994  0.177891  1.561359
O    1.110477  0.410368  2.199442
H    0.745540  -0.772170  -0.237030
H    0.568306  0.981529  -0.362184
H    -0.881351  -0.062375  -0.414546
N    -1.150417  -0.006824  2.124563
C    -1.548214  -0.072189  3.539125
C    -2.337094  1.181392  3.996774
O    -3.491757  1.032041  4.406871
H    -1.912434  -0.157364  1.473939
H    -2.333515  -0.840536  3.576974
C    -0.443973  -0.541862  4.506722
C    -0.962153  -0.925677  5.902295
C    -1.164149  0.254180  6.868620
N    -1.489602  -0.141668  8.236933
C    -0.622471  -0.872297  9.038817
N    0.727575  -0.540888  8.874043
N    -1.105956  -1.772046  9.826801
H    0.359685  0.199197  4.593318
H    0.021920  -1.423484  4.044695
H    -0.228232  -1.605372  6.358552
H    -1.904187  -1.491283  5.822520
H    -1.980202  0.904984  6.532661
H    -0.257096  0.878714  6.872631
H    -2.436818  -0.490519  8.359969
H    1.329853  -0.912361  9.599848
H    0.919451  0.438023  8.679221
H    -0.391384  -2.135939  10.462798
N    -1.762966  2.415934  3.971299
C    -0.461025  2.850641  3.495370
H    -2.411206  3.137152  4.276577
H    -0.033766  3.572673  4.203847
H    -0.532337  3.333649  2.508162
H    0.232838  2.009808  3.403238
