35
Energy: -21190.5727831 eV PBE+vdW (tier 2 basis)
C    -1.431141  -0.526002  1.353733
C    0.066476  -0.380214  1.541485
O    0.879808  -1.037260  0.890265
H    -1.671448  -0.368208  0.295247
H    -2.015556  0.171430  1.966499
H    -1.720273  -1.554583  1.604287
N    0.436210  0.539544  2.483971
C    1.831198  0.774273  2.802879
C    2.056163  0.572588  4.307390
O    1.295155  1.043946  5.160449
H    -0.282338  1.031927  3.020634
H    2.376549  0.004723  2.235491
C    2.372444  2.156107  2.346277
C    1.746459  3.393532  3.008106
C    0.380861  3.804483  2.415004
N    -0.510294  4.467476  3.367333
C    -1.507723  3.799623  4.068725
N    -1.231173  2.449139  4.328336
N    -2.627016  4.296801  4.475284
H    2.255119  2.202245  1.252026
H    3.456771  2.154204  2.536394
H    2.443996  4.239544  2.921854
H    1.629294  3.218655  4.085764
H    -0.129088  2.927725  1.994992
H    0.539891  4.493569  1.573919
H    -0.748218  5.428205  3.155776
H    -1.977653  2.069764  4.906517
H    -0.314915  2.241023  4.742702
H    -2.773247  5.240337  4.104500
N    3.179098  -0.122860  4.624769
C    3.596208  -0.379975  5.991051
H    3.706198  -0.537935  3.865725
H    4.624124  -0.031777  6.158718
H    3.538413  -1.450936  6.230393
H    2.917647  0.166884  6.653503
