35
Energy: -21190.6314782 eV PBE+vdW (tier 2 basis)
C    0.742915  -3.830795  3.167599
C    -0.062462  -2.792591  2.416885
O    0.448876  -2.036030  1.579808
H    0.222823  -4.202832  4.058653
H    1.706072  -3.395212  3.455000
H    0.947494  -4.676083  2.496152
N    -1.394205  -2.772073  2.716079
C    -2.289791  -1.781835  2.120884
C    -2.252478  -0.478690  2.959164
O    -3.158941  -0.128486  3.720532
H    -1.675709  -3.209489  3.601105
H    -1.831073  -1.534860  1.152620
C    -3.710510  -2.321666  1.840863
C    -4.305126  -3.344858  2.819441
C    -4.800454  -2.806054  4.182348
N    -4.614118  -3.761373  5.276400
C    -3.321196  -4.045084  5.690437
N    -3.144885  -5.327325  6.200156
N    -2.292794  -3.259581  5.609059
H    -3.675486  -2.800903  0.851976
H    -4.381456  -1.455610  1.743557
H    -3.560691  -4.134244  3.003619
H    -5.139656  -3.851215  2.311086
H    -5.869111  -2.558903  4.137439
H    -4.294334  -1.865608  4.432981
H    -5.216542  -4.577940  5.214400
H    -3.958390  -5.761007  6.623603
H    -2.313272  -5.398060  6.777897
H    -2.574287  -2.331848  5.281280
N    -1.103961  0.221225  2.771999
C    -0.770428  1.401287  3.544739
H    -0.387478  -0.223492  2.192812
H    -0.392976  2.195872  2.888140
H    -0.008238  1.183385  4.308214
H    -1.679131  1.748980  4.047074
