35
Energy: -21190.0532453 eV PBE+vdW (tier 2 basis)
C    -1.333739  -1.088109  2.173138
C    -1.981549  -0.529409  3.422609
O    -1.661546  -0.908134  4.547126
H    -1.975878  -1.869952  1.742487
H    -0.385042  -1.545873  2.465966
H    -1.163539  -0.343419  1.387753
N    -2.990186  0.400898  3.283500
C    -3.525741  1.059184  2.091276
C    -3.915972  0.065231  0.969015
O    -3.468136  0.169538  -0.170328
H    -3.357901  0.695563  4.183098
H    -4.471850  1.518780  2.426247
C    -2.638758  2.186280  1.542458
C    -2.389757  3.296661  2.564625
C    -1.446257  4.396022  2.071198
N    -2.003028  5.124022  0.941864
C    -1.600285  6.385377  0.521589
N    -0.715668  7.038359  1.381238
N    -2.029395  7.010801  -0.522873
H    -3.135969  2.571486  0.640627
H    -1.682204  1.766304  1.198150
H    -1.945409  2.862796  3.473364
H    -3.345246  3.759692  2.861541
H    -0.461334  3.942852  1.833773
H    -1.287304  5.114476  2.886459
H    -2.404361  4.560607  0.201831
H    -0.413005  7.915791  0.968381
H    0.060975  6.486453  1.733118
H    -2.775646  6.488425  -0.990111
N    -4.798770  -0.924661  1.296006
C    -5.476396  -1.178213  2.557657
H    -5.000341  -1.543129  0.516614
H    -4.835220  -1.692695  3.287379
H    -6.352689  -1.805337  2.358871
H    -5.838210  -0.246315  3.012156
