35
Energy: -21190.6160187 eV PBE+vdW (tier 2 basis)
C    1.328878  1.622669  0.653628
C    0.002003  1.182583  1.236593
O    -0.664559  1.922423  1.975184
H    1.143136  2.374860  -0.125570
H    1.907355  0.796715  0.223351
H    1.915143  2.109095  1.441241
N    -0.411438  -0.065067  0.888474
C    -1.689446  -0.629559  1.327960
C    -1.565168  -1.241738  2.752335
O    -1.618691  -2.452984  2.959959
H    0.212247  -0.649973  0.328734
H    -2.391226  0.217663  1.396130
C    -2.192568  -1.659439  0.321194
C    -2.674660  -1.050049  -1.013367
C    -2.190314  -1.790861  -2.270185
N    -0.795286  -1.499602  -2.637981
C    0.299234  -1.976125  -1.920646
N    0.213602  -3.303722  -1.537183
N    1.350978  -1.292288  -1.591142
H    -3.003361  -2.225502  0.795727
H    -1.397709  -2.398791  0.152091
H    -2.345461  -0.000924  -1.095786
H    -3.774634  -1.018698  -1.030351
H    -2.807291  -1.508295  -3.134940
H    -2.310092  -2.875839  -2.147928
H    -0.665452  -0.520049  -2.877421
H    1.089719  -3.658065  -1.168978
H    -0.249764  -3.933882  -2.182225
H    1.233612  -0.308900  -1.852606
N    -1.402587  -0.297358  3.716345
C    -1.171899  -0.633117  5.106607
H    -1.290407  0.669213  3.396483
H    -1.836758  -0.052989  5.760505
H    -0.130258  -0.437852  5.403879
H    -1.379178  -1.700472  5.238158
