35
Energy: -21190.0841749 eV PBE+vdW (tier 2 basis)
C    -0.123606  0.823680  0.120960
C    -0.069895  0.764737  1.640248
O    0.923547  1.143773  2.258821
H    0.714406  0.240323  -0.279842
H    0.024331  1.864717  -0.192437
H    -1.058199  0.449705  -0.315388
N    -1.206559  0.285436  2.230226
C    -1.503675  -0.007513  3.640347
C    -2.518714  0.941273  4.322447
O    -3.342953  0.429702  5.086837
H    -1.954749  0.033812  1.595172
H    -2.083582  -0.939810  3.602046
C    -0.286974  -0.327333  4.548406
C    0.419713  0.808545  5.306140
C    -0.264000  1.208402  6.622445
N    0.480236  2.209241  7.372903
C    0.186412  3.553435  7.298441
N    1.116134  4.334096  8.007367
N    -0.822466  3.996492  6.622036
H    0.443061  -0.864596  3.930278
H    -0.659502  -1.053161  5.287919
H    0.558129  1.687231  4.667078
H    1.437843  0.456341  5.541065
H    -0.392635  0.318227  7.259126
H    -1.259420  1.629900  6.452467
H    1.454787  1.995776  7.558276
H    1.413721  3.937797  8.895723
H    0.837612  5.304166  8.107842
H    -0.953707  4.996408  6.791452
N    -2.505279  2.280044  4.094075
C    -1.529555  3.134410  3.434105
H    -3.185060  2.757404  4.680904
H    -1.245444  3.932753  4.131181
H    -1.942003  3.569007  2.510600
H    -0.618132  2.587546  3.185205
