35
Energy: -21190.1268435 eV PBE+vdW (tier 2 basis)
C    -0.088469  1.105446  -0.400212
C    0.060600  0.301420  0.875314
O    1.174325  0.027812  1.326372
H    -0.008011  2.175109  -0.155136
H    -1.026465  0.913530  -0.928395
H    0.757420  0.856818  -1.049366
N    -1.060785  -0.111363  1.559976
C    -2.467146  0.247184  1.444192
C    -3.176775  -0.406006  0.241281
O    -2.625294  -0.677414  -0.820812
H    -0.832631  -0.487470  2.483268
H    -2.904066  -0.199164  2.350154
C    -2.785061  1.767367  1.531999
C    -2.779405  2.290186  2.975363
C    -1.383503  2.362242  3.641391
N    -1.375310  2.046290  5.061913
C    -1.448664  0.739180  5.491945
N    -1.528845  0.638729  6.887732
N    -1.471077  -0.246875  4.652605
H    -3.778574  1.949055  1.095220
H    -2.082067  2.329154  0.901768
H    -3.415158  1.628595  3.583263
H    -3.249850  3.285241  3.004968
H    -0.955807  3.367151  3.522597
H    -0.689325  1.665026  3.163981
H    -1.783429  2.731702  5.688210
H    -0.936304  1.289605  7.397112
H    -1.429597  -0.308531  7.236485
H    -1.389443  -1.141106  5.141099
N    -4.514428  -0.662324  0.416953
C    -5.324518  -0.509443  1.613848
H    -4.949621  -1.066665  -0.405786
H    -4.888229  -1.030677  2.478343
H    -6.308203  -0.951589  1.422803
H    -5.481030  0.544672  1.889675
