35
Energy: -21190.5186302 eV PBE+vdW (tier 2 basis)
C    1.033990  1.026945  0.051087
C    0.369648  0.453031  1.286620
O    0.675057  -0.647221  1.744230
H    2.095109  1.203284  0.271799
H    0.583939  1.965262  -0.294965
H    0.986970  0.282516  -0.752240
N    -0.545425  1.279772  1.892745
C    -1.438023  0.803631  2.940273
C    -2.873036  1.057414  2.441348
O    -3.119435  1.973115  1.654968
H    -0.957739  2.032840  1.340559
H    -1.249161  -0.275996  3.050280
C    -1.230290  1.515720  4.299047
C    -0.040696  1.038600  5.143228
C    1.358888  1.213563  4.526847
N    1.645929  2.545326  3.990226
C    1.657779  3.697106  4.772624
N    2.124571  3.505246  6.073269
N    1.292157  4.880705  4.408978
H    -2.142251  1.377210  4.899674
H    -1.161729  2.598618  4.113980
H    -0.166424  -0.028755  5.389612
H    -0.074094  1.585837  6.097199
H    1.508522  0.499264  3.707724
H    2.110038  0.956030  5.287046
H    1.212442  2.704506  3.085481
H    2.913936  2.872334  6.164009
H    2.283215  4.397739  6.531087
H    0.845578  4.862427  3.487671
N    -3.820072  0.230967  2.957992
C    -5.236034  0.368463  2.668710
H    -3.515802  -0.520202  3.565964
H    -5.351991  1.212197  1.980976
H    -5.810975  0.570349  3.583097
H    -5.631464  -0.538126  2.190845
