35
Energy: -21190.6193502 eV PBE+vdW (tier 2 basis)
C    0.796658  -0.087349  0.333756
C    0.862994  -0.041460  1.847445
O    1.878411  -0.417662  2.452501
H    0.875573  -1.134487  0.013954
H    1.663744  0.445226  -0.074907
H    -0.121571  0.341772  -0.084743
N    -0.244615  0.437837  2.470892
C    -0.547032  0.470430  3.909792
C    0.304929  1.428465  4.767654
O    -0.253365  2.103297  5.645089
H    -1.001553  0.758465  1.878504
H    -1.552541  0.910705  3.945167
C    -0.583506  -0.955422  4.520609
C    -0.805406  -1.019867  6.040778
C    -2.236227  -0.744128  6.533997
N    -2.791967  0.533179  6.079728
C    -3.780992  0.605733  5.122363
N    -4.798202  -0.345491  5.271733
N    -3.693707  1.480555  4.167935
H    0.367279  -1.452532  4.284543
H    -1.376255  -1.515772  3.999690
H    -0.106009  -0.338860  6.548425
H    -0.538155  -2.031155  6.385224
H    -2.237616  -0.784689  7.635701
H    -2.903082  -1.543237  6.182607
H    -2.100482  1.286913  5.984768
H    -5.585111  -0.211485  4.647044
H    -5.085922  -0.527432  6.229502
H    -4.570211  1.543964  3.642907
N    1.636654  1.425143  4.546503
C    2.557892  2.240826  5.312219
H    1.987327  0.756845  3.846921
H    3.185999  2.847395  4.645640
H    3.213864  1.618981  5.939095
H    1.974847  2.903035  5.960728
