35
Energy: -21189.9859413 eV PBE+vdW (tier 2 basis)
C    -0.473649  1.572298  0.646273
C    -0.297927  0.751114  1.907572
O    0.450641  1.100256  2.819918
H    -1.113773  2.433667  0.881535
H    -0.929141  1.014133  -0.181060
H    0.502110  1.958104  0.332456
N    -1.033786  -0.401010  1.968668
C    -1.165520  -1.175596  3.205983
C    -1.550804  -0.203759  4.362968
O    -2.608649  0.412167  4.226011
H    -1.752139  -0.529114  1.266935
H    -2.119193  -1.710906  3.095640
C    -0.091792  -2.279443  3.368398
C    1.323810  -1.979326  2.868790
C    2.303169  -3.144557  3.065402
N    2.684905  -3.405546  4.455023
C    1.956887  -4.177051  5.353450
N    1.254699  -5.236882  4.778222
N    1.884084  -4.004832  6.631954
H    -0.455440  -3.157636  2.811079
H    -0.083426  -2.602248  4.418160
H    1.732811  -1.076557  3.341906
H    1.284340  -1.752539  1.791756
H    3.226682  -2.938025  2.504096
H    1.883343  -4.066171  2.640598
H    3.145193  -2.622024  4.907897
H    0.886828  -5.847003  5.502353
H    1.755470  -5.749626  4.058057
H    2.331246  -3.128535  6.916181
N    -0.857340  -0.126375  5.536721
C    0.558049  -0.348952  5.803727
H    -1.327694  0.517849  6.166377
H    0.797665  0.142182  6.753109
H    1.181150  0.096911  5.017949
H    0.795834  -1.414477  5.916675
