35
Energy: -21190.458503 eV PBE+vdW (tier 2 basis)
C    1.255469  -0.799501  0.910292
C    0.521061  0.257528  1.706718
O    1.119624  1.079455  2.410802
H    1.925511  -0.299049  0.199879
H    0.592881  -1.475695  0.356599
H    1.882137  -1.386888  1.592309
N    -0.837300  0.254866  1.594189
C    -1.693545  1.238282  2.259162
C    -1.992423  0.803496  3.721418
O    -3.094018  0.384135  4.072171
H    -1.287183  -0.498152  1.085560
H    -1.104904  2.168209  2.298040
C    -2.980992  1.465108  1.472272
C    -2.756892  2.085196  0.092199
C    -4.067499  2.310894  -0.659568
N    -3.809808  2.856752  -1.980637
C    -4.791443  3.167567  -2.908093
N    -5.968862  2.423844  -2.793290
N    -4.512234  4.025158  -3.831528
H    -3.630409  2.110566  2.080403
H    -3.525039  0.510193  1.389015
H    -2.104185  1.447537  -0.523440
H    -2.232030  3.049087  0.203342
H    -4.726360  2.965126  -0.052352
H    -4.580393  1.339917  -0.762925
H    -3.036254  3.511246  -2.052142
H    -6.753997  2.816821  -3.298456
H    -6.227137  2.097940  -1.867666
H    -5.277591  4.116463  -4.503280
N    -0.916215  0.938626  4.539988
C    -0.928007  0.504386  5.922960
H    -0.032950  1.201897  4.095808
H    -0.353780  -0.424135  6.062231
H    -1.967488  0.319436  6.213520
H    -0.503060  1.280078  6.573257
