35
Energy: -21190.4293289 eV PBE+vdW (tier 2 basis)
C    0.238943  -0.423540  0.401523
C    0.361089  -0.664148  1.889785
O    1.469563  -0.798256  2.423882
H    0.410929  -1.376843  -0.119271
H    1.041700  0.260198  0.105259
H    -0.727712  -0.013091  0.086766
N    -0.778064  -0.741663  2.637847
C    -2.129599  -1.024242  2.188590
C    -3.022951  -0.904575  3.436127
O    -2.547063  -1.028430  4.565920
H    -0.646713  -0.878738  3.641969
H    -2.433856  -0.266518  1.449300
C    -2.296445  -2.423323  1.530472
C    -2.257422  -3.656968  2.442382
C    -0.939662  -3.944274  3.204721
N    0.292437  -3.746221  2.467526
C    0.619808  -4.422577  1.310677
N    1.625152  -3.791517  0.571300
N    0.086803  -5.502163  0.839930
H    -1.523312  -2.521024  0.756228
H    -3.254206  -2.432601  0.989054
H    -2.497827  -4.517418  1.801723
H    -3.060920  -3.606502  3.194317
H    -0.988416  -4.978071  3.586976
H    -0.877970  -3.300941  4.090740
H    0.792011  -2.879949  2.648118
H    2.074909  -4.432084  -0.074502
H    2.280986  -3.221492  1.098121
H    -0.656202  -5.845171  1.451509
N    -4.356036  -0.699949  3.250317
C    -5.100734  -0.550014  2.011997
H    -4.881132  -0.711407  4.119842
H    -5.992535  0.057287  2.204943
H    -5.423189  -1.515492  1.593105
H    -4.503955  -0.026169  1.256433
