35
Energy: -21190.6645111 eV PBE+vdW (tier 2 basis)
C    0.107562  -1.134478  0.173002
C    -0.009497  -0.529604  1.558724
O    1.002133  -0.125895  2.161960
H    -0.814503  -1.622915  -0.162944
H    0.928694  -1.861171  0.179036
H    0.378117  -0.343739  -0.539714
N    -1.270972  -0.452852  2.043483
C    -1.673283  -0.115152  3.416885
C    -1.449216  1.345155  3.876546
O    -2.350879  1.920381  4.494244
H    -2.010518  -0.932402  1.498348
H    -2.766845  -0.192839  3.416307
C    -1.095154  -1.112946  4.454545
C    -1.917635  -2.391808  4.695357
C    -2.485295  -3.137265  3.468667
N    -3.851497  -2.733769  3.138679
C    -4.278860  -2.314300  1.907029
N    -5.669301  -2.291709  1.775184
N    -3.440539  -2.004427  0.964405
H    -0.993683  -0.595277  5.419114
H    -0.074512  -1.368691  4.138593
H    -2.762244  -2.158499  5.363289
H    -1.282276  -3.093938  5.256265
H    -2.485258  -4.219860  3.672321
H    -1.875380  -2.986253  2.571476
H    -4.570377  -3.080195  3.762007
H    -6.003196  -1.687022  1.032659
H    -6.198875  -2.155366  2.631698
H    -3.931528  -1.704722  0.120927
N    -0.235497  1.877287  3.608500
C    0.131122  3.216498  4.018644
H    0.442499  1.265541  3.128281
H    0.496145  3.800287  3.162097
H    0.918165  3.199161  4.787629
H    -0.756619  3.703938  4.436210
