35
Energy: -21190.5901579 eV PBE+vdW (tier 2 basis)
C    -2.103147  1.898855  0.174811
C    -1.431868  1.866562  1.532316
O    -0.208395  1.707616  1.637591
H    -3.179278  2.105946  0.212880
H    -1.946495  0.928283  -0.313113
H    -1.611091  2.658439  -0.444371
N    -2.259006  2.027331  2.602712
C    -1.912665  1.916830  4.028768
C    -1.008987  3.042360  4.586399
O    -1.324361  3.613535  5.639190
H    -3.235844  2.198164  2.399567
H    -2.860084  2.074198  4.557333
C    -1.364327  0.515293  4.386757
C    -1.003933  0.345635  5.867185
C    -2.206609  0.409449  6.826989
N    -1.860449  0.335814  8.233572
C    -1.458595  1.417526  9.019474
N    -1.742956  2.670365  8.506605
N    -0.942819  1.320347  10.203170
H    -0.480099  0.314995  3.768070
H    -2.128699  -0.222913  4.094274
H    -0.263669  1.103114  6.166418
H    -0.504999  -0.627917  5.992382
H    -2.898170  -0.418351  6.597977
H    -2.782454  1.332435  6.677947
H    -1.473997  -0.547009  8.547140
H    -1.365691  3.398653  9.102844
H    -1.622966  2.861638  7.511378
H    -0.901129  0.344366  10.509308
N    0.124833  3.300416  3.909073
C    1.077594  4.295465  4.367987
H    0.299872  2.754093  3.056067
H    1.896947  4.354215  3.644622
H    1.485794  4.030167  5.353296
H    0.604252  5.282623  4.457514
