35
Energy: -21190.2989038 eV PBE+vdW (tier 2 basis)
C    -0.985218  2.422525  -0.924315
C    -0.240759  1.526588  0.044831
O    0.974814  1.577778  0.200032
H    -0.269002  3.124875  -1.357587
H    -1.794599  2.979676  -0.433115
H    -1.440782  1.833625  -1.733389
N    -1.000765  0.632344  0.774876
C    -2.429579  0.369385  0.657710
C    -3.326302  1.432627  1.330608
O    -4.496651  1.574804  0.976846
H    -0.441635  -0.008192  1.333411
H    -2.724656  0.381994  -0.401538
C    -2.708805  -1.034617  1.241169
C    -4.163990  -1.511875  1.229073
C    -4.761949  -1.684530  -0.168115
N    -6.123250  -2.188822  -0.065621
C    -6.849264  -2.746672  -1.109842
N    -6.109594  -3.007454  -2.265198
N    -8.087748  -3.108512  -1.068308
H    -2.345069  -1.045701  2.281772
H    -2.081664  -1.747534  0.681678
H    -4.789023  -0.810672  1.802038
H    -4.212143  -2.480643  1.747969
H    -4.167677  -2.418805  -0.732330
H    -4.719987  -0.720082  -0.708853
H    -6.699371  -1.736242  0.635362
H    -6.723705  -3.340658  -3.002719
H    -5.495019  -2.262570  -2.580269
H    -8.476963  -2.995312  -0.128236
N    -2.737671  2.137346  2.331724
C    -3.428006  3.167000  3.083589
H    -1.744728  1.985892  2.477135
H    -2.968403  4.152474  2.924374
H    -3.420187  2.942659  4.158847
H    -4.464698  3.197087  2.731621
