35
Energy: -21190.341862 eV PBE+vdW (tier 2 basis)
C    1.695425  1.103390  0.913709
C    0.959352  1.087497  2.237700
O    1.408173  1.661096  3.234040
H    1.827964  2.145534  0.597714
H    1.183632  0.552060  0.115447
H    2.694812  0.675902  1.061557
N    -0.228859  0.414533  2.247679
C    -0.983253  0.203312  3.488971
C    -1.822489  -1.078705  3.420807
O    -1.719589  -1.932966  4.296143
H    -0.450810  -0.159044  1.442913
H    -0.243716  -0.006983  4.271677
C    -1.808737  1.440958  3.923830
C    -2.089151  1.503654  5.429658
C    -0.820638  1.592648  6.305252
N    0.174618  2.543057  5.838503
C    -0.023104  3.897130  5.992867
N    0.858333  4.666835  5.216953
N    -0.962127  4.352861  6.756842
H    -2.757841  1.485800  3.372469
H    -1.240905  2.333792  3.627309
H    -2.674423  0.628986  5.754757
H    -2.704556  2.392995  5.622428
H    -0.328191  0.612352  6.374942
H    -1.115722  1.882215  7.321309
H    0.698468  2.258116  5.009060
H    0.997490  5.608227  5.566931
H    1.736964  4.213730  4.977978
H    -0.930190  5.373708  6.804295
N    -2.668366  -1.272112  2.351387
C    -3.226738  -0.304814  1.415685
H    -3.178247  -2.147307  2.446320
H    -4.193430  0.094495  1.761360
H    -3.379093  -0.783786  0.439533
H    -2.548589  0.541485  1.273128
