35
Energy: -21190.2890282 eV PBE+vdW (tier 2 basis)
C    0.998580  0.039537  1.079634
C    0.318376  -0.952725  2.004784
O    0.889382  -1.946299  2.445228
H    1.835804  0.503052  1.616796
H    0.334599  0.830614  0.709043
H    1.421225  -0.504336  0.226264
N    -0.987115  -0.673387  2.314516
C    -1.743061  -1.467538  3.267249
C    -2.203605  -2.879878  2.853693
O    -2.448661  -3.679655  3.765162
H    -1.412380  0.169964  1.948787
H    -1.056262  -1.700599  4.093582
C    -2.956059  -0.667492  3.803570
C    -2.724608  -0.022529  5.174567
C    -2.435355  -1.054311  6.291658
N    -3.300354  -2.217383  6.299837
C    -4.632605  -2.139713  6.671740
N    -5.369514  -3.257587  6.272731
N    -5.238896  -1.188502  7.302596
H    -3.825215  -1.334194  3.875452
H    -3.235141  0.103582  3.067629
H    -3.622756  0.557439  5.431151
H    -1.886474  0.692004  5.134153
H    -2.482011  -0.554011  7.270795
H    -1.406032  -1.429106  6.200485
H    -3.078870  -2.901523  5.571209
H    -6.255524  -3.310566  6.765216
H    -4.862743  -4.137756  6.271722
H    -4.619249  -0.392405  7.464882
N    -2.389133  -3.240541  1.557697
C    -2.230360  -2.491422  0.320749
H    -2.679608  -4.210463  1.476986
H    -1.175371  -2.354486  0.044808
H    -2.715536  -1.509941  0.374345
H    -2.722175  -3.057336  -0.478376
