35
Energy: -21190.3331004 eV PBE+vdW (tier 2 basis)
C    0.231509  -0.502783  0.722691
C    -0.028538  -0.417168  2.213871
O    0.869514  -0.614622  3.038827
H    -0.137446  -1.459829  0.326364
H    1.312269  -0.462387  0.563330
H    -0.254611  0.304040  0.158654
N    -1.294195  -0.114821  2.620752
C    -2.525935  -0.133567  1.854861
C    -3.556085  0.657066  2.687912
O    -3.460345  0.741063  3.910437
H    -1.434660  -0.038529  3.629771
H    -2.373933  0.386570  0.895928
C    -3.066125  -1.566614  1.562575
C    -3.057120  -2.497914  2.788278
C    -1.786176  -3.356289  2.878649
N    -1.561194  -3.846221  4.229367
C    -0.307196  -4.244719  4.691628
N    0.764370  -3.507900  4.206481
N    -0.259401  -5.254441  5.498104
H    -2.466735  -2.007533  0.750770
H    -4.084006  -1.464810  1.157843
H    -3.939179  -3.154073  2.757318
H    -3.149482  -1.911300  3.713729
H    -0.913592  -2.762972  2.592183
H    -1.844941  -4.181636  2.140495
H    -2.257187  -4.503871  4.573332
H    1.644449  -3.702789  4.667732
H    0.640596  -2.515147  4.000312
H    0.680000  -5.371796  5.886869
N    -4.575123  1.204103  1.971132
C    -5.684797  1.908220  2.589071
H    -4.561383  1.105936  0.963001
H    -6.637282  1.393096  2.402251
H    -5.755427  2.938069  2.214228
H    -5.499523  1.933975  3.667628
