35
Energy: -21190.3204528 eV PBE+vdW (tier 2 basis)
C    -0.135340  0.509667  0.160485
C    -0.067454  0.272711  1.654475
O    0.982459  0.363839  2.283574
H    0.861274  0.332620  -0.253968
H    -0.402598  1.559120  -0.029905
H    -0.868444  -0.122923  -0.354225
N    -1.234888  -0.067062  2.318429
C    -2.616620  -0.080174  1.829874
C    -2.924316  -1.276433  0.888828
O    -3.872313  -1.243585  0.106480
H    -1.100570  -0.086411  3.325333
H    -3.222546  -0.282260  2.728925
C    -3.107948  1.253904  1.230058
C    -4.589878  1.536679  1.488096
C    -5.088023  2.851449  0.868904
N    -4.417723  4.054150  1.335224
C    -3.313588  4.619279  0.710678
N    -2.758632  5.659085  1.469130
N    -2.767065  4.307079  -0.414174
H    -2.925616  1.255261  0.147258
H    -2.497889  2.059213  1.661617
H    -4.774935  1.561147  2.576869
H    -5.197465  0.715486  1.081284
H    -6.164654  2.957555  1.071512
H    -4.990851  2.815666  -0.225771
H    -4.468435  4.223323  2.334899
H    -2.043885  6.142987  0.932771
H    -3.438454  6.306801  1.859755
H    -3.177262  3.462253  -0.816743
N    -2.105160  -2.349790  1.044640
C    -2.250741  -3.568385  0.274050
H    -1.317175  -2.237800  1.673897
H    -2.369270  -4.439488  0.932803
H    -1.382102  -3.734485  -0.378942
H    -3.146778  -3.464621  -0.347173
