35
Energy: -21190.1841046 eV PBE+vdW (tier 2 basis)
C    -1.632602  1.012206  0.391816
C    -1.033475  0.854989  1.779080
O    0.177572  0.829481  1.972751
H    -1.377489  0.124791  -0.201638
H    -1.166775  1.876107  -0.096690
H    -2.722441  1.138919  0.385986
N    -1.942636  0.760576  2.800546
C    -1.584804  0.478740  4.191211
C    -0.378478  1.321399  4.689404
O    0.583098  0.793766  5.237793
H    -2.926156  0.726081  2.560810
H    -2.454546  0.800886  4.790627
C    -1.348433  -1.018095  4.443606
C    -1.523385  -1.425757  5.907355
C    -1.212568  -2.910239  6.162261
N    -1.982158  -3.868425  5.381950
C    -3.324480  -4.120013  5.619629
N    -3.902564  -4.917714  4.620721
N    -4.056388  -3.717669  6.601923
H    -0.336710  -1.268594  4.093150
H    -2.068296  -1.569512  3.819732
H    -2.553838  -1.201383  6.228061
H    -0.848006  -0.831760  6.538779
H    -1.355701  -3.143267  7.228129
H    -0.151169  -3.100453  5.947155
H    -1.694679  -3.979136  4.415502
H    -4.834992  -5.208026  4.902640
H    -3.334058  -5.712761  4.338865
H    -3.558406  -3.050886  7.195098
N    -0.475608  2.683176  4.600078
C    -1.493303  3.502085  3.970020
H    0.375358  3.145876  4.903967
H    -2.498167  3.113948  4.176927
H    -1.368675  3.577273  2.878248
H    -1.440041  4.511770  4.394699
