35
Energy: -21190.2815174 eV PBE+vdW (tier 2 basis)
C    -1.344218  -0.207585  -1.008304
C    -1.620558  -0.402157  0.474357
O    -1.753561  -1.524962  0.957868
H    -2.168824  -0.655288  -1.576832
H    -0.432134  -0.758792  -1.268045
H    -1.229006  0.839378  -1.314980
N    -1.696194  0.761365  1.193927
C    -2.012278  0.984647  2.611153
C    -0.798474  1.409530  3.468109
O    -0.908733  2.451181  4.140830
H    -1.523072  1.612443  0.672164
H    -2.623154  1.898679  2.624883
C    -2.867455  -0.118212  3.273688
C    -3.513860  0.294164  4.617100
C    -2.834564  -0.231188  5.889336
N    -1.582371  0.432391  6.201383
C    -0.429356  -0.226336  6.568485
N    0.693727  0.624749  6.601547
N    -0.246661  -1.476023  6.835483
H    -2.291987  -1.041867  3.400873
H    -3.662134  -0.365301  2.557450
H    -4.540328  -0.099893  4.633841
H    -3.618021  1.389173  4.681978
H    -2.646014  -1.309692  5.769149
H    -3.539629  -0.131936  6.733102
H    -1.458792  1.361706  5.800396
H    1.442400  0.192074  7.135563
H    0.497845  1.571031  6.918960
H    -1.103245  -2.020185  6.718197
N    0.324607  0.662181  3.523479
C    0.574428  -0.695080  3.058975
H    0.944794  0.986050  4.268176
H    0.750099  -1.348990  3.925072
H    1.462804  -0.719701  2.412003
H    -0.270387  -1.094671  2.491774
