35
Energy: -21190.2547227 eV PBE+vdW (tier 2 basis)
C    -0.081208  0.104438  -0.151168
C    0.092533  0.187677  1.357797
O    1.200163  0.307040  1.874869
H    0.912479  0.139416  -0.605002
H    -0.674113  0.948579  -0.532640
H    -0.583841  -0.821479  -0.462196
N    -1.042825  0.135473  2.124549
C    -2.420777  0.037606  1.693074
C    -3.279848  0.724768  2.777422
O    -2.859592  0.890271  3.919982
H    -0.919460  0.299118  3.124285
H    -2.551420  0.586486  0.746695
C    -2.893388  -1.423755  1.468935
C    -2.898543  -2.285810  2.731130
C    -3.238719  -3.742604  2.427833
N    -3.273275  -4.524412  3.662051
C    -3.538084  -5.890346  3.664825
N    -2.926506  -6.594341  2.623164
N    -4.310182  -6.370828  4.578680
H    -2.228156  -1.873317  0.715432
H    -3.899083  -1.408382  1.017672
H    -3.626995  -1.883663  3.454158
H    -1.916204  -2.240190  3.223419
H    -2.473925  -4.157456  1.755049
H    -4.200452  -3.801761  1.880333
H    -3.813491  -4.088323  4.406789
H    -2.953591  -7.601140  2.739803
H    -2.003314  -6.264561  2.354061
H    -4.314435  -7.394377  4.567166
N    -4.530746  1.080502  2.375632
C    -5.507950  1.674183  3.271077
H    -4.784116  0.937451  1.405338
H    -5.791386  2.681676  2.937221
H    -5.047046  1.745696  4.261392
H    -6.411384  1.052884  3.339745
