35
Energy: -21190.4444963 eV PBE+vdW (tier 2 basis)
C    -0.996714  0.717394  -0.233237
C    -0.780383  0.432692  1.240859
O    0.343333  0.329172  1.734536
H    -0.456348  -0.034389  -0.820986
H    -0.558314  1.695144  -0.470758
H    -2.052424  0.719889  -0.530684
N    -1.917123  0.320098  1.987701
C    -1.876497  -0.020770  3.395363
C    -3.221432  -0.679413  3.727554
O    -4.206200  -0.507790  3.001910
H    -2.840654  0.282943  1.561980
H    -1.045734  -0.730303  3.535659
C    -1.592298  1.199655  4.313248
C    -2.748692  2.177402  4.552117
C    -3.241357  2.942629  3.309834
N    -4.152268  4.034539  3.610738
C    -3.710161  5.246016  4.126109
N    -4.769743  6.070504  4.527488
N    -2.499479  5.665452  4.266610
H    -0.729774  1.720978  3.873224
H    -1.245881  0.824480  5.287285
H    -2.417049  2.913266  5.300059
H    -3.605731  1.651847  5.004842
H    -3.763725  2.264351  2.623944
H    -2.386652  3.351065  2.749295
H    -5.076754  3.754443  3.923275
H    -4.425475  6.998181  4.759174
H    -5.544494  6.109813  3.869873
H    -1.815966  4.934856  4.056830
N    -3.305495  -1.426903  4.861059
C    -2.266681  -1.746985  5.825324
H    -4.244637  -1.768371  5.043216
H    -2.481999  -2.725121  6.271025
H    -2.200454  -1.003886  6.634531
H    -1.288991  -1.814981  5.335288
