35
Energy: -21190.070291 eV PBE+vdW (tier 2 basis)
C    0.220947  -0.234803  0.135765
C    0.230933  -0.190968  1.651534
O    1.278194  -0.187746  2.303610
H    1.247986  -0.373043  -0.211215
H    -0.176980  0.699439  -0.286890
H    -0.407150  -1.052458  -0.244220
N    -0.979959  -0.141227  2.284628
C    -2.299915  -0.004037  1.706960
C    -2.649111  1.328878  0.995966
O    -3.564237  1.318383  0.172765
H    -0.933098  -0.157481  3.310064
H    -2.431995  -0.739821  0.898427
C    -3.391658  -0.318986  2.753871
C    -3.512456  0.621228  3.976005
C    -2.848513  0.127101  5.270063
N    -1.388157  0.085794  5.193788
C    -0.573383  -0.847832  5.876307
N    -1.264478  -1.747872  6.683726
N    0.695201  -0.961317  5.729168
H    -3.235795  -1.353447  3.097141
H    -4.340600  -0.310519  2.203473
H    -4.579998  0.749287  4.208288
H    -3.156106  1.634086  3.729555
H    -3.189402  -0.897684  5.466869
H    -3.196552  0.754370  6.111654
H    -0.938848  0.994442  5.127845
H    -1.965246  -1.357307  7.307209
H    -0.616364  -2.370681  7.157354
H    1.049434  -0.403273  4.944886
N    -1.985442  2.495051  1.268847
C    -0.905368  2.827858  2.189286
H    -2.345329  3.254203  0.697889
H    -0.839625  3.920590  2.241119
H    0.071101  2.440638  1.869841
H    -1.101457  2.462298  3.204061
