35
Energy: -21190.3305585 eV PBE+vdW (tier 2 basis)
C    -0.488691  0.519649  -0.411274
C    -0.171574  0.420697  1.066241
O    0.987429  0.574518  1.480558
H    -1.457974  0.980237  -0.632616
H    -0.512279  -0.492226  -0.842102
H    0.313911  1.080956  -0.897505
N    -1.171715  0.105929  1.939524
C    -2.619644  0.095069  1.744873
C    -3.057745  -0.888839  0.626839
O    -3.746620  -0.535917  -0.329082
H    -0.855719  -0.037561  2.911157
H    -3.016466  -0.325519  2.684886
C    -3.256695  1.482881  1.544530
C    -3.568411  2.309964  2.801807
C    -2.403268  2.933356  3.594520
N    -1.782691  2.041444  4.570187
C    -0.535798  1.461711  4.456968
N    0.489978  2.245917  3.965968
N    -0.409197  0.215532  4.819176
H    -4.195097  1.321952  0.996913
H    -2.624973  2.075705  0.866398
H    -4.191702  1.718078  3.494946
H    -4.211846  3.144043  2.480525
H    -2.779345  3.828066  4.116420
H    -1.628959  3.280173  2.895548
H    -2.420369  1.415927  5.055038
H    0.257131  3.196404  3.699555
H    1.076103  1.765052  3.279094
H    0.581656  -0.037917  4.863136
N    -2.645311  -2.183619  0.758077
C    -1.875915  -2.808154  1.823812
H    -2.940361  -2.768496  -0.017447
H    -2.091329  -3.882964  1.821856
H    -2.161025  -2.416411  2.807891
H    -0.792773  -2.665033  1.701777
