35
Energy: -21190.5923969 eV PBE+vdW (tier 2 basis)
C    1.791704  1.488732  1.003957
C    1.000210  1.170753  2.256227
O    1.514770  1.268332  3.379146
H    2.207828  2.499134  1.095961
H    1.208552  1.421652  0.077761
H    2.637273  0.791818  0.941213
N    -0.289975  0.787023  2.056652
C    -1.249755  0.286827  3.054178
C    -1.751098  1.334258  4.073255
O    -2.960903  1.415330  4.334122
H    -0.618747  0.781244  1.099119
H    -2.142052  0.018534  2.478691
C    -0.750361  -0.994664  3.763652
C    -1.817442  -1.669687  4.638606
C    -2.760027  -2.629389  3.897072
N    -3.396948  -2.101723  2.676527
C    -4.693597  -1.556075  2.686258
N    -4.952656  -0.735736  3.768025
N    -5.600576  -1.765764  1.788668
H    0.131375  -0.745238  4.367841
H    -0.408928  -1.690670  2.980489
H    -2.402908  -0.912150  5.178111
H    -1.314738  -2.262756  5.417773
H    -3.528245  -2.987287  4.600829
H    -2.177999  -3.507816  3.580573
H    -3.280180  -2.716861  1.879148
H    -5.877595  -0.323611  3.691053
H    -4.233426  -0.041189  4.003614
H    -5.321439  -2.516109  1.149542
N    -0.814630  2.087489  4.679647
C    -1.161052  3.067654  5.692385
H    0.167675  1.905767  4.435041
H    -0.267089  3.650606  5.936427
H    -1.536406  2.586953  6.607695
H    -1.944593  3.743304  5.325615
