35
Energy: -21190.5010661 eV PBE+vdW (tier 2 basis)
C    -1.612581  1.342004  1.547576
C    -1.166245  0.502730  2.729706
O    -0.556292  0.976493  3.685475
H    -2.260729  0.798624  0.849329
H    -0.722865  1.702771  1.013958
H    -2.139183  2.225469  1.927875
N    -1.467462  -0.838051  2.631201
C    -1.248976  -1.748249  3.749551
C    -0.082706  -2.740143  3.540886
O    0.084235  -3.687401  4.308488
H    -2.097609  -1.120634  1.873686
H    -0.932254  -1.104548  4.586562
C    -2.527639  -2.504141  4.143534
C    -2.992697  -3.524495  3.082456
C    -4.493756  -3.449424  2.712144
N    -4.741813  -3.516384  1.278672
C    -4.245233  -2.554352  0.428109
N    -4.127711  -2.961653  -0.893504
N    -3.926588  -1.337029  0.752372
H    -3.311889  -1.753262  4.325104
H    -2.339452  -3.004773  5.100365
H    -2.736121  -4.540247  3.408496
H    -2.424777  -3.369170  2.153487
H    -4.932480  -2.518927  3.108751
H    -5.064825  -4.263098  3.175842
H    -5.017606  -4.404333  0.878547
H    -3.735531  -3.883787  -1.055463
H    -3.727754  -2.239405  -1.483472
H    -4.269725  -1.116885  1.691724
N    0.724151  -2.468783  2.481280
C    1.928847  -3.220631  2.199869
H    0.502579  -1.637119  1.944379
H    1.948007  -4.081181  2.877724
H    2.830869  -2.615392  2.371841
H    1.936810  -3.579591  1.161453
