35
Energy: -21190.3110839 eV PBE+vdW (tier 2 basis)
C    -0.717206  0.019041  4.652074
C    -1.210677  -0.772610  3.456697
O    -1.086420  -1.990383  3.371528
H    0.102878  0.693746  4.367091
H    -0.346489  -0.689808  5.396531
H    -1.510870  0.635164  5.096387
N    -1.831821  -0.061719  2.449288
C    -2.011386  1.379675  2.345918
C    -3.294011  1.927740  3.021120
O    -3.487942  3.140518  3.077454
H    -2.078143  -0.636574  1.647401
H    -1.184608  1.877155  2.872489
C    -1.965318  1.850448  0.881167
C    -3.110716  1.333367  0.006377
C    -3.050325  1.904308  -1.410466
N    -4.155320  1.407217  -2.212620
C    -4.236339  1.471843  -3.598280
N    -3.067908  1.893824  -4.233219
N    -5.242689  1.107365  -4.319221
H    -0.994380  1.556091  0.454052
H    -1.992983  2.948461  0.903214
H    -4.073171  1.610360  0.467848
H    -3.101955  0.234079  -0.070479
H    -2.111573  1.591415  -1.890908
H    -3.035823  3.011516  -1.348562
H    -5.056056  1.369567  -1.749609
H    -3.226551  1.987864  -5.232145
H    -2.604382  2.704866  -3.834600
H    -5.978652  0.683949  -3.747395
N    -4.145232  0.990038  3.511245
C    -5.386642  1.326983  4.179567
H    -3.868596  0.018964  3.411019
H    -5.389772  0.966426  5.217506
H    -6.249462  0.895586  3.653592
H    -5.477410  2.418609  4.180447
