35
Energy: -21190.3630734 eV PBE+vdW (tier 2 basis)
C    -1.230455  3.702973  1.263708
C    -0.724401  2.914186  2.454672
O    -0.026135  3.443026  3.323836
H    -1.823487  4.551178  1.627473
H    -1.838079  3.113843  0.565455
H    -0.368185  4.115395  0.725283
N    -1.096407  1.599021  2.485963
C    -0.726396  0.694503  3.569616
C    0.181494  -0.472927  3.128574
O    1.236807  -0.676796  3.722087
H    -1.737260  1.284198  1.768117
H    -0.062337  1.283077  4.204902
C    -1.930108  0.214748  4.412417
C    -2.770007  1.342829  5.038524
C    -2.215462  1.971018  6.330226
N    -0.905200  2.584643  6.209703
C    0.233483  1.861550  6.531152
N    1.401435  2.443802  6.029498
N    0.152321  0.799318  7.262680
H    -1.529915  -0.435916  5.203321
H    -2.587606  -0.411847  3.788754
H    -2.949753  2.130205  4.286666
H    -3.765204  0.937575  5.280900
H    -2.120293  1.205505  7.110818
H    -2.934937  2.724259  6.688856
H    -0.786740  3.248344  5.448580
H    2.180375  1.795437  5.985013
H    1.283312  2.949726  5.151230
H    1.077058  0.392376  7.414113
N    -0.209099  -1.301777  2.107116
C    -1.355963  -1.223845  1.222154
H    0.489520  -2.010141  1.902825
H    -1.210421  -0.513085  0.390883
H    -2.268697  -0.954217  1.768390
H    -1.532555  -2.213700  0.785844
