35
Energy: -21190.2175788 eV PBE+vdW (tier 2 basis)
C    0.279679  1.518048  1.130823
C    0.073692  1.146453  2.580911
O    0.967967  1.224008  3.421755
H    1.242739  2.028460  1.046506
H    -0.511987  2.171002  0.738250
H    0.301790  0.595232  0.528529
N    -1.169081  0.678292  2.944539
C    -2.353545  0.459313  2.118097
C    -3.594505  0.807797  2.972963
O    -4.413278  -0.041198  3.321022
H    -1.210955  0.383580  3.916724
H    -2.314665  1.186547  1.293128
C    -2.468348  -0.945371  1.496528
C    -2.115169  -2.108292  2.441258
C    -0.676074  -2.627007  2.303643
N    -0.439368  -3.398606  1.090263
C    0.172224  -2.902414  -0.036478
N    0.271453  -3.871996  -1.048766
N    0.558568  -1.671075  -0.120603
H    -1.810412  -0.981131  0.617490
H    -3.500153  -1.052255  1.137320
H    -2.807217  -2.945494  2.260751
H    -2.292123  -1.824851  3.489334
H    -0.437655  -3.269820  3.165680
H    0.047938  -1.804214  2.300640
H    -1.029603  -4.210025  0.945648
H    0.541591  -4.798823  -0.728617
H    0.825167  -3.574056  -1.844473
H    1.111517  -1.523426  -0.967709
N    -3.736670  2.118466  3.337745
C    -2.871462  3.248521  3.041026
H    -4.536303  2.277124  3.942616
H    -3.434996  4.172185  3.213961
H    -2.561349  3.246473  1.987911
H    -1.966065  3.264934  3.664689
