35
Energy: -21190.5377487 eV PBE+vdW (tier 2 basis)
C    1.458826  -0.599245  0.515190
C    0.653499  -1.360911  1.550747
O    1.057416  -2.406187  2.061113
H    2.421661  -0.313983  0.957221
H    0.956296  0.301251  0.141769
H    1.671836  -1.269061  -0.326989
N    -0.545011  -0.800531  1.888854
C    -1.469888  -1.452866  2.790248
C    -2.875556  -0.937358  2.435455
O    -3.038352  0.073188  1.749484
H    -0.933245  -0.009594  1.378560
H    -1.411142  -2.539083  2.611329
C    -1.123833  -1.206567  4.279529
C    -1.212182  0.257884  4.706430
C    -0.788128  0.460998  6.158489
N    -0.866730  1.864426  6.525364
C    -0.487795  2.295266  7.792179
N    -0.781592  3.647974  8.001490
N    0.065533  1.610817  8.732593
H    -0.105378  -1.591619  4.433770
H    -1.787021  -1.824831  4.906088
H    -2.243571  0.626218  4.572319
H    -0.573512  0.873372  4.055647
H    0.253408  0.126351  6.287619
H    -1.411282  -0.171612  6.822242
H    -1.662576  2.363554  6.137306
H    -0.377675  3.968891  8.876890
H    -0.538737  4.256991  7.224368
H    0.099210  0.614779  8.504450
N    -3.900369  -1.657226  2.964398
C    -5.295644  -1.300316  2.783007
H    -3.676476  -2.500296  3.479753
H    -5.794958  -1.155334  3.750664
H    -5.833953  -2.072603  2.216318
H    -5.326702  -0.362472  2.219356
