35
Energy: -21190.3082697 eV PBE+vdW (tier 2 basis)
C    -0.819733  -0.871724  -0.444038
C    -0.562722  -0.573964  1.016959
O    0.525201  -0.761036  1.559110
H    0.057838  -1.385328  -0.844685
H    -0.970273  0.060793  -1.008730
H    -1.717028  -1.486828  -0.605158
N    -1.612398  -0.056177  1.744792
C    -2.918827  0.339702  1.254844
C    -3.014602  1.621411  0.402296
O    -3.922645  1.689578  -0.437906
H    -1.373963  0.139903  2.712782
H    -3.248380  -0.431023  0.547269
C    -3.944766  0.409900  2.417192
C    -4.828367  -0.838251  2.550802
C    -6.032244  -0.858521  1.586939
N    -5.726432  -0.808693  0.156881
C    -5.021535  -1.816208  -0.492959
N    -5.204985  -3.097147  0.027996
N    -4.216528  -1.655854  -1.491693
H    -4.586209  1.294329  2.284169
H    -3.391885  0.580452  3.353937
H    -5.230955  -0.889486  3.574751
H    -4.221499  -1.745488  2.409727
H    -6.676915  0.008728  1.795235
H    -6.646201  -1.744827  1.802899
H    -5.432404  0.114372  -0.168969
H    -4.824953  -3.796930  -0.602452
H    -6.149491  -3.316779  0.329801
H    -4.095606  -0.659640  -1.699479
N    -2.144445  2.652484  0.564625
C    -1.116027  2.869658  1.576254
H    -2.337405  3.418735  -0.073637
H    -1.492223  2.670927  2.588094
H    -0.827890  3.925896  1.537531
H    -0.218972  2.260828  1.405877
