35
Energy: -21190.5957293 eV PBE+vdW (tier 2 basis)
C    0.346248  -1.961971  2.266693
C    -0.450298  -1.344535  3.394623
O    -0.523943  -1.874020  4.510789
H    0.052472  -3.012549  2.158717
H    1.408163  -1.942564  2.548834
H    0.222336  -1.446105  1.307155
N    -1.031518  -0.145504  3.120854
C    -1.906951  0.539362  4.054003
C    -3.046585  1.145107  3.215973
O    -2.871243  1.460693  2.038263
H    -1.073563  0.211236  2.167682
H    -2.293685  -0.220488  4.751460
C    -1.211765  1.654648  4.872110
C    -0.123873  1.170735  5.846433
C    1.284006  1.064001  5.236106
N    2.281817  0.610651  6.189127
C    2.949092  -0.606390  6.175548
N    2.393183  -1.578939  5.352869
N    4.029862  -0.880252  6.832544
H    -1.995935  2.176528  5.441270
H    -0.801262  2.398858  4.169936
H    -0.404168  0.196344  6.271349
H    -0.069709  1.874488  6.691511
H    1.580806  2.050297  4.839604
H    1.295349  0.379996  4.380730
H    2.714479  1.313695  6.774034
H    2.865728  -2.465888  5.495764
H    1.376116  -1.673983  5.332271
H    4.410457  -0.045085  7.286395
N    -4.217163  1.331180  3.881034
C    -5.379705  1.958614  3.278931
H    -4.280885  0.999130  4.836092
H    -5.665263  2.869568  3.822807
H    -6.235639  1.270376  3.260909
H    -5.115981  2.224291  2.250270
