35
Energy: -21190.4807775 eV PBE+vdW (tier 2 basis)
C    -2.365971  0.670205  -0.038667
C    -1.693408  0.374799  1.288408
O    -0.521368  0.695200  1.503527
H    -3.283749  0.091086  -0.192236
H    -1.655147  0.462468  -0.845997
H    -2.615363  1.739176  -0.076139
N    -2.466199  -0.282913  2.204591
C    -2.007743  -0.488193  3.574615
C    -2.004742  -1.979929  3.981807
O    -2.609841  -2.378463  4.978002
H    -3.470681  -0.365165  2.013624
H    -0.962512  -0.137698  3.575776
C    -2.812518  0.358862  4.570106
C    -4.324917  0.058256  4.592914
C    -5.233155  1.275218  4.377537
N    -4.998296  2.068539  3.173832
C    -5.261208  1.635929  1.901739
N    -5.170327  2.663541  0.953639
N    -5.504151  0.384909  1.654152
H    -2.632003  1.409029  4.292977
H    -2.382563  0.216271  5.569566
H    -4.599628  -0.395410  5.554046
H    -4.588631  -0.691370  3.837790
H    -5.137475  1.975176  5.220560
H    -6.278789  0.933084  4.358907
H    -4.460493  2.920151  3.261273
H    -5.419637  2.384665  0.011419
H    -5.590984  3.549082  1.221272
H    -5.837506  0.262583  0.695060
N    -1.280474  -2.846256  3.213618
C    -0.440090  -2.585394  2.057155
H    -1.355955  -3.805282  3.538483
H    -0.010678  -1.577839  2.095845
H    -0.993130  -2.681789  1.109603
H    0.388068  -3.304915  2.051207
