35
Energy: -21190.3526472 eV PBE+vdW (tier 2 basis)
C    -0.547774  -0.550616  -0.818188
C    -0.316775  0.090811  0.536185
O    0.710308  0.703363  0.812795
H    0.285076  -0.274023  -1.469367
H    -1.493187  -0.225276  -1.273475
H    -0.581855  -1.646424  -0.734247
N    -1.331452  -0.026611  1.463410
C    -2.576492  -0.774615  1.355243
C    -3.781724  0.045748  0.830738
O    -4.867383  -0.501217  0.650667
H    -1.090452  0.365237  2.371137
H    -2.440734  -1.578495  0.616357
C    -2.946761  -1.428203  2.694277
C    -1.957099  -2.494506  3.162391
C    -2.391802  -3.193904  4.456400
N    -3.604495  -3.997239  4.304553
C    -4.751031  -3.855818  5.081454
N    -5.000495  -2.548533  5.506070
N    -5.567221  -4.793878  5.424091
H    -3.943566  -1.871557  2.563895
H    -3.041719  -0.636874  3.460057
H    -0.959730  -2.056150  3.325269
H    -1.833974  -3.250012  2.368530
H    -2.575541  -2.454128  5.247224
H    -1.569367  -3.834770  4.813970
H    -3.450840  -4.954487  4.008640
H    -5.902442  -2.503128  5.971860
H    -4.908289  -1.836992  4.785722
H    -5.193963  -5.718196  5.189757
N    -3.536499  1.361340  0.597388
C    -4.546319  2.271240  0.093757
H    -2.594160  1.693905  0.772258
H    -4.260110  2.681071  -0.884880
H    -4.711815  3.103904  0.791064
H    -5.477882  1.705457  -0.015375
