35
Energy: -21190.3982645 eV PBE+vdW (tier 2 basis)
C    -0.641960  3.437026  2.185215
C    -0.155646  2.002868  2.116036
O    0.860744  1.618595  2.687336
H    -0.581875  3.920623  1.199570
H    0.001317  3.979180  2.882647
H    -1.685831  3.503938  2.520776
N    -0.920144  1.118834  1.382433
C    -2.098813  1.401935  0.573477
C    -3.441852  1.361427  1.343594
O    -4.481265  1.703423  0.783557
H    -0.503433  0.193813  1.316444
H    -2.027109  2.429901  0.190666
C    -2.175270  0.467535  -0.647214
C    -2.408077  -1.010074  -0.314606
C    -2.436287  -1.904879  -1.555318
N    -1.137133  -1.946690  -2.206674
C    -0.986343  -2.497582  -3.478475
N    0.357750  -2.579152  -3.856801
N    -1.900665  -2.916759  -4.281586
H    -1.254334  0.585692  -1.235669
H    -3.005669  0.824726  -1.271386
H    -3.367802  -1.124378  0.210822
H    -1.638863  -1.395608  0.378603
H    -3.162996  -1.498696  -2.275433
H    -2.791416  -2.914484  -1.275090
H    -0.358233  -2.148606  -1.584525
H    0.441058  -2.867922  -4.827285
H    0.907811  -1.748369  -3.655010
H    -2.819269  -2.941050  -3.834078
N    -3.370052  0.922750  2.627320
C    -4.530179  0.824576  3.490744
H    -2.450495  0.680441  2.980895
H    -4.424804  1.470731  4.373186
H    -4.688222  -0.209490  3.826942
H    -5.402009  1.149100  2.912412
