35
Energy: -21190.5773939 eV PBE+vdW (tier 2 basis)
C    0.805979  -1.124750  0.095250
C    0.417929  -0.468092  1.406086
O    0.766552  0.682588  1.690656
H    0.361043  -0.554507  -0.730481
H    0.489548  -2.172471  0.022118
H    1.895128  -1.067711  -0.020018
N    -0.344235  -1.244257  2.225354
C    -0.848084  -0.789124  3.509940
C    -0.061744  -1.507102  4.623587
O    -0.376228  -2.643100  5.013693
H    -0.603640  -2.206363  1.953795
H    -0.629057  0.284834  3.543658
C    -2.380851  -0.985311  3.679994
C    -3.121188  -1.970738  2.756380
C    -2.749030  -3.459142  2.843893
N    -1.634212  -3.807151  1.943556
C    -0.813370  -4.930449  2.175007
N    -0.461157  -5.118540  3.493170
N    -0.486115  -5.634156  1.142820
H    -2.849371  -0.001638  3.533470
H    -2.573724  -1.269338  4.724023
H    -3.040133  -1.637161  1.709217
H    -4.189045  -1.881093  3.006835
H    -3.633124  -4.070633  2.594723
H    -2.461571  -3.713021  3.869296
H    -1.927310  -3.860239  0.967851
H    0.267469  -5.802469  3.652654
H    -0.416069  -4.290556  4.097249
H    0.208877  -6.346285  1.382528
N    1.012217  -0.873386  5.153628
C    1.529347  0.463965  4.884441
H    1.472921  -1.419630  5.876565
H    1.066221  1.219288  5.537962
H    1.371902  0.743879  3.835676
H    2.609229  0.463237  5.073328
