35
Energy: -21190.2881338 eV PBE+vdW (tier 2 basis)
C    -1.702110  -1.497515  0.542130
C    -1.238730  -0.565743  1.651350
O    -0.203318  0.089365  1.543882
H    -1.642163  -0.963510  -0.412956
H    -2.718818  -1.887494  0.676054
H    -1.006806  -2.345672  0.488522
N    -2.068517  -0.530704  2.742095
C    -1.873161  0.070989  4.069449
C    -2.722682  1.339333  4.327776
O    -3.406471  1.397986  5.363510
H    -2.879812  -1.135147  2.688761
H    -2.329615  -0.651535  4.753950
C    -0.398386  0.245160  4.498284
C    -0.192681  0.770843  5.929661
C    -0.550560  -0.178882  7.080544
N    -1.978336  -0.455377  7.180348
C    -2.456658  -1.739830  7.051839
N    -3.821221  -1.781815  6.711052
N    -1.681875  -2.766976  7.178916
H    0.115058  0.911166  3.796543
H    0.085559  -0.737630  4.394902
H    -0.721494  1.729618  6.061857
H    0.876068  1.013110  6.033126
H    -0.188647  0.260955  8.024544
H    -0.046612  -1.148757  6.965186
H    -2.588695  0.274873  6.806129
H    -4.299849  -2.613917  7.038540
H    -4.348813  -0.935398  6.911393
H    -2.203863  -3.635669  7.045602
N    -2.709430  2.387893  3.469482
C    -2.007488  2.576930  2.210379
H    -3.332103  3.131954  3.773144
H    -1.719471  3.631550  2.121240
H    -2.639703  2.314278  1.348047
H    -1.099068  1.968357  2.160856
