35
Energy: -21190.419119 eV PBE+vdW (tier 2 basis)
C    0.560908  0.688308  0.706431
C    -0.189833  -0.111404  1.752940
O    0.346734  -0.983443  2.431761
H    1.616848  0.412253  0.761160
H    0.455180  1.770943  0.859009
H    0.186592  0.462103  -0.302386
N    -1.523507  0.190305  1.928829
C    -2.349342  1.110578  1.154308
C    -2.268692  2.586948  1.609036
O    -2.767831  3.473955  0.920259
H    -1.991599  -0.439609  2.575302
H    -2.000751  1.117778  0.111632
C    -3.818140  0.646466  1.139604
C    -4.527233  0.722713  2.495228
C    -5.964233  0.180801  2.474808
N    -6.073184  -1.250055  2.237255
C    -6.349317  -1.768864  0.986052
N    -6.299851  -3.173431  0.977657
N    -6.579462  -0.996233  -0.019871
H    -3.847525  -0.378309  0.743149
H    -4.357292  1.271600  0.417142
H    -4.567861  1.771070  2.831411
H    -3.961330  0.181346  3.275408
H    -6.541776  0.669342  1.680021
H    -6.448668  0.412836  3.435755
H    -5.549811  -1.858301  2.857318
H    -6.649826  -3.584365  0.118828
H    -6.706804  -3.620029  1.796212
H    -6.875170  -1.531692  -0.838517
N    -1.640663  2.801108  2.796116
C    -1.485404  4.119430  3.376254
H    -1.253590  1.988607  3.264406
H    -1.949665  4.838297  2.692200
H    -0.424422  4.377398  3.501140
H    -1.981970  4.185338  4.354554
