35
Energy: -21190.4204976 eV PBE+vdW (tier 2 basis)
C    0.173042  -0.041869  0.871406
C    -0.098513  0.297338  2.320256
O    0.843236  0.485978  3.107376
H    0.613440  -1.049001  0.836185
H    0.920003  0.655061  0.475379
H    -0.718027  -0.025894  0.232633
N    -1.410474  0.349571  2.677386
C    -2.051810  0.425881  4.009543
C    -1.706182  1.624752  4.932334
O    -2.590297  2.035598  5.687315
H    -2.063113  0.190898  1.918966
H    -3.106249  0.625807  3.780580
C    -2.033511  -0.900827  4.812893
C    -0.658743  -1.523869  5.103468
C    -0.196686  -2.492353  4.000207
N    1.251005  -2.505020  3.874781
C    1.848591  -3.330549  2.924933
N    3.207621  -3.054658  2.760294
N    1.300274  -4.257071  2.213575
H    -2.664800  -1.634026  4.285147
H    -2.556342  -0.672444  5.751942
H    -0.695693  -2.060739  6.060844
H    0.088803  -0.730067  5.233387
H    -0.679696  -2.225770  3.040127
H    -0.539349  -3.510966  4.238434
H    1.646764  -1.564921  3.886950
H    3.662954  -3.771028  2.202931
H    3.709569  -2.848501  3.619094
H    0.286107  -4.273124  2.339787
N    -0.458410  2.134213  4.883780
C    -0.060967  3.228434  5.750253
H    0.234627  1.644821  4.302678
H    0.913894  3.602553  5.420117
H    0.013851  2.910895  6.801289
H    -0.796723  4.040961  5.701167
