35
Energy: -21190.409404 eV PBE+vdW (tier 2 basis)
C    -2.166887  1.323414  0.259649
C    -2.551434  0.610763  1.541022
O    -3.699242  0.641408  1.986309
H    -1.121559  1.170948  -0.035147
H    -2.350126  2.397808  0.386128
H    -2.821628  0.972535  -0.547243
N    -1.540733  -0.081162  2.153032
C    -1.720692  -0.747436  3.435795
C    -1.128220  0.154615  4.540373
O    0.091536  0.312906  4.623496
H    -0.588257  0.049893  1.828992
H    -2.804279  -0.865206  3.552732
C    -1.042374  -2.120549  3.448005
C    -1.288582  -2.890082  4.747091
C    -0.631802  -4.268371  4.734906
N    -0.879095  -4.969987  5.982933
C    -0.477751  -6.292471  6.150206
N    -0.671684  -6.740339  7.461769
N    0.026021  -7.089488  5.273026
H    0.039702  -1.980473  3.300051
H    -1.424419  -2.691858  2.588511
H    -2.370008  -3.010469  4.919593
H    -0.892025  -2.308209  5.595790
H    0.451115  -4.160586  4.528170
H    -1.055436  -4.869800  3.915289
H    -0.772920  -4.400041  6.818110
H    -0.492116  -7.738089  7.529267
H    -1.568230  -6.484743  7.867292
H    0.250055  -6.600881  4.403442
N    -1.995771  0.772751  5.385592
C    -3.453265  0.710426  5.400064
H    -1.534396  1.350624  6.082159
H    -3.827820  1.569219  5.967885
H    -3.824848  -0.205339  5.885492
H    -3.861293  0.773688  4.383464
