35
Energy: -21190.243388 eV PBE+vdW (tier 2 basis)
C    0.009777  -2.072146  1.157014
C    -0.060087  -0.739328  1.873673
O    0.895238  0.031087  1.859111
H    0.054842  -1.882933  0.077295
H    -0.814172  -2.761023  1.360389
H    0.956438  -2.546861  1.441298
N    -1.185511  -0.403974  2.611175
C    -2.567043  -0.903839  2.582531
C    -2.704707  -2.401314  2.954973
O    -3.594729  -3.109747  2.479900
H    -1.080470  0.536007  2.987119
H    -3.046340  -0.392620  3.434834
C    -3.403211  -0.522011  1.351651
C    -3.057214  -1.198879  0.015302
C    -4.304404  -1.447958  -0.838038
N    -5.181367  -2.408255  -0.165842
C    -6.547390  -2.226408  -0.010819
N    -7.149512  -1.484514  -1.031593
N    -7.275667  -2.660941  0.963306
H    -3.353420  0.571257  1.241806
H    -4.445880  -0.756002  1.609702
H    -2.581248  -2.173615  0.188014
H    -2.335803  -0.597732  -0.555815
H    -3.994226  -1.821450  -1.829397
H    -4.854174  -0.508538  -1.003481
H    -4.750631  -2.869498  0.635753
H    -8.160762  -1.514981  -0.939772
H    -6.839232  -1.711564  -1.972515
H    -6.690166  -3.056914  1.704555
N    -1.825369  -2.830456  3.894866
C    -1.806406  -4.189053  4.401106
H    -1.098592  -2.179593  4.174319
H    -1.848007  -4.196212  5.498139
H    -0.902458  -4.724719  4.076817
H    -2.686025  -4.707129  4.005657
