35
Energy: -21190.4883434 eV PBE+vdW (tier 2 basis)
C    0.507811  -0.108155  0.257734
C    0.571588  0.178268  1.744909
O    1.435793  0.908621  2.240520
H    0.295692  0.828017  -0.275290
H    -0.252962  -0.854337  -0.001038
H    1.491891  -0.459341  -0.075165
N    -0.413564  -0.410951  2.483628
C    -0.414551  -0.273712  3.926087
C    0.447439  -1.382592  4.562107
O    0.336962  -2.566579  4.231884
H    -1.002797  -1.133129  2.047070
H    0.077077  0.689727  4.102481
C    -1.848349  -0.195899  4.532397
C    -2.408360  -1.369929  5.354083
C    -2.785513  -2.666635  4.615348
N    -3.675565  -2.480748  3.479690
C    -3.220747  -2.397838  2.177475
N    -4.156612  -1.846212  1.299411
N    -2.058288  -2.729397  1.715077
H    -2.534228  0.042913  3.705973
H    -1.870303  0.683587  5.191729
H    -3.307173  -0.992907  5.870487
H    -1.704017  -1.642795  6.156098
H    -3.266372  -3.350595  5.331195
H    -1.878080  -3.170437  4.266156
H    -4.526087  -1.960500  3.671755
H    -3.894162  -2.017901  0.333447
H    -5.125557  -2.090746  1.481450
H    -1.434281  -3.078111  2.448321
N    1.325203  -0.996285  5.528887
C    1.713983  0.364691  5.880510
H    1.889775  -1.760642  5.887379
H    2.537213  0.308952  6.600585
H    0.891657  0.913773  6.361195
H    2.058743  0.926476  5.000842
