35
Energy: -21190.5001675 eV PBE+vdW (tier 2 basis)
C    1.845865  -1.800834  1.568245
C    1.160058  -1.100932  2.725025
O    1.637501  -1.133883  3.866624
H    1.882228  -2.876220  1.784619
H    2.881489  -1.445772  1.504512
H    1.353363  -1.651193  0.599805
N    0.006834  -0.446372  2.417453
C    -0.925854  0.209485  3.351084
C    -0.419217  1.535998  3.972024
O    -1.141696  2.533962  3.941182
H    -0.269985  -0.446391  1.444124
H    -1.768745  0.531720  2.726270
C    -1.470493  -0.731674  4.440638
C    -2.223709  -1.942163  3.887350
C    -2.903949  -2.772999  4.977057
N    -3.947874  -2.014804  5.651491
C    -4.305839  -2.310606  6.955588
N    -5.420832  -1.563156  7.373718
N    -3.666923  -3.199840  7.634862
H    -2.147671  -0.134295  5.068074
H    -0.650235  -1.068670  5.089025
H    -1.534360  -2.601518  3.338360
H    -2.977481  -1.609432  3.150560
H    -2.186768  -3.072640  5.751854
H    -3.302820  -3.708461  4.545873
H    -4.717139  -1.707213  5.064395
H    -5.608929  -1.640608  8.367565
H    -5.416370  -0.591961  7.070179
H    -3.975062  -3.209971  8.609946
N    0.799337  1.479525  4.561459
C    1.394690  2.620590  5.226804
H    1.284379  0.575061  4.547542
H    2.390972  2.836899  4.816866
H    1.492540  2.445111  6.308205
H    0.743748  3.486848  5.067828
