35
Energy: -21190.4453936 eV PBE+vdW (tier 2 basis)
C    -1.068805  1.409277  0.878921
C    -0.733708  0.996347  2.297908
O    0.382177  1.223619  2.781975
H    -2.113360  1.230670  0.596393
H    -0.416806  0.852136  0.193794
H    -0.838262  2.474170  0.756654
N    -1.733524  0.370295  2.980117
C    -1.652296  -0.252157  4.312194
C    -1.511164  0.750148  5.489580
O    -2.326833  0.721998  6.413347
H    -2.620495  0.275971  2.501954
H    -2.643723  -0.689803  4.483806
C    -0.604864  -1.382180  4.358693
C    -0.528368  -2.063805  5.726654
C    0.400680  -3.285211  5.752055
N    1.797968  -2.991406  5.429563
C    2.336024  -3.051300  4.146280
N    1.798516  -4.060894  3.342550
N    3.259611  -2.294453  3.659194
H    0.377169  -0.980848  4.076020
H    -0.871271  -2.120119  3.585892
H    -1.530896  -2.388740  6.050268
H    -0.194625  -1.340104  6.488136
H    0.041892  -4.037264  5.038393
H    0.361713  -3.748285  6.750026
H    2.199120  -2.235423  5.976802
H    2.333106  -4.136848  2.481789
H    1.684217  -4.960234  3.802947
H    3.455233  -1.499125  4.273747
N    -0.430712  1.566008  5.436363
C    -0.158935  2.559702  6.455453
H    0.131290  1.534639  4.575719
H    0.886795  2.497067  6.785542
H    -0.819883  2.368580  7.307631
H    -0.346647  3.579273  6.086385
