35
Energy: -21190.3313533 eV PBE+vdW (tier 2 basis)
C    -2.823603  0.523358  -0.194950
C    -2.041810  0.698025  1.094270
O    -0.977127  1.304239  1.140853
H    -3.001109  1.512120  -0.634532
H    -3.785615  0.011584  -0.067451
H    -2.207767  -0.043946  -0.904220
N    -2.620565  0.137583  2.211463
C    -1.902283  0.060278  3.487591
C    -2.527542  -1.009158  4.385818
O    -1.835321  -1.823147  4.999035
H    -3.369793  -0.528480  2.058282
H    -0.871437  -0.272509  3.297861
C    -1.832541  1.438495  4.191663
C    -1.030627  1.438837  5.502410
C    -1.862039  1.114219  6.760056
N    -1.107736  1.020564  7.993884
C    -0.232803  -0.014714  8.307892
N    -0.542852  -1.255497  7.763845
N    0.717282  0.243322  9.146992
H    -2.856671  1.812589  4.362565
H    -1.368233  2.119568  3.468330
H    -0.574001  2.429311  5.643679
H    -0.191173  0.730324  5.427476
H    -2.428721  0.181516  6.629793
H    -2.623071  1.897949  6.899213
H    -0.755394  1.893889  8.374126
H    -1.029141  -1.315650  6.870251
H    0.207976  -1.931160  7.833782
H    1.243804  -0.601742  9.380660
N    -3.889083  -0.982125  4.481881
C    -4.611822  -1.852859  5.395514
H    -4.376337  -0.177961  4.100193
H    -4.078920  -2.806537  5.462431
H    -5.625005  -2.025972  5.016154
H    -4.673711  -1.425088  6.407846
