35
Energy: -21190.4435533 eV PBE+vdW (tier 2 basis)
C    -0.507907  -0.843964  1.334477
C    0.274309  0.087930  2.244717
O    1.467937  -0.085375  2.483539
H    0.180049  -1.617141  0.982622
H    -0.932320  -0.312555  0.472342
H    -1.347085  -1.316023  1.863795
N    -0.405592  1.146123  2.791793
C    -1.830404  1.453340  2.702191
C    -1.933650  2.981137  2.534476
O    -1.787315  3.732169  3.500564
H    0.145954  1.711628  3.434154
H    -2.225465  0.946451  1.814794
C    -2.600562  0.977849  3.945706
C    -4.094456  1.322204  3.957190
C    -4.890711  0.849476  2.734284
N    -4.783991  -0.583711  2.490531
C    -4.352962  -1.095446  1.287761
N    -4.483251  -2.488097  1.215309
N    -3.909820  -0.322996  0.348874
H    -2.129907  1.422110  4.833823
H    -2.462522  -0.111410  4.015860
H    -4.222575  2.412301  4.040668
H    -4.539695  0.895912  4.870418
H    -4.546984  1.342979  1.817563
H    -5.949915  1.125859  2.859079
H    -5.391705  -1.186084  3.032581
H    -4.316260  -2.989051  2.084198
H    -3.986807  -2.909414  0.438013
H    -3.564764  -0.872073  -0.440722
N    -2.171084  3.461098  1.280983
C    -2.171750  2.724394  0.022658
H    -2.126957  4.475296  1.233729
H    -2.567061  3.382571  -0.759013
H    -2.821058  1.839550  0.072276
H    -1.157951  2.410775  -0.273996
