35
Energy: -21190.356856 eV PBE+vdW (tier 2 basis)
C    0.400343  -1.364458  0.631949
C    1.241839  -0.113102  0.814599
O    2.468451  -0.168626  0.880260
H    -0.501714  -1.205055  0.026646
H    0.083609  -1.744170  1.613543
H    1.027891  -2.126754  0.161444
N    0.589577  1.086753  0.912887
C    -0.829618  1.376954  0.903375
C    -0.954531  2.896380  0.664093
O    -0.023309  3.665570  0.897616
H    1.183702  1.911141  1.010337
H    -1.310361  0.855962  0.056979
C    -1.592751  0.976349  2.195958
C    -1.257916  1.754852  3.472961
C    0.138360  1.477012  4.055362
N    0.325309  2.005930  5.398486
C    -0.245276  1.384404  6.491031
N    -0.044648  2.108624  7.679478
N    -0.899656  0.279508  6.357977
H    -1.430093  -0.097422  2.370174
H    -2.670348  1.081407  1.990369
H    -1.990034  1.463757  4.238936
H    -1.378119  2.837434  3.304957
H    0.927559  1.902017  3.424070
H    0.304967  0.392850  4.108376
H    0.431942  3.011511  5.474776
H    -0.312194  1.595915  8.512992
H    0.883668  2.514009  7.774977
H    -1.146058  -0.113544  7.269152
N    -2.173272  3.306769  0.221325
C    -2.511804  4.703943  0.021110
H    -2.880436  2.603921  0.042406
H    -2.826626  4.888542  -1.014802
H    -1.614151  5.294375  0.230654
H    -3.315145  5.021528  0.700619
