35
Energy: -21190.6258042 eV PBE+vdW (tier 2 basis)
C    -1.849732  -1.760292  0.417449
C    -0.715719  -0.806056  0.765499
O    0.455892  -1.179481  0.797223
H    -2.355376  -1.455899  -0.510404
H    -2.611782  -1.807281  1.207919
H    -1.419505  -2.755090  0.275846
N    -1.056915  0.492224  1.025552
C    -2.380938  1.085690  1.052767
C    -2.180416  2.571864  0.685674
O    -1.169180  3.176369  1.054986
H    -0.293427  1.140607  1.219305
H    -3.012037  0.611906  0.286007
C    -3.077500  0.907272  2.435282
C    -4.611532  0.867877  2.379937
C    -5.307544  2.241026  2.396920
N    -6.671308  2.216232  1.878499
C    -6.907142  2.115748  0.526400
N    -8.250695  1.890528  0.220977
N    -5.940402  2.195320  -0.336015
H    -2.716017  1.683392  3.128457
H    -2.715573  -0.046153  2.843554
H    -4.989927  0.273218  3.225472
H    -4.917780  0.335690  1.466326
H    -4.749978  2.971985  1.803029
H    -5.349350  2.635510  3.421741
H    -7.360593  1.758131  2.465550
H    -8.482923  1.993283  -0.760445
H    -8.922686  2.356361  0.824287
H    -6.300957  2.200374  -1.291932
N    -3.168833  3.137491  -0.040078
C    -3.144576  4.555167  -0.353570
H    -4.056734  2.634546  -0.206110
H    -4.123224  4.833259  -0.759947
H    -2.368445  4.787546  -1.096115
H    -2.936786  5.157366  0.542236
