35
Energy: -21189.9742761 eV PBE+vdW (tier 2 basis)
C    -0.442595  0.938605  1.357486
C    -1.236309  1.326155  2.586717
O    -1.111988  2.451718  3.091736
H    0.141903  0.025916  1.527665
H    0.229584  1.765958  1.115872
H    -1.100414  0.764884  0.494532
N    -2.062186  0.405353  3.159872
C    -2.719296  -0.753398  2.556749
C    -1.675194  -1.800173  2.076017
O    -0.899102  -2.254120  2.912366
H    -2.600533  0.781249  3.950594
H    -3.150028  -1.293221  3.416358
C    -3.902454  -0.344991  1.658807
C    -5.104273  0.281412  2.393421
C    -4.915251  1.633798  3.100132
N    -4.419693  1.472238  4.482803
C    -4.184550  2.635733  5.271887
N    -3.379644  3.565551  4.655378
N    -4.648953  2.833923  6.458361
H    -3.562333  0.351928  0.877969
H    -4.280830  -1.239340  1.142374
H    -5.897962  0.415891  1.643564
H    -5.510384  -0.447932  3.116086
H    -5.879212  2.172644  3.102402
H    -4.207986  2.265553  2.548004
H    -5.024784  0.840446  5.005510
H    -2.583565  3.213520  4.105752
H    -3.141492  4.329685  5.278959
H    -5.336185  2.119648  6.714819
N    -1.634956  -2.278573  0.791159
C    -2.250685  -1.848733  -0.455236
H    -0.927338  -3.003558  0.714430
H    -2.243080  -0.758518  -0.568879
H    -1.662421  -2.265401  -1.280255
H    -3.284763  -2.205291  -0.566894
