35
Energy: -21190.5276256 eV PBE+vdW (tier 2 basis)
C    0.811635  1.068319  -0.201016
C    1.281626  1.183899  1.232895
O    2.000814  2.117123  1.616392
H    0.013022  1.806202  -0.363256
H    0.422192  0.074432  -0.452321
H    1.641233  1.319315  -0.870717
N    0.837925  0.220363  2.078219
C    1.124351  0.229657  3.496431
C    0.720396  -1.152590  4.031969
O    0.009578  -1.919556  3.382335
H    0.261537  -0.559579  1.764968
H    2.212447  0.356406  3.628178
C    0.404182  1.387004  4.255731
C    1.363296  2.392196  4.914668
C    0.861633  3.840538  4.835231
N    0.781772  4.306729  3.451159
C    -0.409096  4.500693  2.762041
N    -1.495826  4.883098  3.557462
N    -0.582198  4.359463  1.489931
H    -0.289047  0.975242  5.002848
H    -0.220566  1.904501  3.517283
H    2.339314  2.346200  4.406173
H    1.548285  2.135043  5.970331
H    1.539169  4.490655  5.413153
H    -0.134492  3.923448  5.290110
H    1.492913  3.894543  2.846364
H    -2.275408  5.154015  2.964492
H    -1.285192  5.593295  4.253998
H    0.259529  3.960561  1.063761
N    1.192633  -1.435058  5.275976
C    0.857795  -2.651763  5.992773
H    1.777185  -0.744417  5.732498
H    0.260830  -3.277408  5.321579
H    0.268990  -2.436135  6.895628
H    1.764543  -3.200436  6.280735
