35
Energy: -21190.2988791 eV PBE+vdW (tier 2 basis)
C    0.190875  1.626904  0.370150
C    -0.087001  0.851611  1.641633
O    0.653070  0.895730  2.622464
H    1.273344  1.701505  0.226372
H    -0.206719  2.644640  0.489919
H    -0.267554  1.176853  -0.519533
N    -1.224387  0.084898  1.617895
C    -1.803740  -0.504170  2.827818
C    -1.824832  0.567709  3.953828
O    -2.307122  1.673710  3.728837
H    -1.854487  0.221658  0.836276
H    -2.873316  -0.623260  2.596594
C    -1.296576  -1.921815  3.167846
C    0.211231  -2.150303  3.390350
C    1.035452  -2.460444  2.127219
N    0.622665  -3.646524  1.399081
C    -0.193491  -3.633921  0.278727
N    -0.482324  -4.927777  -0.176982
N    -0.697119  -2.620615  -0.339532
H    -1.640816  -2.593230  2.367178
H    -1.853069  -2.244711  4.061600
H    0.332297  -3.000040  4.082350
H    0.681107  -1.278437  3.868723
H    2.088575  -2.582322  2.423738
H    1.018748  -1.614409  1.431127
H    0.646371  -4.522899  1.909551
H    -0.974182  -4.885318  -1.065153
H    0.321248  -5.549578  -0.221453
H    -0.532986  -1.753405  0.176451
N    -1.394690  0.179472  5.185807
C    -1.320571  1.125500  6.284917
H    -0.832320  -0.659789  5.246464
H    -1.360832  0.585850  7.238255
H    -2.173879  1.808040  6.216766
H    -0.399266  1.727200  6.246521
