35
Energy: -21190.2302669 eV PBE+vdW (tier 2 basis)
C    -0.761684  0.416162  0.177541
C    -0.154851  -0.283540  1.382525
O    1.014331  -0.093585  1.721938
H    0.028467  0.989309  -0.313926
H    -1.570452  1.100767  0.471571
H    -1.191536  -0.298491  -0.538342
N    -0.966806  -1.131033  2.089170
C    -2.375908  -1.383509  1.840580
C    -3.375778  -0.232478  2.113165
O    -4.471321  -0.276653  1.551077
H    -0.485855  -1.644948  2.846016
H    -2.528351  -1.579784  0.767957
C    -2.849516  -2.646636  2.591459
C    -3.114107  -2.471413  4.099879
C    -2.745750  -3.700824  4.939955
N    -1.300459  -4.001098  4.920105
C    -0.411296  -2.975586  5.262670
N    -0.593982  -2.484249  6.545610
N    0.434942  -2.561949  4.378692
H    -2.080157  -3.413857  2.414295
H    -3.764353  -3.002031  2.101306
H    -4.172100  -2.220792  4.264042
H    -2.542265  -1.622367  4.501670
H    -3.262844  -4.601318  4.579152
H    -3.067869  -3.551187  5.979323
H    -1.003926  -4.364658  4.016165
H    0.106281  -1.831299  6.875912
H    -0.901331  -3.153466  7.244057
H    1.137084  -1.921660  4.760818
N    -3.079472  0.796227  2.964330
C    -1.905649  1.104300  3.774004
H    -3.846952  1.460346  3.005813
H    -2.205768  1.847224  4.522414
H    -1.077626  1.523018  3.185202
H    -1.529510  0.225100  4.307954
