35
Energy: -21190.580457 eV PBE+vdW (tier 2 basis)
C    1.409819  -2.094501  5.784004
C    0.519080  -1.503889  4.712040
O    0.772698  -1.633180  3.507878
H    2.417096  -1.672316  5.680113
H    1.490223  -3.175762  5.616991
H    1.049876  -1.916412  6.804537
N    -0.579695  -0.828589  5.151486
C    -1.550581  -0.229805  4.235855
C    -1.061173  1.177736  3.799982
O    -1.496436  2.214560  4.298024
H    -0.706337  -0.677623  6.146088
H    -1.549805  -0.881285  3.349927
C    -2.936462  -0.201076  4.875490
C    -4.062448  0.268198  3.946740
C    -4.205007  -0.531097  2.641339
N    -4.289530  -1.972887  2.832566
C    -5.470757  -2.601329  3.210166
N    -5.340780  -3.994429  3.237903
N    -6.603823  -2.063680  3.503036
H    -2.911716  0.466408  5.750072
H    -3.158890  -1.216885  5.233947
H    -3.913716  1.325447  3.685333
H    -5.003964  0.217078  4.511862
H    -3.336705  -0.348948  1.993427
H    -5.080789  -0.154306  2.082425
H    -3.691634  -2.532974  2.235337
H    -4.486813  -4.334472  3.671736
H    -6.171292  -4.425584  3.633247
H    -6.607541  -1.059627  3.310110
N    -0.107516  1.125656  2.830397
C    0.589713  2.309308  2.365347
H    0.283122  0.201544  2.633045
H    0.716224  2.273524  1.275926
H    1.581655  2.409890  2.832158
H    -0.009096  3.186306  2.632465
