35
Energy: -21190.2396114 eV PBE+vdW (tier 2 basis)
C    0.782079  -1.010598  0.393435
C    0.465593  -1.255192  1.857757
O    1.091122  -2.055527  2.546236
H    1.784661  -0.570047  0.320540
H    0.068149  -0.348718  -0.112677
H    0.811618  -1.974887  -0.127622
N    -0.578897  -0.529003  2.367069
C    -0.950605  -0.576023  3.773829
C    -1.267548  -1.977088  4.333718
O    -0.916076  -2.234144  5.490205
H    -1.055083  0.136306  1.769240
H    -0.086409  -0.273099  4.383956
C    -2.098822  0.427054  4.021839
C    -2.631107  0.454666  5.463991
C    -3.830842  -0.484654  5.690988
N    -4.160061  -0.661966  7.091328
C    -4.132270  -1.870617  7.770575
N    -3.295954  -2.838975  7.221421
N    -4.894586  -1.994971  8.808690
H    -2.928165  0.215908  3.323847
H    -1.712001  1.419843  3.745890
H    -1.833260  0.180108  6.167346
H    -2.932399  1.480156  5.722026
H    -3.633368  -1.473013  5.257169
H    -4.707108  -0.087493  5.148796
H    -4.848369  -0.038001  7.497360
H    -3.163351  -3.641821  7.824900
H    -2.424823  -2.541507  6.771943
H    -4.708892  -2.872858  9.299182
N    -2.003009  -2.871594  3.619967
C    -2.547699  -2.793320  2.275237
H    -2.126443  -3.747222  4.119672
H    -1.791481  -2.996189  1.502440
H    -2.998012  -1.814163  2.078662
H    -3.342117  -3.543193  2.186221
