35
Energy: -21190.6096554 eV PBE+vdW (tier 2 basis)
C    1.154667  -2.058368  0.663087
C    0.313732  -0.867927  1.083366
O    0.214257  0.145674  0.391649
H    2.185218  -1.720431  0.498695
H    0.777761  -2.435560  -0.295801
H    1.155637  -2.876632  1.393374
N    -0.337470  -1.003131  2.276515
C    -1.100306  0.077876  2.863095
C    -1.126242  -0.166173  4.376903
O    -0.833621  -1.276321  4.845698
H    -0.149140  -1.781153  2.905498
H    -0.576085  1.023674  2.646165
C    -2.518128  0.202852  2.242763
C    -3.480383  -0.988780  2.396961
C    -4.373084  -1.006836  3.648658
N    -3.791293  -1.720508  4.772615
C    -4.350472  -1.627071  6.034131
N    -3.567776  -2.228749  7.024787
N    -5.452758  -1.045927  6.376813
H    -2.341439  0.387788  1.174563
H    -2.998193  1.115702  2.630975
H    -2.931548  -1.940224  2.313084
H    -4.153219  -0.968283  1.528697
H    -5.333426  -1.483931  3.393686
H    -4.612250  0.038690  3.929394
H    -2.782485  -1.862305  4.754291
H    -3.079553  -3.072213  6.739093
H    -4.096943  -2.351975  7.882442
H    -5.882007  -0.561990  5.585885
N    -1.545017  0.875293  5.127981
C    -1.797498  0.791701  6.558455
H    -1.761101  1.743124  4.650656
H    -1.177777  1.514426  7.105445
H    -1.554377  -0.222181  6.887941
H    -2.857684  0.977872  6.776440
