35
Energy: -21190.3986327 eV PBE+vdW (tier 2 basis)
C    0.043983  0.746657  0.059121
C    0.139963  0.916909  1.562888
O    1.211526  0.915529  2.162110
H    1.059479  0.723434  -0.343882
H    -0.519747  1.562110  -0.414296
H    -0.461157  -0.195207  -0.199062
N    -1.044510  1.090534  2.248318
C    -2.402438  1.052933  1.721472
C    -2.921520  2.403329  1.168487
O    -4.001130  2.455286  0.582831
H    -0.923528  1.122374  3.257545
H    -2.431512  0.368963  0.861298
C    -3.392297  0.511756  2.768886
C    -3.565213  1.395150  4.007718
C    -4.573621  0.799605  4.988782
N    -4.743745  1.657193  6.152475
C    -5.210042  1.121491  7.343800
N    -5.480732  2.118944  8.295577
N    -5.378232  -0.148355  7.478678
H    -3.065084  -0.497495  3.062676
H    -4.361159  0.402345  2.262800
H    -3.897735  2.398654  3.693347
H    -2.612260  1.536969  4.543584
H    -4.234882  -0.174608  5.363312
H    -5.536411  0.615664  4.477403
H    -5.094457  2.589683  5.953848
H    -5.662630  1.754266  9.224530
H    -4.804719  2.878843  8.317920
H    -5.610967  -0.389807  8.444786
N    -2.116465  3.475425  1.389279
C    -2.447375  4.812859  0.940604
H    -1.244232  3.302999  1.878073
H    -1.688101  5.198412  0.246143
H    -2.534545  5.506654  1.788433
H    -3.411270  4.759560  0.422790
