35
Energy: -21190.0352028 eV PBE+vdW (tier 2 basis)
C    0.558098  -1.758018  3.292755
C    0.191934  -0.411401  3.883575
O    0.971300  0.246590  4.570431
H    -0.153798  -2.541032  3.588415
H    0.562689  -1.723445  2.193777
H    1.556772  -2.024571  3.647074
N    -1.068254  0.065187  3.610684
C    -2.074383  -0.518269  2.739942
C    -1.812674  -0.477810  1.212322
O    -2.373536  -1.320498  0.513009
H    -1.245637  0.977684  4.020180
H    -2.125822  -1.598010  2.939746
C    -3.474075  0.045081  3.049847
C    -3.677548  1.529396  2.727346
C    -5.088425  2.029007  3.050608
N    -6.078832  1.356531  2.229814
C    -7.450441  1.519389  2.355428
N    -7.893737  1.857217  3.636811
N    -8.190233  1.259866  1.331079
H    -3.680573  -0.135693  4.116581
H    -4.198473  -0.553472  2.483658
H    -3.468352  1.716239  1.660813
H    -2.974515  2.161868  3.292772
H    -5.113266  3.130512  2.928480
H    -5.294639  1.813246  4.112095
H    -5.831348  1.218156  1.253501
H    -8.847465  2.197589  3.663827
H    -7.270470  2.406430  4.219221
H    -9.184951  1.334307  1.555408
N    -0.987557  0.455257  0.647182
C    -0.277044  1.602652  1.200809
H    -0.923285  0.320179  -0.357462
H    0.077614  2.208373  0.359389
H    0.593534  1.316655  1.805314
H    -0.929017  2.241523  1.808743
