35
Energy: -21190.6055804 eV PBE+vdW (tier 2 basis)
C    -1.067948  -1.542143  0.466122
C    -0.578543  -0.631880  1.575390
O    0.412084  0.089016  1.447114
H    -0.295686  -2.294444  0.260158
H    -1.197697  -0.948636  -0.446761
H    -2.010301  -2.050054  0.705223
N    -1.321341  -0.678339  2.722811
C    -0.978742  0.121243  3.875989
C    -0.725481  -0.779577  5.097032
O    -1.398838  -1.782338  5.359203
H    -2.128834  -1.306197  2.788442
H    -0.028045  0.604584  3.603053
C    -2.011223  1.259205  4.157827
C    -3.485965  0.905738  3.927384
C    -4.120615  -0.023108  4.984793
N    -5.217124  -0.851003  4.493506
C    -5.047906  -1.905295  3.603046
N    -3.748725  -2.421049  3.529298
N    -5.958398  -2.431663  2.855027
H    -1.750362  2.086308  3.482203
H    -1.853426  1.636450  5.181318
H    -3.582365  0.432722  2.939654
H    -4.064678  1.839777  3.865861
H    -4.510728  0.568758  5.824976
H    -3.360992  -0.682629  5.419709
H    -6.107305  -0.379203  4.379494
H    -3.175928  -2.400879  4.375979
H    -3.766381  -3.335644  3.086822
H    -6.843038  -1.922206  2.927466
N    0.295222  -0.357167  5.889033
C    0.683650  -1.030623  7.114446
H    0.853073  0.423473  5.563761
H    1.677435  -1.490069  7.019292
H    -0.051297  -1.818551  7.307597
H    0.694450  -0.329577  7.959730
