35
Energy: -21190.0720289 eV PBE+vdW (tier 2 basis)
C    0.229142  -0.492491  1.047073
C    -0.081037  -0.356327  2.521772
O    0.778776  -0.526753  3.382895
H    0.238055  0.492246  0.559070
H    -0.501675  -1.133370  0.541816
H    1.228389  -0.927823  0.961517
N    -1.353390  0.014400  2.924460
C    -2.622400  0.161290  2.223888
C    -3.225445  -1.192416  1.779448
O    -2.531175  -2.114785  1.364026
H    -1.413919  0.006417  3.938305
H    -3.293887  0.597815  2.976761
C    -2.601382  1.128551  1.015813
C    -1.990797  2.503296  1.303201
C    -2.701886  3.285888  2.419527
N    -2.269099  4.663877  2.564368
C    -2.697943  5.662003  1.695040
N    -2.017231  6.866320  1.897058
N    -3.602466  5.593952  0.779153
H    -3.641726  1.253415  0.674545
H    -2.072589  0.654474  0.179051
H    -2.020264  3.096471  0.377431
H    -0.929074  2.396619  1.570994
H    -2.543885  2.792093  3.389458
H    -3.791056  3.291459  2.250158
H    -1.322363  4.786498  2.911091
H    -2.438794  7.612715  1.351840
H    -1.891012  7.127936  2.871270
H    -3.928971  4.636226  0.634880
N    -4.589139  -1.297775  1.833629
C    -5.553367  -0.351945  2.372704
H    -4.933014  -2.194722  1.504930
H    -5.413575  -0.177556  3.450409
H    -6.557010  -0.766933  2.233211
H    -5.525121  0.616742  1.852942
