35
Energy: -21190.1631467 eV PBE+vdW (tier 2 basis)
C    -0.864736  0.131123  0.347270
C    -1.199235  0.076958  1.826490
O    -1.260155  1.077791  2.533167
H    0.217432  -0.034277  0.233500
H    -1.111727  1.123804  -0.039787
H    -1.390691  -0.635183  -0.237637
N    -1.420873  -1.191474  2.312118
C    -1.363063  -1.558618  3.729758
C    -1.925764  -0.487455  4.698124
O    -1.260528  -0.080837  5.646121
H    -1.217278  -1.951429  1.670244
H    -2.037853  -2.425705  3.845984
C    0.050249  -2.018960  4.136557
C    1.167519  -1.020345  3.836544
C    2.577387  -1.620035  3.919330
N    2.819334  -2.803397  3.096104
C    2.806485  -2.775419  1.720174
N    3.012789  -4.054251  1.165063
N    2.590403  -1.681651  1.065773
H    0.242066  -2.957224  3.588129
H    0.030952  -2.269682  5.207369
H    1.103466  -0.173033  4.531398
H    1.051924  -0.615916  2.824903
H    2.816959  -1.911941  4.952455
H    3.303484  -0.851234  3.621171
H    2.595588  -3.698950  3.512252
H    3.153366  -4.035150  0.160329
H    3.735085  -4.602288  1.627158
H    2.759203  -1.820486  0.066310
N    -3.248080  -0.153423  4.573626
C    -4.150673  -0.412851  3.467553
H    -3.507121  0.589558  5.215748
H    -3.985496  0.265813  2.615989
H    -5.181339  -0.287810  3.821033
H    -4.046333  -1.444632  3.112060
