35
Energy: -21190.4353859 eV PBE+vdW (tier 2 basis)
C    0.347286  1.185702  0.602434
C    0.030919  0.024293  1.526899
O    0.675404  -1.021597  1.514586
H    1.413661  1.425574  0.687059
H    -0.243011  2.088077  0.805118
H    0.162593  0.867793  -0.431827
N    -1.024652  0.221428  2.378367
C    -1.527312  -0.846011  3.242527
C    -3.043038  -0.629207  3.450640
O    -3.865455  -1.206768  2.744920
H    -1.563372  1.076305  2.306563
H    -1.442581  -1.784346  2.677099
C    -0.706601  -0.972553  4.536623
C    -1.185663  -2.116318  5.436741
C    -0.722255  -1.988582  6.899021
N    -1.087548  -0.734168  7.551126
C    -2.410188  -0.367995  7.758310
N    -2.566784  1.015696  7.946521
N    -3.460751  -1.112286  7.763068
H    -0.743441  -0.010867  5.076296
H    0.345266  -1.118449  4.252168
H    -0.828856  -3.079149  5.041530
H    -2.284561  -2.168875  5.416668
H    0.372268  -2.066114  6.962056
H    -1.122272  -2.824291  7.492533
H    -0.470505  0.042322  7.337646
H    -3.497035  1.215912  8.305381
H    -1.849862  1.450330  8.523082
H    -3.247555  -2.080383  7.516036
N    -3.379709  0.270490  4.421646
C    -4.756244  0.504024  4.825916
H    -2.654855  0.595616  5.052256
H    -4.977049  1.579624  4.844264
H    -4.939498  0.076535  5.822346
H    -5.406447  0.014901  4.093670
