35
Energy: -21190.43203 eV PBE+vdW (tier 2 basis)
C    -1.710392  -0.964661  0.244655
C    -1.102709  -0.617873  1.590569
O    -0.084014  -1.199221  1.991103
H    -2.037508  -2.012068  0.271480
H    -0.932883  -0.884379  -0.524378
H    -2.563776  -0.336724  -0.038256
N    -1.745803  0.358402  2.283708
C    -1.528461  0.867349  3.655846
C    -0.175642  1.558697  3.947491
O    -0.159986  2.518132  4.720932
H    -2.552296  0.757569  1.819905
H    -2.241447  1.696739  3.737019
C    -1.909210  -0.143161  4.766430
C    -0.833847  -1.148814  5.191198
C    -1.369092  -2.242225  6.123934
N    -2.257130  -3.191633  5.464487
C    -3.630095  -3.124127  5.582634
N    -4.275520  -4.062010  4.753376
N    -4.198789  -2.258226  6.351538
H    -2.815357  -0.669208  4.434023
H    -2.209192  0.444512  5.645571
H    -0.020533  -0.620324  5.713378
H    -0.375045  -1.620618  4.310055
H    -1.940546  -1.810056  6.955125
H    -0.521193  -2.799159  6.551878
H    -1.914892  -3.590157  4.596360
H    -5.265206  -4.157714  4.955614
H    -3.819662  -4.971134  4.713510
H    -5.206580  -2.419573  6.406355
N    0.925255  1.041003  3.354774
C    2.248670  1.565231  3.630929
H    0.817139  0.154891  2.847385
H    2.188336  2.650822  3.767315
H    2.911971  1.338467  2.788339
H    2.681074  1.134644  4.548238
