35
Energy: -21190.4372543 eV PBE+vdW (tier 2 basis)
C    -1.614441  -1.817748  0.435305
C    -1.211994  -0.654357  1.322466
O    -1.004094  0.474323  0.879807
H    -0.892514  -1.903464  -0.385300
H    -2.592202  -1.597202  -0.012840
H    -1.674996  -2.775565  0.966585
N    -1.137127  -0.940784  2.657737
C    -0.667456  0.024094  3.631528
C    -0.231909  -0.798798  4.863483
O    -0.390795  -2.020388  4.910867
H    -1.111398  -1.903618  2.998215
H    0.235336  0.517615  3.229652
C    -1.693870  1.155109  3.932159
C    -3.163568  0.729652  3.975640
C    -3.525574  -0.307875  5.052509
N    -4.909828  -0.751545  5.013890
C    -5.421240  -1.676007  4.110238
N    -4.464372  -2.381409  3.382746
N    -6.667153  -1.981433  3.958787
H    -1.578740  1.909823  3.143948
H    -1.416312  1.644214  4.879756
H    -3.453926  0.346921  2.985958
H    -3.776972  1.630965  4.131268
H    -3.333721  0.111645  6.052581
H    -2.889585  -1.200044  4.977725
H    -5.602154  -0.102835  5.368352
H    -3.673897  -1.853433  3.024551
H    -4.910409  -2.961250  2.679172
H    -7.255879  -1.493327  4.639157
N    0.345255  -0.084793  5.863624
C    0.823229  -0.690392  7.093442
H    0.469828  0.911945  5.732935
H    0.334388  -0.241841  7.968877
H    1.911408  -0.577498  7.195272
H    0.579681  -1.756699  7.054905
