35
Energy: -21190.3497379 eV PBE+vdW (tier 2 basis)
C    -0.512630  0.792369  0.473471
C    -0.682524  1.212619  1.921318
O    0.227704  1.723490  2.569545
H    -1.165445  1.368110  -0.197594
H    -0.754098  -0.267517  0.316727
H    0.529211  0.972989  0.196784
N    -1.915778  1.008805  2.496786
C    -3.083672  0.346583  1.921790
C    -4.333220  1.172599  2.298860
O    -5.139381  0.780636  3.144446
H    -1.949357  1.249428  3.484990
H    -2.965247  0.384266  0.832661
C    -3.181484  -1.110887  2.407692
C    -4.337094  -1.980576  1.891006
C    -4.324569  -2.340869  0.400120
N    -4.714824  -1.241351  -0.484078
C    -3.865929  -0.505926  -1.287944
N    -2.700246  -1.166035  -1.679782
N    -4.043641  0.717482  -1.674694
H    -3.246392  -1.084580  3.505087
H    -2.220884  -1.590842  2.161897
H    -5.297818  -1.511921  2.151908
H    -4.309274  -2.928485  2.451211
H    -5.006652  -3.189898  0.233228
H    -3.321491  -2.674766  0.104973
H    -5.530113  -0.719917  -0.177838
H    -2.210931  -0.623015  -2.385368
H    -2.819676  -2.136485  -1.955757
H    -4.868063  1.124915  -1.223405
N    -4.502605  2.369799  1.662876
C    -3.576626  3.071983  0.782694
H    -5.284084  2.898963  2.039006
H    -2.704477  3.467905  1.323145
H    -4.112365  3.908445  0.320611
H    -3.235496  2.419256  -0.030680
