35
Energy: -21190.4311303 eV PBE+vdW (tier 2 basis)
C    0.154932  -0.294981  -0.335230
C    -0.004167  0.421192  0.992556
O    0.254612  1.617132  1.131027
H    -0.105860  -1.359486  -0.295123
H    1.194954  -0.191036  -0.668292
H    -0.477952  0.200715  -1.081886
N    -0.468009  -0.348597  2.020803
C    -0.571471  0.154674  3.373494
C    -0.486246  -1.068746  4.301508
O    -0.617463  -2.215713  3.868457
H    -0.545617  -1.361477  1.941893
H    0.288779  0.819060  3.560475
C    -1.852601  1.005112  3.587699
C    -3.187883  0.276257  3.390523
C    -3.683254  -0.487298  4.618674
N    -4.989200  -1.090762  4.341339
C    -5.643930  -1.906215  5.263673
N    -5.415868  -1.559688  6.596554
N    -6.412283  -2.907604  5.001553
H    -1.774693  1.833876  2.871771
H    -1.816517  1.466611  4.588414
H    -3.098334  -0.413750  2.534785
H    -3.957797  1.011024  3.111804
H    -3.780777  0.222148  5.455094
H    -2.955347  -1.254037  4.930468
H    -5.066737  -1.456155  3.396400
H    -5.399831  -0.562636  6.791382
H    -6.052725  -2.064429  7.206296
H    -6.390255  -3.145382  4.006128
N    -0.277068  -0.787069  5.613727
C    -0.309737  -1.805097  6.649426
H    -0.207060  0.185181  5.889635
H    -1.290490  -1.847445  7.147536
H    0.466026  -1.606496  7.398378
H    -0.119131  -2.774884  6.179059
