35
Energy: -21190.5701466 eV PBE+vdW (tier 2 basis)
C    0.500118  -0.500167  0.343170
C    -0.084173  -1.066339  1.617770
O    0.201613  -2.191834  2.046076
H    0.791472  -1.320680  -0.318715
H    1.395891  0.087273  0.598452
H    -0.198895  0.165265  -0.180248
N    -0.916155  -0.230202  2.301880
C    -1.326344  -0.467651  3.687553
C    -2.634370  -1.306731  3.738212
O    -3.696627  -0.859090  4.167489
H    -1.136342  0.673688  1.899055
H    -0.531117  -1.087337  4.135015
C    -1.455998  0.847054  4.457929
C    -0.127085  1.463885  4.918122
C    0.816986  1.860676  3.784165
N    2.014573  2.515717  4.283601
C    3.106176  2.651131  3.442304
N    4.120668  3.436062  4.011909
N    3.106140  2.113732  2.268725
H    -2.091971  0.652941  5.330985
H    -2.027207  1.568826  3.850030
H    0.395380  0.763227  5.588388
H    -0.360816  2.354080  5.526642
H    0.287212  2.501697  3.051870
H    1.162871  0.984237  3.227319
H    1.861010  3.302694  4.907335
H    4.992345  3.415718  3.493606
H    4.271164  3.280082  5.005726
H    4.023611  2.203682  1.825576
N    -2.456915  -2.568006  3.266193
C    -3.543591  -3.516956  3.136788
H    -1.530029  -2.793332  2.892545
H    -3.289503  -4.469007  3.622349
H    -3.782965  -3.715224  2.081247
H    -4.426947  -3.090555  3.624107
