35
Energy: -21190.5643256 eV PBE+vdW (tier 2 basis)
C    -1.038751  -0.214397  -0.370077
C    -0.819534  -0.060061  1.122316
O    0.262125  0.297813  1.589126
H    -0.806378  0.739426  -0.859287
H    -2.057993  -0.516715  -0.640215
H    -0.331193  -0.959854  -0.754022
N    -1.905481  -0.341869  1.905415
C    -1.881876  -0.254982  3.365174
C    -2.073195  -1.686701  3.905241
O    -3.214056  -2.132392  4.105027
H    -2.754085  -0.685186  1.468898
H    -0.886361  0.132089  3.613072
C    -2.964930  0.712288  3.867211
C    -2.781368  1.289487  5.278566
C    -2.875874  0.309686  6.451111
N    -1.669334  -0.511304  6.564344
C    -1.619588  -1.767818  7.171170
N    -2.783169  -2.512879  7.056138
N    -0.590363  -2.269834  7.774352
H    -3.941413  0.209236  3.795711
H    -2.980062  1.553922  3.159712
H    -3.558407  2.055375  5.425090
H    -1.821102  1.831245  5.335714
H    -3.736593  -0.355132  6.319531
H    -3.053518  0.874753  7.384536
H    -0.828112  0.027752  6.747859
H    -2.640351  -3.454432  7.407835
H    -3.232347  -2.488919  6.136638
H    0.138916  -1.564164  7.914334
N    -0.974713  -2.466122  4.055332
C    0.422307  -2.056111  4.088954
H    -1.191247  -3.379112  4.446764
H    0.625169  -1.284111  3.339115
H    1.045988  -2.925672  3.852082
H    0.709521  -1.690008  5.087113
