35
Energy: -21190.2917067 eV PBE+vdW (tier 2 basis)
C    -0.637683  0.949982  -0.147787
C    -0.060336  0.703442  1.236625
O    1.026314  1.182558  1.566571
H    -0.047732  1.739806  -0.620451
H    -1.693755  1.250920  -0.129069
H    -0.563539  0.035584  -0.752366
N    -0.755760  -0.098923  2.100377
C    -2.122670  -0.585714  2.017053
C    -2.382635  -1.388046  0.716564
O    -1.595990  -2.248576  0.337873
H    -0.340887  -0.181586  3.040000
H    -2.174228  -1.373112  2.786070
C    -3.170819  0.496436  2.389217
C    -2.815250  1.253394  3.676637
C    -2.851374  0.384403  4.950420
N    -1.963455  0.836846  6.009816
C    -0.616461  0.533324  5.960337
N    0.125728  1.058761  7.015894
N    -0.150563  -0.249338  5.040852
H    -4.160774  0.021606  2.500760
H    -3.253913  1.234669  1.574954
H    -3.496985  2.109356  3.794215
H    -1.804826  1.669773  3.566940
H    -2.545203  -0.644039  4.724492
H    -3.871604  0.336817  5.357702
H    -2.213675  1.705421  6.468384
H    1.100207  1.240583  6.807152
H    -0.303920  1.780767  7.584278
H    0.831108  -0.475881  5.210972
N    -3.550413  -1.111173  0.063222
C    -3.938933  -1.797062  -1.153802
H    -4.125349  -0.348750  0.397227
H    -4.962124  -2.188162  -1.074078
H    -3.243390  -2.630408  -1.298600
H    -3.878932  -1.133367  -2.029120
