35
Energy: -21190.1412221 eV PBE+vdW (tier 2 basis)
C    -3.309753  -1.439779  1.375839
C    -1.900166  -0.960334  1.068906
O    -0.964178  -1.739921  0.918016
H    -3.278933  -2.528956  1.460180
H    -4.016017  -1.166734  0.578996
H    -3.691607  -1.017204  2.315656
N    -1.711065  0.396699  0.951710
C    -2.676332  1.459231  1.216820
C    -2.428839  2.561787  0.163585
O    -1.642649  3.483310  0.374047
H    -0.739908  0.670976  0.818262
H    -3.673856  1.031754  1.062532
C    -2.573482  2.023406  2.641457
C    -3.701122  2.991901  3.016165
C    -5.071957  2.327333  3.137138
N    -6.080550  3.315935  3.513020
C    -7.433309  2.998427  3.576037
N    -7.697241  1.727523  4.095617
N    -8.293883  3.855421  3.143867
H    -1.607383  2.538049  2.732010
H    -2.554969  1.172882  3.340770
H    -3.460053  3.470913  3.976402
H    -3.747199  3.805783  2.274088
H    -5.017880  1.541781  3.907344
H    -5.348091  1.818777  2.192798
H    -5.975488  4.210083  3.037757
H    -8.671149  1.575903  4.333254
H    -7.068890  1.412031  4.829642
H    -9.251938  3.572402  3.366525
N    -3.098911  2.442368  -1.018806
C    -3.946020  1.343705  -1.456085
H    -2.841021  3.147809  -1.702049
H    -4.313443  1.572099  -2.461744
H    -4.825429  1.221237  -0.807530
H    -3.399521  0.390058  -1.501500
