35
Energy: -21190.508868 eV PBE+vdW (tier 2 basis)
C    -1.486004  -1.769005  1.011477
C    -0.973876  -1.380324  2.385352
O    0.175910  -1.641676  2.752443
H    -1.316918  -2.842117  0.862265
H    -0.899972  -1.237158  0.250826
H    -2.551242  -1.550599  0.866765
N    -1.876916  -0.719618  3.162172
C    -1.581023  -0.257525  4.507738
C    -2.305502  -1.177919  5.509593
O    -3.501386  -1.010538  5.794932
H    -2.833739  -0.542921  2.821630
H    -0.496760  -0.373557  4.622244
C    -1.944704  1.234721  4.745328
C    -2.938054  1.930893  3.795795
C    -4.378292  1.396585  3.737181
N    -4.539581  0.348332  2.708463
C    -5.574183  -0.618096  2.769787
N    -5.844635  -1.077644  4.035350
N    -6.208584  -1.084390  1.746207
H    -1.007352  1.807085  4.696051
H    -2.315334  1.333831  5.775186
H    -2.520482  1.963372  2.776185
H    -2.985914  2.981057  4.121167
H    -5.069863  2.230796  3.529897
H    -4.663340  0.975015  4.705706
H    -4.505497  0.743116  1.770391
H    -6.459180  -1.883244  4.034091
H    -5.075023  -1.106873  4.709548
H    -5.984122  -0.560777  0.895733
N    -1.604766  -2.201719  6.054501
C    -0.197634  -2.553231  5.896382
H    -2.160322  -2.759151  6.697847
H    -0.089560  -3.631553  6.060818
H    0.438775  -2.028859  6.625820
H    0.152306  -2.331543  4.880836
