35
Energy: -21190.0538902 eV PBE+vdW (tier 2 basis)
C    -0.063372  -0.383154  0.963434
C    -0.079375  -0.293605  2.476404
O    0.776065  -0.824071  3.181586
H    0.072298  0.607363  0.505701
H    -1.001718  -0.796845  0.568726
H    0.767460  -1.029634  0.670582
N    -1.103500  0.426434  3.046244
C    -2.122107  1.209192  2.370128
C    -1.685408  2.534023  1.692763
O    -2.391355  2.969326  0.782975
H    -1.048367  0.465853  4.059938
H    -2.502670  0.625966  1.519563
C    -3.329156  1.469601  3.291409
C    -3.061040  2.381840  4.491625
C    -4.321422  2.613099  5.326073
N    -4.043532  3.497999  6.444366
C    -4.843885  3.649097  7.570698
N    -5.896884  2.739093  7.666251
N    -4.646252  4.480622  8.537286
H    -3.704961  0.493254  3.635190
H    -4.115353  1.913460  2.665009
H    -2.681759  3.354082  4.134602
H    -2.288521  1.963394  5.156610
H    -4.671214  1.652189  5.730731
H    -5.122263  3.002954  4.665218
H    -3.468007  4.306230  6.238076
H    -6.444773  2.591102  6.823956
H    -6.474847  2.955897  8.473023
H    -3.765240  4.988592  8.420209
N    -0.558336  3.203291  2.079244
C    0.388632  2.984918  3.167948
H    -0.419868  4.036160  1.514486
H    1.058245  2.133902  2.988652
H    1.003002  3.887851  3.256409
H    -0.113462  2.837107  4.131633
