35
Energy: -21190.3640383 eV PBE+vdW (tier 2 basis)
C    1.081987  -1.333041  1.477192
C    0.566021  -0.217373  2.372839
O    1.338413  0.546950  2.945918
H    2.155092  -1.175593  1.341545
H    0.594853  -1.354817  0.493147
H    0.937721  -2.315106  1.949765
N    -0.791026  -0.104679  2.552085
C    -1.862842  -0.774461  1.841284
C    -2.683514  0.300039  1.092011
O    -2.776430  1.434320  1.563459
H    -1.069940  0.763081  3.010486
H    -1.429080  -1.493857  1.138891
C    -2.830493  -1.508050  2.804855
C    -2.184849  -2.491905  3.785397
C    -1.585474  -3.775089  3.188008
N    -2.502796  -4.536425  2.353998
C    -2.480236  -4.495643  0.969161
N    -3.674186  -4.940596  0.390404
N    -1.535202  -4.089069  0.188367
H    -3.600318  -2.016740  2.204328
H    -3.358259  -0.738547  3.388573
H    -2.948136  -2.777555  4.527588
H    -1.391802  -1.980067  4.351565
H    -1.226111  -4.415533  4.007775
H    -0.699540  -3.544500  2.583770
H    -3.423201  -4.679034  2.758745
H    -3.541194  -5.137108  -0.597609
H    -4.124676  -5.715643  0.869459
H    -0.727488  -3.746927  0.711186
N    -3.319614  -0.048128  -0.059770
C    -3.416476  -1.347384  -0.706740
H    -3.897326  0.704143  -0.425704
H    -3.494560  -1.202491  -1.791052
H    -4.295137  -1.918772  -0.368050
H    -2.530299  -1.963894  -0.519744
