35
Energy: -21190.4365325 eV PBE+vdW (tier 2 basis)
C    -2.710743  -0.529370  1.190179
C    -1.992741  0.258612  2.268419
O    -1.942500  1.486713  2.262614
H    -2.405111  -0.146338  0.210036
H    -3.791366  -0.356373  1.286512
H    -2.523085  -1.608877  1.237225
N    -1.465960  -0.499796  3.287003
C    -0.551546  0.071997  4.266098
C    0.617344  -0.928316  4.384824
O    0.512867  -2.083457  3.967955
H    -1.264363  -1.488577  3.115620
H    -0.187647  1.027107  3.851574
C    -1.186440  0.346388  5.649285
C    -2.246173  1.459881  5.667186
C    -3.679061  1.039968  5.303099
N    -4.285087  0.114136  6.255902
C    -4.631861  -1.213964  6.024233
N    -3.889145  -1.863242  5.056373
N    -5.511297  -1.891697  6.688086
H    -0.372537  0.632809  6.332406
H    -1.601016  -0.589790  6.053354
H    -1.943442  2.272055  4.988444
H    -2.278567  1.888438  6.680746
H    -3.719964  0.612640  4.294020
H    -4.301451  1.946680  5.253854
H    -4.854712  0.544038  6.973524
H    -4.289467  -2.742198  4.755912
H    -3.365200  -1.339866  4.365611
H    -5.981342  -1.308468  7.384414
N    1.736781  -0.446998  4.984053
C    2.913906  -1.259263  5.234060
H    1.746217  0.524439  5.271098
H    3.797200  -0.836154  4.736845
H    2.720172  -2.256950  4.827766
H    3.116339  -1.345208  6.310671
