35
Energy: -21190.0654122 eV PBE+vdW (tier 2 basis)
C    -0.057926  1.049160  0.226464
C    0.130649  0.416489  1.591748
O    1.248367  0.174924  2.050455
H    0.920343  1.388546  -0.123856
H    -0.752873  1.899019  0.252023
H    -0.450971  0.317926  -0.494637
N    -0.994331  0.134313  2.327519
C    -2.335472  -0.070131  1.802514
C    -3.504317  0.339986  2.728819
O    -4.643370  0.258369  2.263593
H    -0.762741  -0.346213  3.197620
H    -2.460991  0.596692  0.938890
C    -2.569504  -1.522490  1.314124
C    -2.310106  -2.583714  2.397675
C    -0.882216  -3.170456  2.409065
N    -0.528617  -3.785876  3.687322
C    -0.274147  -2.953703  4.779503
N    -0.725612  -3.461567  5.995447
N    0.287874  -1.791360  4.768206
H    -1.922632  -1.703773  0.441099
H    -3.606212  -1.576757  0.960902
H    -3.026365  -3.410209  2.281265
H    -2.518242  -2.155463  3.391897
H    -0.130947  -2.403295  2.183572
H    -0.774557  -3.931061  1.622808
H    -1.121537  -4.580779  3.913955
H    -0.245139  -3.044173  6.786300
H    -0.808130  -4.469905  6.067971
H    0.673704  -1.543245  3.852618
N    -3.319493  0.779824  4.007509
C    -2.139464  0.970340  4.850906
H    -4.215918  1.000239  4.431580
H    -1.602745  0.033183  5.060677
H    -2.489035  1.368731  5.809644
H    -1.435708  1.691638  4.419389
