35
Energy: -21190.1890996 eV PBE+vdW (tier 2 basis)
C    0.479133  0.698580  1.481611
C    -0.148963  0.075467  2.707084
O    0.453492  -0.074627  3.770425
H    -0.072711  1.590202  1.153162
H    0.493936  -0.015075  0.644873
H    1.505180  0.979510  1.731771
N    -1.460381  -0.332955  2.604109
C    -2.351234  -0.230614  1.461071
C    -2.724217  1.199897  1.000977
O    -2.880518  1.414909  -0.199725
H    -1.828229  -0.697960  3.477783
H    -1.861284  -0.652921  0.572534
C    -3.664148  -0.997807  1.717342
C    -3.560306  -2.482408  2.098902
C    -2.904927  -3.418714  1.071469
N    -1.446130  -3.414048  1.106146
C    -0.604632  -2.916190  0.125510
N    -1.165064  -2.848822  -1.150835
N    0.607456  -2.503074  0.296819
H    -4.265718  -0.899869  0.802344
H    -4.230195  -0.479440  2.509123
H    -4.586732  -2.841673  2.271677
H    -3.047782  -2.607118  3.067972
H    -3.223972  -3.135597  0.059981
H    -3.270503  -4.443630  1.249482
H    -1.034756  -3.391146  2.033116
H    -0.457813  -2.585818  -1.830905
H    -1.695725  -3.664447  -1.443047
H    0.857368  -2.475567  1.289644
N    -2.904554  2.196817  1.920051
C    -2.860427  2.178443  3.375922
H    -3.147952  3.076214  1.474908
H    -1.837558  2.119201  3.771616
H    -3.444156  1.348394  3.794976
H    -3.314636  3.108258  3.736799
