35
Energy: -21190.1562573 eV PBE+vdW (tier 2 basis)
C    -0.063151  -0.149822  0.088451
C    0.010823  -0.057840  1.598123
O    1.084039  -0.028902  2.197285
H    -0.255373  -1.189335  -0.213732
H    0.909348  0.151172  -0.310075
H    -0.853668  0.467290  -0.352535
N    -1.165585  -0.046302  2.315553
C    -2.560186  -0.060051  1.869821
C    -2.856326  -1.188901  0.851804
O    -3.362939  -0.959981  -0.243579
H    -0.997525  0.034466  3.313626
H    -3.137604  -0.318693  2.774926
C    -3.081006  1.293046  1.367927
C    -2.964757  2.404404  2.409949
C    -3.547431  3.727632  1.896256
N    -3.412271  4.848567  2.815393
C    -2.201476  5.513025  2.925585
N    -2.209845  6.453821  3.970034
N    -1.217999  5.227055  2.143938
H    -4.127945  1.154196  1.059775
H    -2.540741  1.578847  0.454215
H    -1.910751  2.572651  2.672176
H    -3.490374  2.109765  3.336077
H    -4.616888  3.610054  1.663205
H    -3.034151  4.015527  0.969663
H    -3.932409  4.773880  3.683816
H    -1.397585  7.061665  3.971582
H    -3.073112  6.985895  4.052508
H    -0.441176  5.879895  2.268092
N    -2.548367  -2.465852  1.233521
C    -1.997321  -2.948499  2.489561
H    -2.755830  -3.149915  0.512863
H    -2.216332  -4.019084  2.573838
H    -2.465497  -2.450685  3.349236
H    -0.909533  -2.806045  2.559297
