35
Energy: -21190.1960433 eV PBE+vdW (tier 2 basis)
C    0.425283  -0.877376  0.833748
C    0.295492  0.569214  1.272763
O    1.264136  1.321949  1.338100
H    0.102895  -0.979954  -0.211740
H    -0.178715  -1.564835  1.442226
H    1.479276  -1.159136  0.904293
N    -0.958361  1.017776  1.607408
C    -2.225644  0.325774  1.520731
C    -2.538616  -0.185351  0.093685
O    -2.205747  0.420251  -0.921022
H    -0.992179  1.991282  1.907857
H    -2.218620  -0.547274  2.201153
C    -3.362317  1.261966  2.001280
C    -3.873695  2.332030  1.024176
C    -2.853692  3.368448  0.507914
N    -1.986979  3.959076  1.522738
C    -2.350470  4.949697  2.428921
N    -3.729370  5.106518  2.615109
N    -1.414379  5.564615  3.065628
H    -3.020679  1.740740  2.931473
H    -4.218895  0.631491  2.279539
H    -4.707378  2.836908  1.533833
H    -4.308743  1.853282  0.133965
H    -3.401016  4.141111  -0.066559
H    -2.192367  2.869885  -0.210824
H    -1.009675  4.063583  1.266045
H    -3.969120  5.963260  3.101501
H    -4.313139  4.962971  1.795862
H    -1.792428  6.248326  3.724932
N    -3.261170  -1.342757  0.075275
C    -3.725490  -1.964093  -1.150360
H    -3.448325  -1.802707  0.958396
H    -3.283476  -2.961199  -1.284730
H    -3.412202  -1.323447  -1.981486
H    -4.820389  -2.056121  -1.160624
