35
Energy: -21190.0562727 eV PBE+vdW (tier 2 basis)
C    -0.206151  -0.542240  -0.194833
C    -0.260102  0.347623  1.034894
O    0.306656  1.440236  1.060962
H    0.845087  -0.715557  -0.454790
H    -0.666752  -0.005285  -1.033616
H    -0.708221  -1.509459  -0.072092
N    -0.960640  -0.171350  2.088814
C    -1.255660  0.490579  3.366623
C    -2.517969  1.390653  3.214330
O    -3.616133  0.838899  3.325484
H    -1.490405  -1.016009  1.910503
H    -1.658866  -0.313162  3.998105
C    -0.012439  1.030843  4.086085
C    -0.333591  1.530574  5.496460
C    0.903947  2.071244  6.207229
N    0.550612  2.569018  7.534721
C    1.502454  3.048556  8.427719
N    2.551789  3.749719  7.828421
N    1.356397  2.795505  9.683716
H    0.481307  1.811759  3.499290
H    0.706559  0.198409  4.142874
H    -0.768276  0.709599  6.092021
H    -1.097804  2.322717  5.465804
H    1.323199  2.892703  5.605314
H    1.684657  1.288072  6.255000
H    -0.102695  1.974933  8.040943
H    3.117712  4.280875  8.480320
H    2.315958  4.282831  6.996282
H    2.039383  3.303454  10.251768
N    -2.440996  2.723943  2.947113
C    -1.304598  3.610688  2.733169
H    -3.367177  3.138992  2.897437
H    -0.534556  3.117693  2.130054
H    -0.869519  3.966296  3.680956
H    -1.660146  4.486324  2.178328
