35
Energy: -21190.4219414 eV PBE+vdW (tier 2 basis)
C    -0.314125  0.037917  -0.489505
C    0.176736  0.048929  0.948510
O    1.373492  0.157512  1.203848
H    0.264725  0.781781  -1.046954
H    -1.383648  0.230534  -0.621004
H    -0.092100  -0.946407  -0.924699
N    -0.738597  -0.139845  1.965420
C    -2.194057  0.016762  1.918034
C    -2.910474  -1.021660  1.026909
O    -3.998059  -0.785437  0.503395
H    -0.343442  0.033314  2.895939
H    -2.520249  -0.251836  2.933700
C    -2.676991  1.455569  1.640557
C    -2.038096  2.505361  2.558084
C    -2.670116  2.686395  3.950650
N    -2.963449  1.495297  4.741658
C    -2.010553  0.669992  5.284676
N    -2.564153  -0.300296  6.131517
N    -0.761325  0.785398  4.960043
H    -3.773812  1.465772  1.715471
H    -2.453827  1.710207  0.594688
H    -2.103516  3.489566  2.069085
H    -0.967045  2.297515  2.676452
H    -3.631672  3.209708  3.848105
H    -2.011085  3.335641  4.545911
H    -3.908847  1.136573  4.711565
H    -3.291429  0.028899  6.760705
H    -1.878446  -0.878485  6.604296
H    -0.170633  0.205472  5.560698
N    -2.273500  -2.222055  0.945007
C    -2.791660  -3.337365  0.181503
H    -1.356929  -2.280852  1.376863
H    -2.893561  -4.233865  0.808673
H    -2.141884  -3.577153  -0.673094
H    -3.779467  -3.051170  -0.195652
