35
Energy: -21190.494644 eV PBE+vdW (tier 2 basis)
C    -0.087187  -0.240805  -0.087353
C    -0.036192  -0.223027  1.428417
O    1.009585  -0.387133  2.051341
H    0.653186  -0.953525  -0.464292
H    0.188698  0.760098  -0.448364
H    -1.077417  -0.493417  -0.487839
N    -1.244424  -0.009002  2.046532
C    -1.341885  0.414947  3.446140
C    -0.350983  1.591404  3.691465
O    -0.213003  2.443976  2.810492
H    -1.995135  0.297391  1.439799
H    -2.315931  0.925959  3.513874
C    -1.442261  -0.771863  4.434867
C    -0.434629  -1.923661  4.295830
C    0.968597  -1.727510  4.896985
N    1.089663  -2.107702  6.304632
C    0.802909  -1.289828  7.362618
N    0.934146  -1.936812  8.598741
N    0.419139  -0.061473  7.199341
H    -2.444008  -1.200969  4.276018
H    -1.446614  -0.384872  5.463961
H    -0.320474  -2.168722  3.232183
H    -0.877301  -2.818004  4.764570
H    1.316734  -0.696538  4.782385
H    1.683290  -2.350123  4.342716
H    1.026197  -3.100275  6.500668
H    0.874474  -1.316162  9.398274
H    1.723578  -2.572970  8.672099
H    0.367544  0.433170  8.091207
N    0.230181  1.682786  4.904592
C    1.116023  2.791768  5.203171
H    0.155131  0.951410  5.631128
H    1.572494  2.609460  6.182656
H    0.573679  3.748362  5.229520
H    1.906462  2.880390  4.444944
