35
Energy: -21190.3655322 eV PBE+vdW (tier 2 basis)
C    -0.399252  -1.183863  0.347114
C    -0.438229  0.018994  1.276766
O    0.446068  0.872281  1.274875
H    0.508894  -1.108832  -0.256332
H    -1.270897  -1.214437  -0.321733
H    -0.380195  -2.129450  0.907249
N    -1.514634  0.119358  2.121629
C    -2.585921  -0.849993  2.319818
C    -3.875561  -0.031705  2.541131
O    -4.077709  0.538433  3.614361
H    -1.479331  0.906865  2.765676
H    -2.673648  -1.437660  1.400052
C    -2.342723  -1.793704  3.509290
C    -3.290107  -2.999810  3.499820
C    -2.853966  -4.078385  2.496509
N    -3.831845  -5.133493  2.278686
C    -4.846236  -4.966809  1.356838
N    -5.787206  -6.003561  1.405191
N    -4.881811  -3.932993  0.580959
H    -2.465901  -1.211284  4.432456
H    -1.294103  -2.129668  3.476098
H    -4.312546  -2.673874  3.253998
H    -3.339144  -3.440472  4.507326
H    -1.915296  -4.544286  2.833784
H    -2.663923  -3.634496  1.511136
H    -4.082855  -5.682257  3.094728
H    -6.446595  -5.999265  0.634854
H    -5.400930  -6.930011  1.567648
H    -5.623074  -4.030705  -0.116598
N    -4.741109  0.063205  1.497185
C    -4.597346  -0.498081  0.159381
H    -5.530846  0.674033  1.681687
H    -3.749179  -0.053308  -0.383547
H    -5.508547  -0.267188  -0.403229
H    -4.492957  -1.592505  0.192689
