35
Energy: -21190.0947736 eV PBE+vdW (tier 2 basis)
C    0.040901  -0.041274  0.083554
C    -0.010407  -0.050834  1.601433
O    1.007677  -0.066983  2.288361
H    -0.500680  -0.890945  -0.353832
H    1.091144  -0.095252  -0.213866
H    -0.395314  0.879182  -0.330210
N    -1.250861  -0.018083  2.191823
C    -2.560295  -0.113618  1.555871
C    -3.569597  0.802203  2.291710
O    -4.603538  0.363118  2.790164
H    -1.212982  -0.075590  3.206659
H    -2.457594  0.294846  0.538385
C    -3.082282  -1.557087  1.433979
C    -3.028148  -2.379304  2.722841
C    -3.568660  -3.802524  2.518289
N    -3.498745  -4.666321  3.688168
C    -2.305884  -5.052736  4.288416
N    -1.263520  -5.344454  3.408200
N    -2.283780  -5.204022  5.569624
H    -2.485253  -2.060508  0.655531
H    -4.116495  -1.510311  1.062460
H    -3.616622  -1.883309  3.507105
H    -1.990462  -2.443779  3.085649
H    -3.052337  -4.288397  1.672132
H    -4.625018  -3.758710  2.215603
H    -4.186025  -4.468272  4.410423
H    -0.336588  -5.273028  3.808988
H    -1.319399  -4.971607  2.467056
H    -1.403781  -5.622888  5.881157
N    -3.262056  2.132313  2.357216
C    -2.148123  2.852166  1.760426
H    -3.953348  2.669384  2.871145
H    -1.213590  2.730753  2.325442
H    -2.402680  3.917299  1.729827
H    -1.970701  2.529330  0.725690
