35
Energy: -21190.633043 eV PBE+vdW (tier 2 basis)
C    0.423751  -3.363617  0.061122
C    0.129064  -2.358353  1.159135
O    0.945562  -1.521660  1.524607
H    1.376142  -3.859524  0.282105
H    0.550234  -2.822033  -0.885265
H    -0.356965  -4.123875  -0.067886
N    -1.123375  -2.459221  1.728533
C    -1.627223  -1.464983  2.668225
C    -1.407920  -1.815056  4.156926
O    -1.704362  -0.989158  5.027091
H    -1.793796  -3.084843  1.295426
H    -1.046407  -0.545904  2.503207
C    -3.121509  -1.187148  2.438619
C    -4.036133  -2.422467  2.591090
C    -5.284347  -2.156769  3.454078
N    -4.993071  -1.857674  4.842085
C    -4.471080  -2.794613  5.724095
N    -3.822850  -2.198388  6.804265
N    -4.578758  -4.082468  5.658025
H    -3.247954  -0.731650  1.446390
H    -3.396354  -0.419734  3.174794
H    -3.492172  -3.254604  3.065779
H    -4.365154  -2.787245  1.605670
H    -5.956992  -3.026783  3.405085
H    -5.856768  -1.310406  3.047759
H    -4.775767  -0.894200  5.069237
H    -3.087346  -1.546128  6.518676
H    -3.471906  -2.908353  7.440580
H    -5.197266  -4.367792  4.894039
N    -0.922949  -3.048932  4.409097
C    -0.728321  -3.585166  5.742550
H    -0.718222  -3.627996  3.602263
H    -1.574504  -4.223414  6.037918
H    -0.651162  -2.747784  6.444167
H    0.199881  -4.168059  5.779516
