35
Energy: -21190.7530215 eV PBE+vdW (tier 2 basis)
C    -4.340811  0.376978  0.355953
C    -3.088307  0.811727  1.090727
O    -2.159334  1.383959  0.512494
H    -4.057726  -0.334200  -0.430315
H    -4.783384  1.250557  -0.138181
H    -5.092196  -0.087068  1.006026
N    -3.068613  0.543475  2.428304
C    -1.878800  0.746054  3.230650
C    -1.655411  -0.502782  4.092485
O    -2.595781  -1.208676  4.464132
H    -3.762104  -0.077162  2.840825
H    -1.042186  0.854002  2.529623
C    -1.961144  1.998609  4.131225
C    -1.957297  3.322776  3.363566
C    -0.664034  3.610190  2.582055
N    0.540825  3.674429  3.399725
C    1.413706  2.655764  3.709094
N    1.420214  1.555137  2.822261
N    2.137658  2.755638  4.773628
H    -1.116663  1.980312  4.836744
H    -2.874124  1.923441  4.740505
H    -2.132316  4.142579  4.078896
H    -2.795005  3.353623  2.649942
H    -0.771104  4.573908  2.062290
H    -0.546682  2.863578  1.785746
H    0.546496  4.376546  4.134359
H    1.119951  1.766704  1.871601
H    2.326300  1.095110  2.808521
H    2.810454  1.989182  4.846847
N    -0.354117  -0.709526  4.415081
C    0.082204  -1.756313  5.317187
H    0.330118  -0.068943  4.010899
H    0.771210  -2.451484  4.816985
H    -0.804423  -2.311534  5.641169
H    0.583426  -1.334590  6.199954
