35
Energy: -21190.1109109 eV PBE+vdW (tier 2 basis)
C    1.981088  -1.108396  0.948343
C    1.180411  0.157417  1.199451
O    1.718177  1.265472  1.158349
H    2.811194  -1.143139  1.664455
H    2.420505  -1.049755  -0.055552
H    1.400794  -2.035588  1.029995
N    -0.148194  -0.045375  1.442632
C    -1.210061  0.904024  1.807595
C    -2.242948  1.240176  0.704279
O    -3.394031  1.486547  1.066190
H    -0.446221  -1.013654  1.433484
H    -1.830373  0.352518  2.527400
C    -0.744606  2.186882  2.534916
C    -0.396862  3.391310  1.655440
C    0.492454  4.401341  2.398246
N    1.016361  5.474790  1.572278
C    2.061344  5.332567  0.661535
N    2.830364  4.187695  0.810887
N    2.408377  6.212137  -0.222712
H    0.115925  1.918147  3.163941
H    -1.558936  2.463583  3.219004
H    -1.316459  3.887512  1.309251
H    0.146539  3.064043  0.761910
H    1.344922  3.873845  2.851595
H    -0.062019  4.856665  3.233296
H    0.358760  6.202270  1.318268
H    3.528077  4.125883  0.077467
H    2.373030  3.299448  1.005506
H    1.841990  7.061010  -0.140778
N    -1.905243  1.268147  -0.616872
C    -0.624192  1.135740  -1.296804
H    -2.710164  1.494533  -1.193893
H    -0.696829  1.649417  -2.262015
H    -0.358521  0.084813  -1.487185
H    0.189210  1.607911  -0.736138
