35
Energy: -21190.285414 eV PBE+vdW (tier 2 basis)
C    1.049819  -0.780591  -0.009841
C    0.574677  -0.917086  1.423181
O    1.031803  -1.770433  2.184712
H    2.139730  -0.658448  -0.008963
H    0.594651  0.059194  -0.548798
H    0.825743  -1.712215  -0.544730
N    -0.380473  -0.016269  1.811935
C    -1.019655  -0.075781  3.120979
C    -2.429516  -0.670578  2.942256
O    -3.303531  -0.037869  2.348257
H    -0.830663  0.560253  1.108026
H    -0.381033  -0.734297  3.721565
C    -1.105201  1.309761  3.773166
C    0.269967  1.883173  4.122177
C    0.231626  3.346118  4.568875
N    -0.147798  4.208305  3.461700
C    -0.364745  5.573534  3.554743
N    -0.808980  6.021608  4.800658
N    -0.232225  6.286312  2.486352
H    -1.716627  1.225473  4.685508
H    -1.654987  1.988139  3.104885
H    0.943858  1.793554  3.254023
H    0.733619  1.287498  4.923123
H    1.217047  3.619598  4.995753
H    -0.513845  3.446770  5.375171
H    0.276365  3.984469  2.565713
H    -0.727582  7.022636  4.931599
H    -0.517512  5.496478  5.618160
H    -0.496386  7.260503  2.649393
N    -2.653253  -1.917905  3.441076
C    -1.715702  -2.813001  4.109232
H    -3.603184  -2.244922  3.291424
H    -1.579864  -2.557827  5.171787
H    -0.738367  -2.809699  3.610279
H    -2.116127  -3.831528  4.056685
