35
Energy: -21189.9797569 eV PBE+vdW (tier 2 basis)
C    -0.711679  -0.916802  0.045846
C    -0.606108  -0.747684  1.544105
O    0.493783  -0.837383  2.096492
H    -0.237322  -0.046861  -0.425698
H    -0.126295  -1.803092  -0.225421
H    -1.727174  -1.019914  -0.343154
N    -1.715914  -0.524862  2.325909
C    -3.126940  -0.150625  2.159215
C    -4.114234  -1.212433  2.702855
O    -5.029686  -0.845630  3.441439
H    -1.416726  -0.463329  3.296487
H    -3.276553  0.673918  2.868172
C    -3.633969  0.376145  0.804180
C    -2.948556  1.617651  0.213273
C    -2.830939  2.861054  1.104052
N    -1.906141  2.704749  2.225747
C    -0.540699  2.588322  2.013930
N    0.182691  2.519759  3.212051
N    -0.056394  2.567126  0.818873
H    -4.696526  0.601537  0.987304
H    -3.634555  -0.422883  0.047502
H    -3.529081  1.914564  -0.674064
H    -1.943134  1.386054  -0.151294
H    -3.809154  3.116002  1.537708
H    -2.519041  3.703067  0.463346
H    -2.159314  3.203960  3.070822
H    1.121279  2.153976  3.082549
H    -0.292414  2.012101  3.954636
H    0.946631  2.368054  0.838880
N    -3.979281  -2.527795  2.362816
C    -3.038033  -3.179940  1.466450
H    -4.688171  -3.107643  2.800813
H    -2.021564  -3.220481  1.880369
H    -3.383671  -4.206215  1.301123
H    -2.996632  -2.687904  0.486707
