35
Energy: -21190.2676928 eV PBE+vdW (tier 2 basis)
C    -0.768672  -0.647600  0.074489
C    -0.357564  -1.332003  1.368985
O    0.196812  -2.427168  1.377152
H    -0.230687  0.300910  -0.067760
H    -1.845332  -0.429498  0.045206
H    -0.519029  -1.319162  -0.750845
N    -0.614887  -0.663906  2.539994
C    -1.349785  0.580329  2.719121
C    -0.684227  1.294196  3.903695
O    -0.578328  0.712142  4.988544
H    -0.358019  -1.159724  3.391652
H    -1.244079  1.173550  1.802656
C    -2.853213  0.336269  2.987075
C    -3.742435  1.586797  2.987763
C    -3.759321  2.397322  4.291956
N    -4.289274  1.621157  5.410103
C    -3.871723  1.797117  6.735596
N    -2.514728  2.052930  6.884047
N    -4.628717  1.727952  7.779303
H    -2.958161  -0.196330  3.943864
H    -3.196726  -0.354732  2.204071
H    -4.775493  1.274231  2.767117
H    -3.461577  2.258558  2.158761
H    -4.354159  3.315722  4.129471
H    -2.755850  2.735211  4.570968
H    -5.290729  1.459726  5.357340
H    -2.263978  2.049604  7.868036
H    -1.879645  1.487007  6.315495
H    -5.618051  1.681785  7.518735
N    -0.227426  2.561584  3.732656
C    -0.286341  3.393498  2.539642
H    0.173619  2.963735  4.575246
H    0.251419  4.324263  2.746539
H    0.201960  2.912030  1.681733
H    -1.317633  3.656435  2.263898
