35
Energy: -21190.3126055 eV PBE+vdW (tier 2 basis)
C    0.187999  0.279470  1.208314
C    -0.566499  -0.656138  2.128183
O    -0.132483  -1.752592  2.475712
H    1.081431  -0.241694  0.855452
H    0.497944  1.188205  1.745718
H    -0.411393  0.608364  0.345382
N    -1.791675  -0.223647  2.590195
C    -2.404421  1.069506  2.368594
C    -1.877202  2.282445  3.169379
O    -2.022438  3.407217  2.676478
H    -2.241659  -0.882916  3.219014
H    -2.183662  1.365866  1.336177
C    -3.933601  1.007314  2.530121
C    -4.671125  0.161489  1.480341
C    -4.241903  0.413097  0.023262
N    -4.091625  1.818698  -0.308790
C    -2.895474  2.349259  -0.771505
N    -2.716193  3.682368  -0.406520
N    -2.002714  1.736360  -1.481210
H    -4.294250  2.043923  2.495089
H    -4.183276  0.636837  3.538443
H    -5.749639  0.354215  1.591381
H    -4.536687  -0.912457  1.678574
H    -4.957116  -0.087684  -0.650085
H    -3.266997  -0.062714  -0.157684
H    -4.729925  2.481023  0.117399
H    -1.852264  4.039050  -0.806944
H    -2.736421  3.833224  0.606348
H    -2.357282  0.840259  -1.827475
N    -1.276590  2.129943  4.380382
C    -1.137057  0.954130  5.232335
H    -0.983408  3.020641  4.770730
H    -2.090883  0.425213  5.359838
H    -0.820851  1.297353  6.223482
H    -0.386844  0.245941  4.858641
