35
Energy: -21190.34805 eV PBE+vdW (tier 2 basis)
C    -0.808649  0.355402  -0.612937
C    -0.512908  0.246541  0.871809
O    0.629630  0.150906  1.310253
H    -0.466993  -0.563519  -1.106183
H    -0.225660  1.186009  -1.028204
H    -1.869564  0.510978  -0.845312
N    -1.612828  0.269840  1.693818
C    -1.497434  0.011672  3.131435
C    -2.835358  -0.479788  3.699456
O    -2.921485  -1.529341  4.331163
H    -2.530175  0.187749  1.270587
H    -0.794963  -0.820976  3.268483
C    -0.970202  1.247877  3.897529
C    -1.008421  1.116173  5.424524
C    -0.172076  -0.044970  5.991817
N    -0.187343  -0.126339  7.442385
C    -1.280859  -0.647881  8.134006
N    -1.189960  -0.392094  9.512738
N    -2.296341  -1.290863  7.679903
H    -1.558986  2.128139  3.592457
H    0.056519  1.428138  3.548542
H    -2.046975  1.007364  5.774719
H    -0.639439  2.057854  5.860688
H    0.874666  0.053827  5.666551
H    -0.526757  -1.009008  5.602366
H    0.260839  0.651591  7.918338
H    -1.907354  -0.914874  10.008120
H    -0.267610  -0.564240  9.906278
H    -2.328026  -1.338497  6.658223
N    -3.911625  0.331453  3.467268
C    -5.210914  0.049728  4.059539
H    -3.738112  1.269317  3.122036
H    -5.987258  0.589100  3.506007
H    -5.250469  0.339913  5.120181
H    -5.402129  -1.026678  3.999429
