35
Energy: -21190.4080889 eV PBE+vdW (tier 2 basis)
C    -1.692206  -0.803008  0.366143
C    -1.281975  -0.585578  1.807717
O    -0.103363  -0.467494  2.156560
H    -1.453452  0.099071  -0.212510
H    -2.756877  -1.036987  0.249117
H    -1.094792  -1.624770  -0.045805
N    -2.302692  -0.510270  2.705761
C    -2.026266  -0.317422  4.117329
C    -1.316377  -1.558024  4.707220
O    -1.766996  -2.694497  4.551305
H    -3.271372  -0.630827  2.414142
H    -1.352532  0.546596  4.197603
C    -3.312690  0.032920  4.894780
C    -4.334966  -1.080858  5.192137
C    -4.804771  -1.938887  4.013662
N    -5.300866  -1.121388  2.900728
C    -5.638409  -1.653065  1.646962
N    -4.921458  -2.781372  1.282377
N    -6.440620  -1.117073  0.791155
H    -3.797160  0.853224  4.342629
H    -3.006504  0.463077  5.859852
H    -5.205998  -0.605248  5.673582
H    -3.919897  -1.776087  5.934824
H    -5.574299  -2.645818  4.375644
H    -3.940917  -2.525438  3.673335
H    -5.968210  -0.409103  3.185207
H    -5.279469  -3.209232  0.436134
H    -4.644336  -3.434876  2.004567
H    -6.839109  -0.243552  1.144578
N    -0.209183  -1.329629  5.468195
C    0.608497  -0.121970  5.494228
H    0.217140  -2.189750  5.799886
H    0.886437  0.190767  4.477837
H    1.522664  -0.341605  6.056101
H    0.099423  0.705895  6.008037
