35
Energy: -21190.4963854 eV PBE+vdW (tier 2 basis)
C    1.901644  -1.544995  -0.437496
C    1.848563  -0.317767  0.452688
O    2.607995  0.641068  0.298076
H    2.908010  -1.978037  -0.380301
H    1.738015  -1.234313  -1.476907
H    1.164827  -2.313026  -0.172555
N    0.903707  -0.345561  1.434878
C    0.751337  0.739909  2.385696
C    0.181188  0.093236  3.661219
O    -0.655524  -0.811014  3.576821
H    0.292199  -1.144741  1.581084
H    1.755052  1.152792  2.569624
C    -0.142609  1.875664  1.806648
C    0.168059  3.280769  2.335578
C    -0.412898  3.591368  3.725239
N    0.291351  4.655949  4.454715
C    1.334251  4.401937  5.334469
N    2.163018  3.320454  4.956107
N    1.616133  5.031249  6.421227
H    -1.203234  1.614858  1.949617
H    0.036460  1.873236  0.723920
H    -0.200189  4.030496  1.620280
H    1.260913  3.412019  2.344202
H    -0.442400  2.683057  4.341168
H    -1.456529  3.914768  3.613775
H    -0.292462  5.426402  4.757399
H    2.960473  3.296461  5.589941
H    2.481306  3.381643  3.989258
H    0.880284  5.697162  6.673827
N    0.663632  0.573720  4.832707
C    0.160861  0.134035  6.121051
H    1.298847  1.377373  4.820368
H    -0.228324  0.985884  6.696694
H    0.951396  -0.352260  6.709442
H    -0.645351  -0.585793  5.946545
