35
Energy: -21190.1319298 eV PBE+vdW (tier 2 basis)
C    1.270768  -0.291331  1.133615
C    0.403666  -0.155131  2.370358
O    0.879335  -0.148471  3.503283
H    2.022489  0.507298  1.140609
H    0.714438  -0.254652  0.188795
H    1.811697  -1.244996  1.196886
N    -0.941675  -0.042931  2.142025
C    -1.966865  0.009207  3.187391
C    -1.546113  0.821817  4.442627
O    -1.688590  0.359998  5.569410
H    -1.264167  -0.099516  1.183401
H    -2.801813  0.582361  2.746487
C    -2.533652  -1.366054  3.583443
C    -1.540134  -2.426761  4.091541
C    -0.946136  -3.298426  2.971981
N    -0.145241  -4.423086  3.413170
C    1.210886  -4.327414  3.706124
N    1.744112  -5.572056  4.073993
N    1.978888  -3.296107  3.674184
H    -3.081896  -1.764992  2.712216
H    -3.283797  -1.173578  4.361143
H    -2.077487  -3.092422  4.784473
H    -0.743455  -1.955533  4.679588
H    -0.319298  -2.702261  2.295712
H    -1.767853  -3.697113  2.353415
H    -0.637554  -5.163150  3.903268
H    2.749945  -5.500602  4.198505
H    1.487346  -6.340989  3.459949
H    1.469121  -2.411253  3.611692
N    -1.158547  2.122211  4.261506
C    -0.890595  2.849898  3.036503
H    -0.860330  2.550614  5.132339
H    -0.950891  3.924068  3.248970
H    -1.643197  2.625445  2.270848
H    0.106096  2.635283  2.618782
