35
Energy: -21190.1460343 eV PBE+vdW (tier 2 basis)
C    -0.676283  3.101618  0.518035
C    -1.056206  1.750074  1.097631
O    -1.588874  0.871935  0.428053
H    -0.001558  2.942588  -0.331921
H    -0.192830  3.776721  1.235758
H    -1.581253  3.584508  0.128411
N    -0.767117  1.581574  2.428661
C    -1.039772  0.342550  3.137423
C    -2.498704  0.090491  3.587783
O    -2.885151  -1.071840  3.676849
H    -0.327253  2.344355  2.929137
H    -0.869523  -0.477724  2.425595
C    -0.094609  0.180766  4.338591
C    1.366015  -0.042129  3.939131
C    2.293271  -0.118981  5.149499
N    3.660794  -0.376967  4.735347
C    4.678090  -0.513610  5.675118
N    5.939945  -0.607190  5.077637
N    4.574674  -0.551337  6.958138
H    -0.452652  -0.676514  4.925678
H    -0.180876  1.063984  4.996779
H    1.703817  0.769318  3.272574
H    1.446137  -0.974335  3.359532
H    1.970239  -0.939327  5.810069
H    2.211952  0.816201  5.739782
H    3.946336  0.093231  3.880718
H    5.981361  -1.228863  4.274142
H    6.647401  -0.833742  5.770920
H    3.624460  -0.335800  7.267678
N    -3.325604  1.128840  3.916536
C    -3.075403  2.556721  4.020255
H    -4.249593  0.800266  4.179324
H    -2.153106  2.774036  4.576093
H    -3.901476  3.004300  4.584744
H    -3.023878  3.052802  3.040674
