35
Energy: -21190.4459277 eV PBE+vdW (tier 2 basis)
C    -0.741918  0.702023  0.449710
C    -0.734006  0.158044  1.860445
O    0.283370  -0.293974  2.387110
H    -0.094084  0.083140  -0.179510
H    -0.320258  1.715778  0.492646
H    -1.745527  0.756938  0.009136
N    -1.925156  0.262424  2.529937
C    -2.068610  -0.186945  3.895944
C    -3.145401  -1.279341  3.954769
O    -4.148073  -1.219361  3.242145
H    -2.776745  0.471726  2.019953
H    -1.081862  -0.585241  4.166056
C    -2.467500  0.953460  4.868310
C    -1.655097  2.243496  4.717130
C    -0.142083  2.080420  4.919434
N    0.597012  3.336325  4.893626
C    0.856105  3.988853  3.702643
N    1.499543  5.222085  3.913839
N    0.499067  3.489693  2.567807
H    -2.384427  0.567170  5.898069
H    -3.532534  1.184109  4.711815
H    -2.040377  2.974052  5.447278
H    -1.819661  2.673381  3.720045
H    0.285102  1.439087  4.138253
H    0.064915  1.599442  5.889059
H    0.451792  3.954077  5.685717
H    1.824078  5.659350  3.057901
H    2.230391  5.199243  4.621195
H    0.893050  4.032737  1.795558
N    -2.964730  -2.282360  4.860501
C    -1.800269  -2.522295  5.699540
H    -3.724138  -2.955464  4.883790
H    -1.947983  -3.468645  6.230287
H    -1.661117  -1.734652  6.454960
H    -0.878310  -2.608547  5.107739
