35
Energy: -21189.9462288 eV PBE+vdW (tier 2 basis)
C    -0.012800  0.289432  0.115778
C    -0.093877  0.074893  1.614133
O    0.931795  0.069431  2.294687
H    1.020401  0.089385  -0.181793
H    -0.238537  1.338468  -0.121006
H    -0.692527  -0.337942  -0.468125
N    -1.308275  -0.072059  2.254375
C    -2.720720  -0.244304  1.881467
C    -3.219906  -1.669535  2.226951
O    -4.221075  -1.802626  2.940848
H    -1.145051  -0.179084  3.253810
H    -3.285718  0.374181  2.595294
C    -3.118978  0.230990  0.469895
C    -4.559743  0.741973  0.312376
C    -5.718215  -0.249260  0.559420
N    -5.517418  -1.623072  0.104566
C    -5.068854  -2.007297  -1.146635
N    -5.354436  -1.102300  -2.169573
N    -4.415972  -3.087280  -1.432603
H    -2.927124  -0.546861  -0.281100
H    -2.468838  1.075998  0.212485
H    -4.633279  1.126458  -0.713840
H    -4.718887  1.604851  0.979337
H    -6.634675  0.175127  0.115856
H    -5.913015  -0.332936  1.634815
H    -5.266243  -2.263839  0.848868
H    -6.265957  -0.657006  -2.115617
H    -5.175762  -1.518875  -3.078309
H    -4.176057  -3.598727  -0.578945
N    -2.559740  -2.769123  1.765625
C    -1.439751  -2.893273  0.843310
H    -2.961656  -3.628812  2.127206
H    -1.321607  -3.954422  0.600953
H    -0.498560  -2.534326  1.279221
H    -1.633196  -2.369419  -0.100745
