35
Energy: -21190.1627368 eV PBE+vdW (tier 2 basis)
C    -0.143073  -0.562811  0.439623
C    -0.518589  -0.764123  1.893523
O    0.327822  -0.867925  2.775622
H    -0.087679  0.514393  0.229331
H    -0.848204  -1.008393  -0.271429
H    0.853826  -0.986782  0.287500
N    -1.862226  -0.840858  2.218746
C    -3.036404  -0.565826  1.386993
C    -3.278009  -1.643447  0.295003
O    -3.884277  -1.379435  -0.741028
H    -2.003278  -0.861422  3.224992
H    -3.888635  -0.690153  2.074552
C    -3.102262  0.865711  0.807153
C    -4.522531  1.418380  0.629234
C    -5.213212  1.790618  1.941592
N    -6.573797  2.229998  1.686170
C    -7.416240  2.831820  2.608788
N    -6.806611  3.174271  3.816480
N    -8.650487  3.159158  2.418531
H    -2.599293  0.883435  -0.167660
H    -2.530923  1.524023  1.479256
H    -5.124937  0.680444  0.077773
H    -4.478506  2.317292  -0.002835
H    -4.663131  2.611908  2.426293
H    -5.185552  0.927953  2.641546
H    -7.047531  1.782723  0.910448
H    -7.498204  3.518614  4.475687
H    -6.186484  2.481547  4.224453
H    -8.939954  2.980641  1.453126
N    -2.822679  -2.884108  0.613817
C    -2.983962  -4.029340  -0.260212
H    -2.270575  -2.968738  1.460711
H    -3.476877  -4.857613  0.266259
H    -2.015368  -4.380447  -0.643970
H    -3.607780  -3.719220  -1.105129
