35
Energy: -21190.5084344 eV PBE+vdW (tier 2 basis)
C    1.158829  1.331478  5.420782
C    0.131156  0.471514  4.713135
O    -0.626974  -0.274493  5.345292
H    1.738009  1.978910  4.751526
H    1.849694  0.672676  5.962055
H    0.646615  1.950672  6.167090
N    0.101786  0.583630  3.356077
C    -0.710160  -0.203265  2.411653
C    -2.219851  0.137779  2.414573
O    -2.801433  0.309801  1.332279
H    0.724517  1.264459  2.939743
H    -0.376166  0.123305  1.418793
C    -0.435387  -1.723051  2.526124
C    -0.776850  -2.545475  1.262531
C    -2.032272  -3.418873  1.343716
N    -3.255703  -2.640461  1.314422
C    -4.447295  -2.970806  1.919825
N    -4.478363  -4.234715  2.522384
N    -5.493007  -2.214103  2.011948
H    -0.957094  -2.130696  3.402068
H    0.638922  -1.822659  2.736117
H    0.063679  -3.221446  1.049664
H    -0.854207  -1.885681  0.383165
H    -2.000665  -4.007432  2.274412
H    -1.998747  -4.141750  0.504979
H    -3.199782  -1.688519  0.957606
H    -4.052632  -4.986647  1.987850
H    -5.430146  -4.457653  2.799600
H    -5.304079  -1.292433  1.608622
N    -2.813409  0.185063  3.620489
C    -4.227615  0.466697  3.799817
H    -2.235266  -0.063268  4.432146
H    -4.367957  1.035790  4.726615
H    -4.822241  -0.457240  3.844048
H    -4.582284  1.062345  2.951483
