35
Energy: -21190.5423212 eV PBE+vdW (tier 2 basis)
C    -1.597039  1.276055  -0.017465
C    -1.145764  1.149984  1.424241
O    -0.278263  0.329271  1.751279
H    -2.322979  2.079745  -0.190184
H    -2.045077  0.322706  -0.325672
H    -0.716778  1.443145  -0.649726
N    -1.752199  1.992510  2.305241
C    -1.609099  2.017897  3.771280
C    -0.237793  2.524323  4.288176
O    -0.201076  3.437481  5.117682
H    -2.414493  2.652181  1.917213
H    -2.301637  2.800196  4.102734
C    -2.023406  0.676043  4.416998
C    -1.908837  0.642597  5.944757
C    -2.808946  1.657354  6.665303
N    -2.774879  1.550661  8.117025
C    -3.467470  0.549237  8.768909
N    -3.182540  0.515555  10.145675
N    -4.251029  -0.246440  8.121833
H    -1.411087  -0.128108  3.988929
H    -3.064246  0.473325  4.117949
H    -0.861731  0.808375  6.245303
H    -2.186788  -0.363307  6.287826
H    -3.852980  1.507218  6.357729
H    -2.514701  2.684784  6.411492
H    -1.906275  1.834601  8.557854
H    -3.805764  -0.088304  10.671052
H    -3.096170  1.430510  10.582165
H    -4.775475  -0.846739  8.762165
N    0.847147  1.867788  3.815013
C    2.197755  2.203297  4.217716
H    0.679251  1.136140  3.113245
H    2.803571  2.508517  3.352658
H    2.689047  1.347442  4.702357
H    2.146273  3.034179  4.929339
