35
Energy: -21190.3957767 eV PBE+vdW (tier 2 basis)
C    -0.083765  -0.390847  0.051669
C    -0.138118  -0.430969  1.566271
O    0.712364  -1.020915  2.234114
H    0.891680  0.006082  -0.254503
H    -0.876494  0.215119  -0.403656
H    -0.154336  -1.417284  -0.329870
N    -1.182493  0.247665  2.133617
C    -1.432974  0.225704  3.568464
C    -2.514617  -0.837099  3.859558
O    -3.673245  -0.666847  3.474521
H    -1.934250  0.578846  1.538239
H    -0.475075  -0.044661  4.027416
C    -1.883889  1.598450  4.076145
C    -2.078974  1.632909  5.593272
C    -2.474737  3.020486  6.091891
N    -2.696114  3.011688  7.531224
C    -2.694531  4.202999  8.238454
N    -3.099991  4.022007  9.572569
N    -2.375870  5.313031  7.667089
H    -2.826729  1.868987  3.575570
H    -1.125435  2.336074  3.773387
H    -1.153820  1.319933  6.103467
H    -2.857692  0.904127  5.875355
H    -3.368122  3.380238  5.548665
H    -1.682008  3.753460  5.895709
H    -3.384767  2.338574  7.854986
H    -2.947425  4.838080  10.155552
H    -2.741606  3.177438  10.012232
H    -2.310861  6.072677  8.348946
N    -2.134827  -1.957133  4.531360
C    -0.807186  -2.318709  5.015684
H    -2.896445  -2.611175  4.685929
H    -0.041424  -2.114390  4.256478
H    -0.799518  -3.394377  5.223245
H    -0.547523  -1.791971  5.946988
