35
Energy: -21190.1785032 eV PBE+vdW (tier 2 basis)
C    -1.067125  1.219257  0.089697
C    -0.711414  1.070963  1.555041
O    -0.041592  1.908064  2.155990
H    -0.206401  1.631936  -0.446759
H    -1.891712  1.940973  0.008591
H    -1.376841  0.279692  -0.384608
N    -1.196386  -0.057987  2.163685
C    -1.183317  -0.243123  3.612919
C    -1.713532  1.045090  4.304734
O    -2.709448  1.605276  3.857740
H    -1.865925  -0.606611  1.639023
H    -2.001317  -0.953014  3.814635
C    0.101488  -0.943874  4.124618
C    1.476440  -0.432853  3.671241
C    1.971819  0.868726  4.316498
N    3.280102  1.305450  3.834257
C    4.435378  0.554095  3.998844
N    4.522482  -0.091703  5.240771
N    5.294052  0.497456  3.038198
H    0.021340  -1.987919  3.785462
H    0.053204  -1.010694  5.225543
H    1.476220  -0.302644  2.579783
H    2.211967  -1.222359  3.886340
H    2.011676  0.752771  5.413937
H    1.275259  1.684985  4.094078
H    3.257281  1.701603  2.897614
H    5.444312  -0.466330  5.436022
H    4.153403  0.435912  6.027767
H    6.161028  0.042954  3.337743
N    -1.108728  1.411857  5.467458
C    -1.510798  2.599888  6.196834
H    -0.221837  0.986703  5.702569
H    -1.463748  2.416904  7.277649
H    -2.540249  2.838521  5.911343
H    -0.874846  3.463637  5.949876
