35
Energy: -21189.8661306 eV PBE+vdW (tier 2 basis)
C    -0.449727  -0.361540  0.083118
C    -0.822953  -1.007311  1.403921
O    -0.558095  -2.181438  1.646177
H    0.128593  0.561712  0.218364
H    -1.349549  -0.118197  -0.498477
H    0.151927  -1.078700  -0.480931
N    -1.478406  -0.242044  2.341355
C    -1.964979  1.136791  2.268004
C    -2.985374  1.293011  1.100264
O    -3.962978  0.548777  1.103694
H    -1.794379  -0.798931  3.128436
H    -2.643264  1.225422  3.131183
C    -0.859283  2.180327  2.491949
C    -0.169467  2.013057  3.848735
C    0.891540  3.080787  4.118133
N    0.300538  4.406578  4.215327
C    1.082433  5.557703  4.132339
N    0.343616  6.712822  4.408229
N    2.334423  5.657814  3.850129
H    -1.298957  3.186156  2.439669
H    -0.095774  2.129824  1.703025
H    0.310525  1.025728  3.903776
H    -0.922248  2.029543  4.656820
H    1.609089  3.095018  3.283407
H    1.464296  2.816522  5.026377
H    -0.457881  4.480689  4.888977
H    0.895266  7.546185  4.225832
H    -0.571562  6.751752  3.967675
H    2.793638  4.745167  3.823016
N    -2.866566  2.247963  0.124275
C    -1.786933  3.142511  -0.270319
H    -3.666525  2.206747  -0.500830
H    -1.648164  3.977660  0.429087
H    -2.049028  3.565772  -1.245826
H    -0.830434  2.618264  -0.387060
