35
Energy: -21190.2008447 eV PBE+vdW (tier 2 basis)
C    -0.965206  -0.331828  -0.957057
C    -0.425793  -0.205496  0.451072
O    0.778615  -0.217529  0.696400
H    -1.649030  0.481568  -1.231910
H    -1.516656  -1.272924  -1.088022
H    -0.110993  -0.327300  -1.638732
N    -1.318928  -0.101802  1.501011
C    -2.778373  0.009519  1.515168
C    -3.454737  -1.145752  0.733149
O    -4.214875  -0.947738  -0.217969
H    -0.839828  0.008169  2.389765
H    -3.062032  -0.137797  2.571745
C    -3.291818  1.385949  1.072060
C    -4.775069  1.642765  1.392269
C    -5.482198  2.469892  0.308135
N    -5.446499  1.799313  -0.996259
C    -4.587089  2.196673  -2.018548
N    -4.431976  3.579633  -2.140980
N    -3.949603  1.417672  -2.828244
H    -3.124944  1.484210  -0.007283
H    -2.659861  2.143356  1.555733
H    -4.879541  2.155290  2.361180
H    -5.313484  0.687767  1.493369
H    -5.000494  3.451251  0.204569
H    -6.526660  2.648998  0.610168
H    -5.439333  0.783596  -0.903550
H    -3.918496  3.804293  -2.988156
H    -5.290388  4.116810  -2.053570
H    -4.037018  0.442195  -2.527660
N    -3.183956  -2.414739  1.149612
C    -2.324389  -2.866074  2.232576
H    -3.632631  -3.121778  0.575239
H    -2.592888  -3.899771  2.477139
H    -2.476208  -2.264573  3.138390
H    -1.258654  -2.830138  1.967192
