35
Energy: -21190.5178661 eV PBE+vdW (tier 2 basis)
C    -0.223921  1.082558  -0.005185
C    -0.195586  0.362612  1.325224
O    0.862374  -0.015269  1.842473
H    0.238995  0.441216  -0.765265
H    0.387992  1.989705  0.073781
H    -1.232512  1.358883  -0.335324
N    -1.406523  0.161674  1.920647
C    -1.528639  -0.480012  3.233187
C    -1.517765  -2.023503  3.065679
O    -2.535402  -2.723629  3.071438
H    -2.248345  0.422798  1.421431
H    -0.596075  -0.215658  3.753287
C    -2.687230  0.098397  4.064558
C    -4.137227  -0.323955  3.772271
C    -4.615716  -0.155489  2.320826
N    -5.967264  -0.621380  2.073265
C    -6.311970  -1.959378  1.868677
N    -5.248542  -2.812488  1.617118
N    -7.520913  -2.414281  1.807590
H    -2.593781  1.194626  3.995615
H    -2.477629  -0.150789  5.115179
H    -4.792171  0.276222  4.424464
H    -4.277532  -1.370585  4.065491
H    -3.965794  -0.713136  1.630883
H    -4.562605  0.906794  2.024332
H    -6.712136  -0.070796  2.483941
H    -5.572855  -3.769907  1.531122
H    -4.397032  -2.725926  2.173739
H    -8.206007  -1.656655  1.876917
N    -0.266016  -2.515502  2.895747
C    -0.012362  -3.910965  2.590486
H    0.472287  -1.824230  2.739017
H    0.889067  -4.251368  3.114258
H    0.123481  -4.073325  1.510342
H    -0.871563  -4.501414  2.924260
