35
Energy: -21190.5602988 eV PBE+vdW (tier 2 basis)
C    0.352206  0.102511  0.300616
C    0.142167  -0.099734  1.785946
O    1.089981  -0.237759  2.567428
H    0.966459  0.999482  0.152887
H    -0.580109  0.211602  -0.266609
H    0.917264  -0.749626  -0.096816
N    -1.153931  -0.110385  2.211126
C    -1.514920  -0.269261  3.619536
C    -1.535209  -1.777582  3.991243
O    -2.578830  -2.426332  4.060510
H    -1.901048  -0.091491  1.525878
H    -0.704445  0.212815  4.184837
C    -2.853302  0.414220  3.900638
C    -3.274181  0.429280  5.375017
C    -2.312453  1.177489  6.297758
N    -2.852435  1.236422  7.645710
C    -2.172421  1.907249  8.657188
N    -2.766683  1.718491  9.910073
N    -1.114075  2.634699  8.557415
H    -3.636393  -0.104274  3.326955
H    -2.791662  1.446028  3.519754
H    -3.395832  -0.608144  5.722126
H    -4.264350  0.903251  5.447659
H    -2.175057  2.208999  5.934356
H    -1.314300  0.698375  6.287051
H    -3.317912  0.386284  7.952708
H    -2.335168  2.321050  10.605019
H    -3.780373  1.795815  9.913193
H    -0.702737  2.575620  7.623320
N    -0.292871  -2.281917  4.211926
C    -0.057206  -3.692834  4.450433
H    0.491075  -1.676172  3.958984
H    0.675960  -3.825643  5.256022
H    0.314286  -4.202258  3.548189
H    -1.006131  -4.153680  4.743779
