35
Energy: -21190.6098234 eV PBE+vdW (tier 2 basis)
C    0.390037  -0.211989  0.751439
C    -0.035355  -0.439276  2.186702
O    0.796493  -0.440888  3.108284
H    0.372288  -1.154134  0.185581
H    1.415400  0.166941  0.758522
H    -0.263559  0.499097  0.230289
N    -1.361366  -0.621858  2.436575
C    -2.403723  -0.994719  1.482137
C    -3.804929  -0.595217  1.993943
O    -4.596861  -0.034055  1.235634
H    -1.575303  -0.757883  3.420363
H    -2.276988  -0.372775  0.587586
C    -2.368009  -2.473894  1.001250
C    -2.754371  -3.595173  1.981948
C    -1.639882  -4.226132  2.834347
N    -0.818970  -3.338603  3.641520
C    -1.248020  -2.685029  4.761135
N    -0.223940  -2.019184  5.434786
N    -2.510719  -2.719335  5.096013
H    -1.368358  -2.671003  0.581406
H    -3.062465  -2.509588  0.148639
H    -3.170252  -4.426797  1.391798
H    -3.571521  -3.273922  2.638163
H    -0.940957  -4.759271  2.174205
H    -2.108153  -4.979494  3.488106
H    0.175357  -3.320694  3.463657
H    -0.566841  -1.411311  6.171900
H    0.406199  -1.504822  4.803864
H    -2.655450  -2.197235  5.963769
N    -4.100872  -0.902133  3.283908
C    -5.418342  -0.608352  3.821894
H    -3.513283  -1.549864  3.834128
H    -6.209034  -1.151363  3.283174
H    -5.638248  0.463862  3.742799
H    -5.435177  -0.904418  4.876219
