35
Energy: -21190.4208444 eV PBE+vdW (tier 2 basis)
C    -0.662397  2.175679  0.080175
C    -0.717933  1.030425  1.073526
O    0.297397  0.547291  1.577728
H    -0.035553  1.875006  -0.768342
H    -0.174743  3.034204  0.558627
H    -1.646948  2.484434  -0.291692
N    -1.968503  0.575137  1.372362
C    -2.187453  -0.536361  2.278281
C    -3.481333  -1.220277  1.813248
O    -4.408629  -0.534410  1.374446
H    -2.803756  0.951615  0.931641
H    -1.306714  -1.188389  2.200084
C    -2.311813  -0.045582  3.741535
C    -2.332691  -1.150049  4.798066
C    -2.394019  -0.604220  6.236222
N    -3.636069  0.054603  6.602130
C    -4.793337  -0.661458  6.885032
N    -5.909428  0.169769  7.026767
N    -4.935239  -1.936002  7.019266
H    -3.220357  0.573247  3.807630
H    -1.449509  0.614807  3.919445
H    -1.423354  -1.765957  4.706554
H    -3.191954  -1.818868  4.639819
H    -1.577360  0.116224  6.394369
H    -2.223480  -1.420750  6.953248
H    -3.795625  0.964181  6.181599
H    -6.707435  -0.358861  7.367241
H    -5.747512  1.010450  7.575045
H    -4.082614  -2.441322  6.770098
N    -3.594413  -2.573224  1.912703
C    -2.623352  -3.566976  2.336200
H    -4.514578  -2.906599  1.636934
H    -1.610305  -3.156354  2.296843
H    -2.660775  -4.429433  1.658343
H    -2.811739  -3.919930  3.361086
