35
Energy: -21190.5531298 eV PBE+vdW (tier 2 basis)
C    0.924844  0.040380  1.724847
C    0.013086  -0.624691  2.749182
O    0.353431  -1.642384  3.347588
H    0.452726  0.095298  0.733004
H    1.835049  -0.559858  1.648294
H    1.199272  1.060110  2.032014
N    -1.196372  -0.029220  2.981326
C    -1.768335  1.127796  2.308035
C    -2.604369  1.886369  3.357820
O    -3.498297  1.299311  3.972012
H    -1.797921  -0.493525  3.659826
H    -0.945806  1.769352  1.974128
C    -2.655336  0.700477  1.114655
C    -3.267820  1.831366  0.275219
C    -2.355518  2.431866  -0.807455
N    -1.123001  3.076965  -0.338401
C    -1.117027  4.129823  0.561456
N    -2.210945  4.974945  0.485858
N    -0.218874  4.360678  1.471267
H    -3.464399  0.087787  1.537515
H    -2.062333  0.028208  0.473102
H    -3.638809  2.634676  0.929334
H    -4.154395  1.438397  -0.245874
H    -2.931667  3.148292  -1.413434
H    -2.038009  1.645750  -1.507574
H    -0.346846  2.440289  -0.193594
H    -2.062323  5.842082  0.990476
H    -2.638007  5.096119  -0.425401
H    0.502499  3.634361  1.475553
N    -2.272550  3.187288  3.534040
C    -2.978647  4.049022  4.461650
H    -1.524233  3.595213  2.964482
H    -3.535024  4.833665  3.927905
H    -2.276480  4.527571  5.157078
H    -3.686126  3.434387  5.027866
