35
Energy: -21190.0333414 eV PBE+vdW (tier 2 basis)
C    -0.378921  -0.885063  -0.108177
C    -0.349597  -0.477226  1.351413
O    0.705780  -0.301759  1.961091
H    0.373263  -1.663564  -0.275739
H    -0.098848  -0.014093  -0.716158
H    -1.358421  -1.246807  -0.444638
N    -1.570671  -0.309320  1.941232
C    -1.727957  0.288093  3.270661
C    -0.897012  1.605614  3.326306
O    -1.214626  2.489493  2.529483
H    -2.384424  -0.320331  1.339543
H    -2.740857  0.714897  3.261101
C    -1.721083  -0.739686  4.428067
C    -0.818003  -1.968565  4.285158
C    -0.818538  -2.877563  5.520838
N    -0.119774  -2.325990  6.674759
C    -0.779380  -1.678634  7.699322
N    0.117285  -1.097314  8.616089
N    -2.067085  -1.612932  7.734713
H    -2.753449  -1.104422  4.542026
H    -1.519210  -0.209324  5.367550
H    0.214249  -1.678939  4.043048
H    -1.159299  -2.568450  3.426988
H    -0.345286  -3.837259  5.262015
H    -1.843072  -3.088777  5.853085
H    0.834869  -2.023973  6.513608
H    -0.334283  -0.766433  9.462313
H    0.930697  -1.669266  8.832849
H    -2.391136  -1.195733  8.609608
N    0.037165  1.857151  4.292200
C    0.903875  0.935124  5.015925
H    0.400074  2.798713  4.172562
H    1.775281  1.500892  5.363824
H    1.258259  0.133196  4.356370
H    0.414411  0.506949  5.900472
