35
Energy: -21190.6283244 eV PBE+vdW (tier 2 basis)
C    0.675533  0.188995  0.513349
C    0.363420  0.242972  1.993688
O    1.239132  0.481133  2.838512
H    1.013617  1.181706  0.188320
H    -0.179156  -0.112749  -0.103385
H    1.505470  -0.509170  0.351456
N    -0.930637  0.029698  2.335704
C    -1.376640  0.028891  3.712545
C    -2.700806  -0.751545  3.742292
O    -3.331681  -0.982571  2.709149
H    -1.637582  -0.248919  1.656497
H    -0.615008  -0.495853  4.312943
C    -1.533910  1.461847  4.287683
C    -1.268785  1.569390  5.799991
C    -0.373509  2.766728  6.161009
N    0.900640  2.714658  5.473975
C    1.250916  3.640873  4.509055
N    2.292818  3.185721  3.693814
N    0.672647  4.797789  4.480011
H    -2.525960  1.857714  4.029042
H    -0.802142  2.084889  3.759955
H    -0.761243  0.652584  6.153382
H    -2.205960  1.639445  6.372744
H    -0.226879  2.799458  7.253076
H    -0.839018  3.717601  5.868049
H    1.365964  1.816455  5.409875
H    2.521954  3.828719  2.944052
H    2.176583  2.226164  3.354560
H    1.004700  5.347076  3.684867
N    -3.122435  -1.122491  4.979370
C    -4.393113  -1.782932  5.217494
H    -2.538464  -0.888504  5.773731
H    -4.246810  -2.745842  5.725049
H    -4.862653  -1.960493  4.244896
H    -5.059746  -1.156307  5.826428
