35
Energy: -21190.0403053 eV PBE+vdW (tier 2 basis)
C    0.008675  -0.410084  -0.825901
C    0.259417  -0.862074  0.596562
O    1.333797  -1.348614  0.937317
H    0.060580  0.685822  -0.891007
H    -0.963988  -0.748130  -1.198013
H    0.806525  -0.827686  -1.446176
N    -0.711741  -0.658923  1.566551
C    -2.133302  -0.337913  1.493275
C    -2.965669  -1.476361  0.853125
O    -2.549960  -2.150791  -0.083867
H    -0.407579  -1.065415  2.447184
H    -2.439158  -0.245821  2.545998
C    -2.495561  1.009853  0.825973
C    -2.048710  2.251790  1.610223
C    -0.567749  2.644997  1.452005
N    -0.149992  3.716795  2.339729
C    0.092878  3.468647  3.688663
N    0.221416  4.648735  4.431211
N    0.197169  2.331992  4.285772
H    -3.591376  1.034091  0.728389
H    -2.115841  1.032932  -0.204399
H    -2.262923  2.104508  2.680834
H    -2.664644  3.108319  1.293037
H    -0.373518  2.966580  0.417906
H    0.087729  1.784329  1.633602
H    -0.576416  4.620931  2.157509
H    0.555493  4.441623  5.368418
H    0.783531  5.367880  3.982774
H    -0.011792  1.552651  3.657696
N    -4.218469  -1.673551  1.368694
C    -4.837158  -1.038172  2.521616
H    -4.728538  -2.417301  0.902507
H    -4.293817  -1.243433  3.456329
H    -5.849684  -1.439965  2.632862
H    -4.927636  0.051044  2.400782
