35
Energy: -21190.1056341 eV PBE+vdW (tier 2 basis)
C    -0.713844  0.769973  0.393894
C    -1.079576  0.636959  1.860480
O    -1.143113  1.617790  2.602446
H    0.297341  1.190133  0.322712
H    -1.399332  1.486287  -0.074925
H    -0.747057  -0.174390  -0.162948
N    -1.343662  -0.635778  2.283350
C    -1.574163  -1.011875  3.686434
C    -1.625756  -2.543905  3.799493
O    -0.861914  -3.137072  4.554711
H    -1.130265  -1.389625  1.639499
H    -0.687929  -0.733660  4.274119
C    -2.817378  -0.328422  4.325868
C    -2.448390  0.765347  5.331738
C    -3.579328  1.786886  5.534236
N    -3.138363  3.007667  6.182489
C    -2.791854  4.169634  5.513563
N    -2.490354  4.003639  4.163738
N    -2.825224  5.283309  6.171791
H    -3.446348  -1.089876  4.811906
H    -3.427882  0.103963  3.519373
H    -1.566186  1.299866  4.958071
H    -2.161951  0.323874  6.298100
H    -4.390521  1.347929  6.134073
H    -4.017302  2.034216  4.552633
H    -3.463807  3.202241  7.121283
H    -2.083931  4.825073  3.733117
H    -2.041196  3.143051  3.852687
H    -2.458941  6.054878  5.609708
N    -2.520761  -3.233458  3.014932
C    -3.714832  -2.743198  2.338931
H    -2.487090  -4.231523  3.207759
H    -3.946632  -3.404255  1.494902
H    -3.548792  -1.737181  1.941705
H    -4.589988  -2.709581  3.006713
