35
Energy: -21190.2577533 eV PBE+vdW (tier 2 basis)
C    -0.869017  -0.708369  0.751849
C    -0.770662  -0.353975  2.222736
O    0.008546  -0.930893  2.974603
H    0.111837  -1.067014  0.426211
H    -1.198871  0.110604  0.104366
H    -1.586220  -1.533156  0.634215
N    -1.642212  0.594899  2.730619
C    -2.437319  1.593395  2.007229
C    -3.510379  0.944023  1.093350
O    -3.825021  1.430914  0.010033
H    -1.437413  0.801542  3.705220
H    -3.015189  2.108785  2.792854
C    -1.607078  2.666606  1.279185
C    -2.345074  3.997359  1.111812
C    -1.505178  5.074229  0.410938
N    -0.242170  5.422789  1.070696
C    -0.180830  5.925173  2.370447
N    -1.237193  6.770734  2.706512
N    0.734004  5.686878  3.248287
H    -1.293935  2.290624  0.293471
H    -0.696620  2.821756  1.876802
H    -2.651715  4.377037  2.099593
H    -3.260115  3.838170  0.524320
H    -2.112691  5.982003  0.286274
H    -1.244903  4.747332  -0.606472
H    0.516730  4.777059  0.880669
H    -1.540587  7.405530  1.973914
H    -1.052536  7.244110  3.585732
H    1.371176  4.950386  2.932286
N    -4.093600  -0.164906  1.623749
C    -5.118884  -0.920915  0.932668
H    -3.689122  -0.532323  2.478670
H    -5.424952  -0.343277  0.054193
H    -5.990430  -1.080288  1.581255
H    -4.743605  -1.899449  0.598021
