35
Energy: -21190.2744576 eV PBE+vdW (tier 2 basis)
C    0.744336  1.647175  0.707301
C    0.859088  0.720219  1.899731
O    1.938269  0.546790  2.457599
H    -0.234245  1.676193  0.221813
H    1.500187  1.333986  -0.023961
H    1.008532  2.660975  1.030987
N    -0.242113  -0.010523  2.327736
C    -1.686675  0.177254  2.140799
C    -2.159580  0.071882  0.668467
O    -3.189191  0.626885  0.280185
H    0.011820  -0.553049  3.150580
H    -2.127891  -0.726887  2.595275
C    -2.321138  1.365158  2.883233
C    -1.837525  2.775288  2.522872
C    -2.931556  3.840002  2.713397
N    -3.995268  3.716348  1.727620
C    -3.754949  4.097820  0.415970
N    -4.526691  3.362134  -0.497545
N    -2.947046  5.072988  0.162242
H    -2.189939  1.193028  3.962394
H    -3.400157  1.281056  2.687336
H    -1.540836  2.834120  1.468327
H    -0.948569  3.038504  3.115363
H    -2.500883  4.841321  2.599358
H    -3.378332  3.778731  3.717137
H    -4.598484  2.906329  1.815907
H    -4.355386  3.631977  -1.461077
H    -4.422502  2.353169  -0.375670
H    -2.850886  5.209047  -0.846302
N    -1.410552  -0.750761  -0.107559
C    -1.703873  -1.010612  -1.502771
H    -0.559698  -1.119013  0.305328
H    -1.682799  -2.088632  -1.707656
H    -0.983661  -0.509420  -2.166335
H    -2.705821  -0.623887  -1.715317
