35
Energy: -21189.9105801 eV PBE+vdW (tier 2 basis)
C    -0.269219  0.387784  0.711644
C    -0.562541  -0.332011  2.014733
O    0.240270  -1.117370  2.512580
H    -0.894040  -0.018457  -0.095774
H    0.781488  0.215991  0.464158
H    -0.453719  1.467993  0.770742
N    -1.767933  -0.092951  2.632397
C    -2.896354  0.734318  2.202873
C    -3.412172  0.272701  0.806660
O    -3.702400  -0.915019  0.676073
H    -1.926571  -0.723187  3.411369
H    -3.732279  0.404912  2.840557
C    -2.690516  2.226434  2.499099
C    -2.563183  2.518484  3.996328
C    -2.237493  3.989881  4.295105
N    -3.187842  4.948280  3.726005
C    -3.088993  5.455279  2.438164
N    -1.787622  5.779919  2.044318
N    -4.160044  5.563274  1.722650
H    -3.547150  2.787354  2.104398
H    -1.799104  2.610588  1.983367
H    -3.501890  2.241573  4.506845
H    -1.772019  1.895018  4.441403
H    -1.238386  4.227489  3.907565
H    -2.197901  4.145140  5.383339
H    -4.164089  4.748947  3.933564
H    -1.741639  6.309565  1.181108
H    -1.194925  6.174644  2.769957
H    -3.989439  6.109459  0.873874
N    -3.608176  1.135839  -0.238037
C    -3.231454  2.524241  -0.479724
H    -4.012290  0.637890  -1.026014
H    -3.382001  2.721372  -1.546872
H    -2.173029  2.711202  -0.258526
H    -3.841940  3.241918  0.085412
