35
Energy: -21190.472599 eV PBE+vdW (tier 2 basis)
C    0.147127  -2.386766  -0.171514
C    0.848638  -1.153324  0.365050
O    1.796249  -0.628203  -0.219961
H    -0.673090  -2.740224  0.465166
H    0.885819  -3.189929  -0.284181
H    -0.246073  -2.161712  -1.170667
N    0.356392  -0.665301  1.541724
C    0.931322  0.489813  2.204087
C    0.727636  0.279786  3.710168
O    -0.336258  -0.165075  4.148576
H    -0.410701  -1.118259  2.030676
H    2.001648  0.511924  1.946904
C    0.282699  1.802387  1.695851
C    0.846222  3.092201  2.309072
C    0.140866  3.523315  3.599830
N    0.826035  4.638801  4.228812
C    0.858553  4.928445  5.582044
N    0.244212  3.977785  6.404520
N    1.455440  5.929783  6.137409
H    -0.803642  1.738524  1.865031
H    0.435248  1.808339  0.608628
H    0.763148  3.905648  1.571352
H    1.924141  2.983119  2.512163
H    0.131515  2.692699  4.314448
H    -0.916234  3.758818  3.367711
H    1.104199  5.404359  3.626540
H    0.220770  4.319571  7.361284
H    -0.662898  3.638661  6.096299
H    1.980586  6.480277  5.452517
N    1.778372  0.632858  4.494340
C    1.730627  0.608114  5.947677
H    2.605283  1.002362  4.040754
H    0.883205  -0.018705  6.243684
H    1.586455  1.617832  6.360356
H    2.656488  0.177081  6.347650
