35
Energy: -21190.5252628 eV PBE+vdW (tier 2 basis)
C    -3.559884  -3.195013  1.273134
C    -3.185430  -2.732284  2.667018
O    -3.647369  -3.287578  3.673118
H    -4.642862  -3.072019  1.144287
H    -3.340952  -4.266042  1.185797
H    -3.044488  -2.655135  0.469751
N    -2.320407  -1.683998  2.728045
C    -1.881365  -0.958680  3.932502
C    -0.885656  -1.727956  4.838014
O    0.150812  -1.175650  5.208802
H    -1.969816  -1.329320  1.847407
H    -1.285867  -0.118083  3.554769
C    -3.040560  -0.382126  4.766415
C    -3.981872  0.523545  3.973628
C    -4.983468  1.262871  4.873024
N    -4.351422  2.209054  5.778221
C    -4.004621  3.494690  5.379919
N    -3.466573  4.245232  6.430402
N    -4.136275  4.031906  4.216164
H    -2.578420  0.195280  5.580770
H    -3.610412  -1.199885  5.229646
H    -4.551464  -0.065764  3.238893
H    -3.399765  1.263951  3.401793
H    -5.528500  0.534847  5.490417
H    -5.742534  1.768558  4.249833
H    -4.573296  2.112728  6.761913
H    -2.779944  3.752386  6.995430
H    -3.113608  5.135316  6.090818
H    -4.665457  3.431779  3.579450
N    -1.270395  -2.976777  5.199812
C    -0.471859  -3.813563  6.072580
H    -2.178090  -3.306291  4.853382
H    0.468540  -3.291538  6.278869
H    -0.251896  -4.779323  5.596714
H    -0.987827  -4.003118  7.025263
