35
Energy: -21190.3541446 eV PBE+vdW (tier 2 basis)
C    -0.484687  0.048979  1.714783
C    -1.344353  0.001075  2.961902
O    -0.880601  0.239907  4.073813
H    0.537930  -0.215887  2.000752
H    -0.468813  1.080077  1.334590
H    -0.826009  -0.605715  0.905495
N    -2.678616  -0.336468  2.830317
C    -3.501957  -0.442531  1.619828
C    -3.187002  -1.696812  0.762313
O    -3.486304  -1.747552  -0.427609
H    -3.174935  -0.230054  3.710697
H    -4.520625  -0.628391  1.999555
C    -3.577011  0.827589  0.758017
C    -4.016565  2.060076  1.546233
C    -4.163050  3.293565  0.646179
N    -4.574649  4.504778  1.341302
C    -5.899890  4.689165  1.697256
N    -6.079752  5.839900  2.482679
N    -6.805879  3.845216  1.337257
H    -4.285538  0.618130  -0.054636
H    -2.609436  1.007873  0.266184
H    -3.291873  2.280773  2.347116
H    -4.986891  1.873451  2.031585
H    -4.917466  3.097787  -0.126679
H    -3.210913  3.508037  0.136409
H    -3.903051  4.886551  1.999788
H    -7.053429  6.086782  2.623750
H    -5.527892  6.643508  2.192069
H    -7.741731  4.187314  1.566484
N    -2.621799  -2.727461  1.448657
C    -2.294303  -3.996305  0.830850
H    -2.380696  -2.557755  2.419196
H    -2.805388  -4.826819  1.337173
H    -1.211102  -4.183395  0.850728
H    -2.628770  -3.954133  -0.211330
