35
Energy: -21190.4667428 eV PBE+vdW (tier 2 basis)
C    -1.360095  1.545372  0.610132
C    -1.213309  1.191384  2.077623
O    -1.297206  2.035001  2.970439
H    -0.622855  2.317604  0.358742
H    -2.355134  1.979471  0.450772
H    -1.231377  0.689807  -0.063918
N    -0.996979  -0.131028  2.343331
C    -0.742288  -0.605022  3.686202
C    0.105194  -1.882095  3.557122
O    0.203141  -2.486475  2.488076
H    -0.786625  -0.800913  1.606090
H    -0.172048  0.174714  4.217491
C    -2.048701  -0.854791  4.480527
C    -2.899422  -2.009734  3.956391
C    -4.265259  -2.116755  4.645035
N    -5.155194  -0.994737  4.348148
C    -5.779342  -0.200185  5.303554
N    -5.045750  -0.031401  6.480943
N    -6.930559  0.372300  5.195167
H    -2.618256  0.085394  4.438296
H    -1.793543  -1.028817  5.539719
H    -2.369127  -2.966541  4.089485
H    -3.051836  -1.891826  2.872084
H    -4.144335  -2.168111  5.735513
H    -4.749980  -3.059407  4.341287
H    -5.704317  -1.093417  3.501923
H    -5.505499  0.649918  7.078412
H    -4.061416  0.184220  6.344885
H    -7.431361  0.047426  4.363146
N    0.693055  -2.299060  4.710231
C    1.486121  -3.511314  4.801322
H    0.597271  -1.716455  5.533512
H    2.534452  -3.285530  5.041178
H    1.446009  -4.006691  3.825998
H    1.083571  -4.189308  5.566142
