35
Energy: -21189.9507805 eV PBE+vdW (tier 2 basis)
C    -0.575656  -0.287760  -0.297770
C    -0.379004  0.013097  1.173912
O    0.713629  0.338168  1.636653
H    0.270909  -0.883471  -0.655800
H    -0.571029  0.662872  -0.848235
H    -1.511945  -0.815166  -0.518173
N    -1.499400  -0.100686  1.953238
C    -1.551374  0.387949  3.336270
C    -0.954043  1.827933  3.380362
O    -1.539557  2.680195  2.712036
H    -2.384409  -0.192166  1.469599
H    -2.611588  0.627279  3.502603
C    -1.193521  -0.674492  4.401138
C    -0.029521  -1.642295  4.127125
C    -0.426467  -2.924361  3.368754
N    -1.327942  -3.824144  4.071304
C    -0.909369  -4.625371  5.125289
N    -1.981429  -5.262359  5.765990
N    0.289219  -4.830097  5.551631
H    -2.104735  -1.270528  4.575561
H    -1.037158  -0.145453  5.351694
H    0.416506  -1.934005  5.089173
H    0.758985  -1.144417  3.550086
H    0.481533  -3.490163  3.112698
H    -0.904182  -2.665237  2.414928
H    -2.298066  -3.532686  4.123639
H    -1.634294  -5.942211  6.437087
H    -2.663167  -5.675158  5.134039
H    0.966783  -4.219058  5.091107
N    0.063431  2.189366  4.219172
C    1.190847  1.405131  4.711681
H    0.239958  3.185519  4.118672
H    1.937244  2.106350  5.099765
H    1.648728  0.816744  3.906686
H    0.907720  0.739531  5.536519
