35
Energy: -21190.4616642 eV PBE+vdW (tier 2 basis)
C    0.533359  -0.752357  0.187293
C    0.214919  -1.244740  1.589681
O    0.629301  -2.323590  2.008103
H    1.618095  -0.799524  0.031501
H    0.177098  0.266604  -0.011805
H    0.069762  -1.434078  -0.537199
N    -0.564375  -0.394543  2.327731
C    -0.974210  -0.702550  3.690960
C    -2.500736  -0.511519  3.844237
O    -3.251154  -1.465985  4.034581
H    -0.747188  0.534522  1.952298
H    -0.799200  -1.779308  3.799888
C    -0.189042  0.042702  4.798374
C    1.320320  0.231050  4.578464
C    1.731392  1.376885  3.627206
N    1.021729  2.641954  3.874634
C    -0.160896  2.984498  3.237848
N    -0.207687  2.675972  1.872805
N    -1.206874  3.536799  3.764775
H    -0.341526  -0.531989  5.723299
H    -0.648028  1.022617  4.993717
H    1.777284  -0.700357  4.211111
H    1.778920  0.428332  5.560962
H    1.557414  1.093840  2.585352
H    2.811167  1.558519  3.729085
H    1.012794  2.915229  4.853852
H    0.667396  2.816328  1.374508
H    -0.984259  3.161280  1.430676
H    -1.117484  3.609383  4.782279
N    -2.959065  0.768494  3.731132
C    -4.376374  1.067763  3.838060
H    -2.323406  1.564624  3.679028
H    -4.519758  2.136102  3.644635
H    -4.767441  0.825744  4.837203
H    -4.951698  0.484593  3.107105
