35
Energy: -21190.0329864 eV PBE+vdW (tier 2 basis)
C    -0.961551  0.088143  0.059966
C    -0.647794  -0.027547  1.537220
O    0.190392  0.683103  2.092387
H    -1.629926  0.948048  -0.086495
H    -1.446979  -0.804785  -0.353076
H    -0.034660  0.287860  -0.487730
N    -1.359615  -0.981895  2.213035
C    -1.371801  -1.059413  3.678454
C    -1.672697  0.361633  4.244445
O    -2.744626  0.866195  3.910111
H    -2.158241  -1.384366  1.736004
H    -2.322769  -1.558292  3.913403
C    -0.283239  -1.971838  4.289427
C    1.156204  -1.927328  3.748406
C    1.444878  -2.800496  2.513836
N    1.148928  -4.214600  2.668403
C    -0.028139  -4.807832  2.238332
N    -0.120276  -6.149619  2.629901
N    -0.994759  -4.278673  1.567598
H    -0.649745  -3.005005  4.193065
H    -0.278269  -1.778936  5.372065
H    1.830556  -2.258874  4.555243
H    1.454700  -0.902398  3.497095
H    2.510926  -2.694738  2.259556
H    0.891797  -2.438685  1.639052
H    1.613254  -4.686552  3.437586
H    -0.918919  -6.593155  2.185044
H    0.731900  -6.688808  2.499036
H    -0.856375  -3.270943  1.466727
N    -0.887494  0.980404  5.179562
C    0.555052  0.910131  5.381111
H    -1.316349  1.865384  5.437877
H    1.096782  1.001773  4.430829
H    0.859864  -0.013816  5.887995
H    0.840025  1.746599  6.028314
