35
Energy: -21190.047336 eV PBE+vdW (tier 2 basis)
C    -1.048925  -1.402382  0.438830
C    -0.760567  -0.720173  1.762087
O    0.170898  0.079344  1.894473
H    -1.293004  -0.628970  -0.300433
H    -1.877179  -2.119553  0.483788
H    -0.140074  -1.909584  0.091256
N    -1.601416  -1.044076  2.779371
C    -1.514140  -0.458145  4.110946
C    -1.391300  1.089542  3.984626
O    -2.356193  1.684503  3.509486
H    -2.272510  -1.798782  2.643965
H    -2.538205  -0.523011  4.506968
C    -0.635479  -1.244901  5.117734
C    0.653386  -1.940022  4.651661
C    0.476420  -3.265052  3.876609
N    -0.479971  -4.189947  4.458459
C    -1.776080  -4.347453  4.007207
N    -2.636286  -4.864096  4.972788
N    -2.231538  -4.117121  2.815962
H    -1.282556  -2.018130  5.561315
H    -0.402796  -0.568185  5.952263
H    1.252843  -2.151747  5.551985
H    1.263476  -1.276698  4.025293
H    1.455684  -3.760501  3.796556
H    0.156525  -3.062657  2.849421
H    -0.273249  -4.561988  5.378558
H    -2.585633  -4.442134  5.895428
H    -3.585264  -4.950605  4.622691
H    -1.460566  -3.964709  2.160575
N    -0.349744  1.794904  4.532723
C    1.053860  1.416871  4.654706
H    -0.515893  2.787274  4.387984
H    1.242578  0.790324  5.536629
H    1.637176  2.335875  4.777833
H    1.401505  0.899817  3.751083
