35
Energy: -21190.5313889 eV PBE+vdW (tier 2 basis)
C    0.352420  -1.078513  0.852662
C    -0.069281  -0.491566  2.185295
O    0.155358  -1.100425  3.240656
H    1.426832  -1.295497  0.888113
H    0.143442  -0.434393  -0.009764
H    -0.168614  -2.034570  0.715585
N    -0.677961  0.723743  2.118356
C    -1.330504  1.545904  3.161048
C    -0.502599  1.954500  4.397781
O    -0.799442  3.021904  4.953526
H    -0.772750  1.103179  1.184158
H    -1.486135  2.513748  2.666316
C    -2.743779  1.046312  3.548834
C    -2.859167  -0.223020  4.404961
C    -2.685667  -0.002309  5.914070
N    -3.684534  0.916572  6.457303
C    -3.439659  1.791482  7.521500
N    -2.161390  2.330007  7.550992
N    -4.295011  2.123563  8.432580
H    -3.291928  0.904039  2.605558
H    -3.242057  1.873767  4.076285
H    -2.141085  -0.988497  4.080924
H    -3.860068  -0.652519  4.235079
H    -1.697410  0.405769  6.143905
H    -2.732967  -0.983007  6.421818
H    -4.618749  0.522002  6.511552
H    -2.098235  3.043473  8.270481
H    -1.761703  2.634274  6.658256
H    -5.138960  1.546106  8.374516
N    0.467314  1.128226  4.828273
C    1.234217  1.421924  6.027360
H    0.511328  0.192712  4.397880
H    2.120317  0.778819  6.045170
H    0.645726  1.250452  6.941984
H    1.546916  2.472695  6.022180
