35
Energy: -21190.2238244 eV PBE+vdW (tier 2 basis)
C    0.080978  -0.035148  0.677817
C    -0.383157  0.025416  2.118741
O    0.408325  0.040356  3.061360
H    1.146767  0.207669  0.660208
H    -0.469069  0.645107  0.017216
H    -0.054706  -1.049321  0.276418
N    -1.736456  0.041715  2.361457
C    -2.868774  0.048531  1.433819
C    -2.825096  -1.144291  0.446120
O    -2.793159  -0.996185  -0.775698
H    -1.951788  0.090087  3.352605
H    -3.751153  -0.138735  2.070898
C    -3.104447  1.393381  0.708068
C    -4.532759  1.906955  0.924703
C    -5.612222  0.976283  0.336084
N    -6.893158  1.032825  1.028717
C    -7.048080  0.392893  2.240985
N    -8.274291  0.688402  2.851921
N    -6.114059  -0.363129  2.724375
H    -2.894424  1.264988  -0.363320
H    -2.391423  2.129958  1.100833
H    -4.639754  2.915896  0.497500
H    -4.713766  2.001727  2.006348
H    -5.288817  -0.069665  0.379848
H    -5.786326  1.204797  -0.724034
H    -7.419912  1.894456  0.929921
H    -8.486693  0.105362  3.654002
H    -9.065184  0.759048  2.216714
H    -6.440937  -0.846562  3.563950
N    -2.839723  -2.389305  1.004213
C    -3.014949  -2.751626  2.402159
H    -2.808676  -3.134660  0.316581
H    -3.315710  -3.804154  2.449773
H    -3.814583  -2.156718  2.864291
H    -2.091167  -2.627132  2.984925
