35
Energy: -21190.0415687 eV PBE+vdW (tier 2 basis)
C    0.643710  1.079688  -0.244826
C    0.180689  1.208920  1.196032
O    0.320490  2.241260  1.842732
H    1.738358  1.156759  -0.268348
H    0.245063  1.923953  -0.819499
H    0.345481  0.141317  -0.729011
N    -0.419105  0.092572  1.720182
C    -0.830523  -0.028465  3.119106
C    -1.607455  1.221510  3.618648
O    -1.297074  1.795411  4.657491
H    -0.453787  -0.743998  1.150501
H    -1.552486  -0.864107  3.138621
C    0.345047  -0.375936  4.056474
C    0.004095  -1.354829  5.187343
C    -0.940948  -0.816163  6.261191
N    -1.162786  -1.825747  7.287705
C    -2.111989  -1.717174  8.296618
N    -3.047572  -0.702032  8.109317
N    -2.240916  -2.506467  9.311776
H    0.752696  0.560022  4.460816
H    1.128248  -0.832414  3.435550
H    0.949453  -1.653751  5.670684
H    -0.428843  -2.278655  4.767173
H    -1.914834  -0.567312  5.817818
H    -0.528728  0.126522  6.665922
H    -0.347906  -2.366509  7.555488
H    -3.640634  -0.606493  8.927526
H    -2.697832  0.185954  7.762532
H    -1.574519  -3.282053  9.264140
N    -2.721083  1.594254  2.918660
C    -3.265143  1.065899  1.682336
H    -3.137584  2.443137  3.287824
H    -4.325387  1.339591  1.624199
H    -3.210304  -0.029535  1.660864
H    -2.755514  1.456864  0.787897
