35
Energy: -21190.1827242 eV PBE+vdW (tier 2 basis)
C    0.269268  0.348803  0.408998
C    0.162085  -0.386698  1.728919
O    1.137343  -0.869547  2.302316
H    1.280087  0.203969  0.019716
H    0.089301  1.424881  0.544095
H    -0.466178  -0.005868  -0.325400
N    -1.092596  -0.498502  2.280365
C    -2.335229  0.112178  1.827459
C    -2.349781  1.659039  1.843995
O    -2.819481  2.268017  0.883519
H    -1.097247  -0.990088  3.169916
H    -2.494306  -0.124847  0.765011
C    -3.511982  -0.480907  2.621281
C    -4.890092  -0.035187  2.134676
C    -6.036976  -0.725282  2.880824
N    -6.028202  -2.181214  2.737884
C    -6.637264  -2.769954  1.639487
N    -6.690341  -4.169266  1.750925
N    -7.106967  -2.044909  0.684982
H    -3.397024  -0.236621  3.691851
H    -3.440705  -1.576741  2.540708
H    -4.996885  -0.239929  1.060298
H    -5.010770  1.051947  2.251962
H    -6.993090  -0.325127  2.511905
H    -5.968854  -0.508501  3.957302
H    -6.128133  -2.706761  3.598289
H    -6.962904  -4.635138  0.891999
H    -5.862209  -4.595827  2.159450
H    -7.447110  -2.619748  -0.088897
N    -1.859323  2.335248  2.927473
C    -1.249252  1.851636  4.158207
H    -1.911698  3.341034  2.799141
H    -1.202543  2.689463  4.863008
H    -0.229697  1.469929  4.007833
H    -1.850644  1.065164  4.631565
