35
Energy: -21190.5568321 eV PBE+vdW (tier 2 basis)
C    -2.767082  2.313837  1.289394
C    -1.866006  1.257672  1.884981
O    -0.902293  0.793884  1.247138
H    -3.473313  2.744173  2.009562
H    -3.341012  1.865290  0.467130
H    -2.146325  3.113985  0.869375
N    -2.163287  0.864356  3.147831
C    -1.540501  -0.228115  3.908946
C    -0.118592  0.082114  4.446861
O    0.138428  -0.118071  5.634440
H    -2.948452  1.323439  3.591168
H    -2.138671  -0.316508  4.824486
C    -1.560223  -1.592349  3.191663
C    -2.960005  -2.187886  2.926682
C    -3.366402  -2.286089  1.451832
N    -3.795307  -1.008504  0.875194
C    -3.563434  -0.675619  -0.458557
N    -2.261018  -0.933788  -0.887537
N    -4.537071  -0.163433  -1.138296
H    -0.988631  -2.272852  3.838136
H    -0.996503  -1.515868  2.253040
H    -3.730995  -1.621592  3.474501
H    -2.996011  -3.205977  3.341484
H    -4.176877  -3.030198  1.351511
H    -2.525353  -2.660140  0.854900
H    -4.759522  -0.769674  1.096854
H    -1.547273  -0.593764  -0.238306
H    -2.085619  -0.610305  -1.832994
H    -4.207827  0.193801  -2.039791
N    0.772970  0.521104  3.524691
C    2.150452  0.824294  3.857038
H    0.438052  0.619780  2.560599
H    2.397587  1.864465  3.602097
H    2.843674  0.159074  3.322070
H    2.281051  0.678295  4.934540
