35
Energy: -21190.3310232 eV PBE+vdW (tier 2 basis)
C    1.365197  -0.644129  5.393583
C    -0.142457  -0.748557  5.278142
O    -0.884137  -0.662370  6.252332
H    1.706198  -1.306363  6.197702
H    1.624287  0.382486  5.684316
H    1.898209  -0.894085  4.467748
N    -0.624001  -0.962054  4.004197
C    -2.050805  -0.887797  3.714334
C    -2.533147  -2.066144  2.842462
O    -3.485109  -1.950312  2.073825
H    0.025053  -0.867647  3.229475
H    -2.524255  -1.019452  4.701442
C    -2.475463  0.476718  3.131598
C    -3.902026  0.903973  3.498923
C    -4.051581  1.287824  4.971031
N    -5.433661  1.634195  5.267176
C    -5.883916  2.104949  6.492975
N    -4.873408  2.467947  7.381700
N    -7.115313  2.302029  6.830964
H    -2.377500  0.445958  2.037631
H    -1.766136  1.231843  3.503579
H    -4.597069  0.089495  3.243032
H    -4.189606  1.766822  2.880074
H    -3.415604  2.160989  5.185724
H    -3.685378  0.463181  5.614359
H    -6.135438  1.136418  4.731806
H    -4.071644  1.847317  7.439555
H    -5.263193  2.698448  8.290285
H    -7.748172  2.120079  6.047310
N    -1.851323  -3.231050  3.028957
C    -2.227242  -4.472479  2.381775
H    -1.090308  -3.223132  3.698694
H    -1.378036  -4.907074  1.837154
H    -3.029966  -4.246086  1.671976
H    -2.596051  -5.208941  3.110163
