35
Energy: -21190.8326291 eV PBE+vdW (tier 2 basis)
C    -0.844750  1.013028  -0.140870
C    -1.100035  0.537080  1.279245
O    -1.195758  -0.657100  1.561135
H    -0.590048  2.078472  -0.197018
H    -1.740805  0.825297  -0.748103
H    -0.032653  0.414409  -0.569985
N    -1.240337  1.543334  2.201459
C    -1.319590  1.254115  3.624998
C    -2.743737  1.369837  4.216665
O    -2.939679  1.226321  5.423226
H    -0.957520  2.503401  1.926611
H    -1.056925  0.188865  3.739776
C    -0.353611  2.111539  4.457459
C    1.137897  1.871562  4.187016
C    1.747911  2.571651  2.960961
N    1.671286  4.026868  3.001415
C    0.725825  4.763378  2.337040
N    0.846075  6.135308  2.573416
N    -0.189358  4.204317  1.604753
H    -0.575039  1.878968  5.506763
H    -0.599438  3.177703  4.326637
H    1.329082  0.791055  4.085012
H    1.707900  2.192071  5.075026
H    1.266399  2.254628  2.030941
H    2.809521  2.290428  2.884307
H    2.105275  4.483415  3.795871
H    1.795694  6.493441  2.622748
H    0.244794  6.715690  2.000030
H    -0.728953  4.903325  1.092067
N    -3.724428  1.622111  3.311532
C    -5.126250  1.673643  3.665444
H    -3.434003  1.685756  2.341370
H    -5.580765  2.623864  3.351504
H    -5.195253  1.587549  4.755630
H    -5.687149  0.845207  3.208575
