35
Energy: -21190.3617114 eV PBE+vdW (tier 2 basis)
C    0.071885  1.047988  -0.551872
C    -0.103472  0.247916  0.725150
O    0.569297  -0.753017  0.969429
H    -0.530327  1.964023  -0.583336
H    -0.200638  0.412159  -1.404060
H    1.131296  1.307362  -0.665228
N    -1.049621  0.731351  1.588565
C    -1.476885  -0.010884  2.758490
C    -3.011820  0.014965  2.777004
O    -3.633275  0.947292  2.262633
H    -1.712146  1.440411  1.279592
H    -1.087451  -1.033521  2.645164
C    -0.935502  0.599165  4.072661
C    0.582804  0.496276  4.209410
C    1.099251  1.230117  5.453708
N    2.539523  1.105002  5.658221
C    3.456296  2.090284  5.333156
N    3.082194  2.881554  4.240270
N    4.517829  2.216436  6.056523
H    -1.419888  0.101701  4.928783
H    -1.255281  1.653175  4.109866
H    1.058765  0.909393  3.307236
H    0.893701  -0.558316  4.250384
H    0.600337  0.823579  6.346626
H    0.821738  2.295168  5.398291
H    2.837228  0.609147  6.490756
H    3.817997  3.499437  3.917095
H    2.631830  2.388901  3.473296
H    5.179937  2.873838  5.637278
N    -3.647113  -1.004076  3.418647
C    -3.056973  -2.206640  3.986863
H    -4.657381  -0.907793  3.436572
H    -2.446154  -2.749352  3.252352
H    -3.867703  -2.870782  4.303269
H    -2.435368  -1.992292  4.868586
