35
Energy: -21190.3230334 eV PBE+vdW (tier 2 basis)
C    0.014770  -2.073857  0.989466
C    0.129130  -0.699973  1.620964
O    1.190466  -0.081495  1.658939
H    1.013223  -2.363087  0.650072
H    -0.655349  -2.052930  0.116632
H    -0.363537  -2.834404  1.690351
N    -1.008086  -0.160355  2.178521
C    -2.363817  -0.660769  2.096976
C    -3.225125  0.306727  1.265582
O    -3.052550  1.521893  1.326449
H    -0.915100  0.819994  2.439019
H    -2.327625  -1.646355  1.620034
C    -3.003973  -0.794623  3.501759
C    -2.408914  -1.925252  4.344644
C    -2.983087  -3.300136  3.982212
N    -2.357204  -4.388854  4.721282
C    -1.291651  -5.082930  4.183837
N    -0.895969  -6.162513  4.986677
N    -0.792539  -4.740971  3.044057
H    -4.092930  -0.935564  3.392901
H    -2.878001  0.172992  4.008625
H    -2.599997  -1.733355  5.410886
H    -1.315998  -1.944549  4.222216
H    -2.857746  -3.498591  2.906535
H    -4.061064  -3.320210  4.201504
H    -2.950823  -4.918731  5.346728
H    -0.919080  -5.981154  5.987143
H    -0.015171  -6.579026  4.704639
H    0.040725  -5.290027  2.823504
N    -4.216498  -0.245219  0.504300
C    -4.509316  -1.656800  0.312633
H    -4.779679  0.437397  0.007006
H    -5.364264  -1.742432  -0.366142
H    -4.780392  -2.159234  1.253134
H    -3.667547  -2.199597  -0.142448
