35
Energy: -21190.5802582 eV PBE+vdW (tier 2 basis)
C    -1.736685  0.941325  1.229935
C    -1.101395  0.112451  2.325196
O    -0.136634  0.527552  2.987884
H    -1.012397  1.063969  0.413558
H    -1.947858  1.940669  1.629281
H    -2.660043  0.498611  0.837769
N    -1.646977  -1.115985  2.518153
C    -1.285385  -2.000479  3.631503
C    0.026258  -2.805378  3.387814
O    0.059787  -4.036070  3.452697
H    -2.456915  -1.362798  1.943513
H    -1.081022  -1.344376  4.494765
C    -2.459810  -2.920477  3.977761
C    -2.879852  -3.897305  2.857943
C    -4.409717  -4.062942  2.677397
N    -4.871187  -3.892425  1.299263
C    -4.680766  -2.673940  0.667457
N    -4.642812  -2.748468  -0.719501
N    -4.508554  -1.521406  1.236960
H    -3.308817  -2.272078  4.250167
H    -2.194945  -3.478239  4.884818
H    -2.406422  -4.869150  3.034000
H    -2.469893  -3.556491  1.896510
H    -4.955871  -3.347049  3.311646
H    -4.746250  -5.055919  3.000570
H    -4.704131  -4.700396  0.706687
H    -5.200179  -3.480740  -1.146807
H    -4.779841  -1.842001  -1.155082
H    -4.571996  -1.605647  2.253702
N    1.100952  -2.016564  3.146905
C    2.422390  -2.550988  2.892288
H    0.938080  -1.001103  3.148647
H    2.784306  -2.256648  1.896507
H    2.365359  -3.643624  2.942944
H    3.143223  -2.196890  3.643149
