35
Energy: -21190.3422725 eV PBE+vdW (tier 2 basis)
C    -0.255636  0.463507  -0.355038
C    0.029119  0.402654  1.134883
O    1.132582  0.659429  1.603889
H    0.018357  1.459071  -0.724258
H    -1.301295  0.260932  -0.618151
H    0.389073  -0.263246  -0.865213
N    -1.044287  0.051531  1.922466
C    -0.888559  -0.227626  3.353320
C    -2.078425  -1.038619  3.873002
O    -1.920489  -2.008204  4.617176
H    -1.846590  -0.355997  1.454772
H    -0.006620  -0.868058  3.499647
C    -0.671925  1.068153  4.175839
C    -0.538020  0.823188  5.687880
C    -1.862658  0.969632  6.457575
N    -1.792523  0.482940  7.822471
C    -2.571101  -0.532101  8.351637
N    -3.087175  -1.431333  7.416347
N    -2.776935  -0.537471  9.628333
H    -1.496574  1.770873  3.966684
H    0.238219  1.530423  3.776137
H    0.194127  1.525571  6.111163
H    -0.134105  -0.182500  5.876299
H    -2.669126  0.428784  5.947155
H    -2.166951  2.031003  6.453819
H    -1.516793  1.140250  8.543697
H    -2.513576  -1.667415  6.604114
H    -3.496906  -2.254431  7.842563
H    -3.258146  -1.390653  9.921923
N    -3.312708  -0.605993  3.484110
C    -4.534143  -1.214368  3.992988
H    -3.380388  0.302005  3.036458
H    -4.428888  -2.304473  3.967667
H    -5.374267  -0.918056  3.356045
H    -4.737863  -0.917999  5.032844
