35
Energy: -21190.5263465 eV PBE+vdW (tier 2 basis)
C    0.320744  -1.803887  0.461423
C    0.214234  -1.563056  1.956051
O    0.979114  -2.092381  2.760281
H    1.326086  -1.517165  0.129003
H    -0.422019  -1.252857  -0.128320
H    0.207345  -2.878211  0.269943
N    -0.777678  -0.698004  2.335037
C    -1.126663  -0.478398  3.725177
C    -2.649432  -0.635221  3.850541
O    -3.402584  -0.341116  2.920857
H    -1.501747  -0.432457  1.671291
H    -0.598433  -1.248815  4.308723
C    -0.704336  0.920048  4.229149
C    0.810633  1.104285  4.303488
C    1.237826  2.533745  4.669160
N    0.683829  3.070210  5.907405
C    1.128983  2.634824  7.140215
N    0.374270  3.180107  8.197423
N    2.107885  1.801497  7.236250
H    -1.146658  1.072889  5.226816
H    -1.159498  1.672557  3.562726
H    1.265256  0.858786  3.332007
H    1.238442  0.404917  5.034634
H    0.951324  3.230307  3.866273
H    2.330727  2.565583  4.762786
H    -0.287873  3.357416  5.878483
H    0.783797  3.006282  9.109487
H    0.140243  4.163838  8.081938
H    2.394475  1.678193  8.210049
N    -3.083193  -1.073699  5.063263
C    -4.487585  -1.205590  5.402642
H    -2.385759  -1.328111  5.752775
H    -4.754550  -0.560491  6.251448
H    -4.739310  -2.245409  5.652685
H    -5.068274  -0.900971  4.525808
