35
Energy: -21190.2766497 eV PBE+vdW (tier 2 basis)
C    -0.340428  -0.400004  0.135955
C    -0.383995  -0.397559  1.649013
O    0.590439  -0.767283  2.304072
H    0.656602  -0.069068  -0.173590
H    -1.103988  0.208031  -0.356153
H    -0.483202  -1.435780  -0.197691
N    -1.529561  -0.015663  2.309092
C    -2.801687  0.545069  1.868457
C    -3.416074  -0.231917  0.667544
O    -3.206065  -1.434911  0.525925
H    -1.423031  -0.138703  3.311580
H    -3.506799  0.299712  2.681215
C    -2.785715  2.086173  1.787674
C    -1.821874  2.717846  0.773903
C    -2.196603  4.157130  0.396910
N    -3.409489  4.211460  -0.437173
C    -4.683764  4.180068  0.114624
N    -4.907896  5.145042  1.082802
N    -5.518017  3.269626  -0.284063
H    -2.538211  2.464489  2.791826
H    -3.814553  2.424164  1.601845
H    -1.806949  2.132005  -0.157801
H    -0.792745  2.692365  1.162273
H    -1.376419  4.624057  -0.166484
H    -2.360335  4.770733  1.292773
H    -3.374851  3.540854  -1.203493
H    -5.855750  5.215578  1.431630
H    -4.444007  6.037892  0.951398
H    -6.469021  3.450149  0.048589
N    -4.234384  0.466939  -0.163073
C    -4.944076  -0.216784  -1.231049
H    -4.520499  1.437096  0.000599
H    -4.240132  -0.714223  -1.911164
H    -5.521309  0.531760  -1.783825
H    -5.624021  -0.986958  -0.838472
