35
Energy: -21190.5989613 eV PBE+vdW (tier 2 basis)
C    -0.008250  0.061280  0.902839
C    0.122522  0.197943  2.411913
O    1.162845  -0.112914  2.990166
H    0.999887  0.010383  0.482258
H    -0.560336  0.888430  0.436681
H    -0.531660  -0.871921  0.651182
N    -0.963908  0.654154  3.111053
C    -2.209653  1.203807  2.609315
C    -2.755562  2.113048  3.745140
O    -2.106690  2.286507  4.781701
H    -0.785753  0.896163  4.089354
H    -2.013759  1.875020  1.754349
C    -3.201846  0.119223  2.127369
C    -3.770581  -0.789282  3.233401
C    -5.186087  -0.432339  3.711057
N    -6.216743  -0.567661  2.687005
C    -6.698925  0.462344  1.922484
N    -7.689615  0.047801  1.027709
N    -6.231472  1.670446  2.016732
H    -2.667861  -0.493365  1.389913
H    -4.018118  0.600118  1.570399
H    -3.097781  -0.789582  4.105528
H    -3.784349  -1.832133  2.879654
H    -5.237389  0.595733  4.083870
H    -5.460129  -1.091052  4.549023
H    -6.371120  -1.498592  2.316887
H    -8.145088  0.801053  0.525312
H    -8.352507  -0.633147  1.387322
H    -6.792496  2.324182  1.468235
N    -3.942515  2.714515  3.509712
C    -4.549719  3.546974  4.534725
H    -4.589509  2.354172  2.788732
H    -5.563997  3.801528  4.209432
H    -3.975555  4.470996  4.684810
H    -4.598598  3.027274  5.503208
