35
Energy: -21190.114552 eV PBE+vdW (tier 2 basis)
C    0.177574  -0.362199  -0.356699
C    0.208984  -0.477699  1.156763
O    0.892100  -1.315659  1.738348
H    -0.411534  0.486417  -0.726292
H    -0.237525  -1.290389  -0.769858
H    1.206446  -0.271292  -0.724650
N    -0.572545  0.427481  1.831008
C    -0.780007  0.330104  3.279694
C    -2.111426  1.003894  3.662759
O    -3.016221  0.339118  4.159782
H    -1.233038  0.977562  1.294185
H    -0.941732  -0.728718  3.524711
C    0.441631  0.819645  4.088109
C    0.149951  1.003292  5.576996
C    1.385261  1.479750  6.351948
N    1.096705  1.974177  7.699730
C    0.340817  3.127705  7.911240
N    0.547027  4.130856  6.956168
N    -0.489530  3.347495  8.871270
H    0.809726  1.765975  3.666413
H    1.241436  0.081673  3.933839
H    -0.226851  0.065596  6.015252
H    -0.647271  1.749170  5.718234
H    1.888887  2.275540  5.784731
H    2.121306  0.668741  6.448394
H    0.855613  1.241676  8.360825
H    0.112074  4.994738  7.268833
H    1.518109  4.270122  6.688313
H    -0.663400  2.499412  9.417713
N    -2.291683  2.340790  3.398230
C    -1.301355  3.374964  3.123572
H    -3.194737  2.661673  3.738519
H    -0.550393  3.021454  2.408927
H    -0.785792  3.718335  4.035329
H    -1.811421  4.233037  2.670061
