35
Energy: -21189.978876 eV PBE+vdW (tier 2 basis)
C    0.478744  -1.072984  0.549637
C    0.266864  0.155875  1.409716
O    1.202548  0.897763  1.699719
H    0.770162  -1.902949  1.207154
H    1.305996  -0.864172  -0.135499
H    -0.398328  -1.396476  -0.020112
N    -0.989464  0.428433  1.907508
C    -2.285077  -0.203894  1.699959
C    -2.202041  -1.751539  1.802624
O    -1.532767  -2.281810  2.681584
H    -0.972521  1.228523  2.532841
H    -2.867513  0.040383  2.604047
C    -3.069926  0.421930  0.520289
C    -2.414110  0.372406  -0.861647
C    -3.243434  1.103841  -1.918136
N    -2.588877  1.047654  -3.212869
C    -3.201210  1.251627  -4.441740
N    -4.588111  1.410519  -4.383229
N    -2.623592  1.228400  -5.594913
H    -3.233327  1.478565  0.786039
H    -4.081927  -0.017735  0.486610
H    -2.254587  -0.662307  -1.201536
H    -1.417504  0.837304  -0.801972
H    -3.422479  2.144749  -1.578527
H    -4.227746  0.622111  -2.015325
H    -1.584756  1.183086  -3.215845
H    -4.949981  1.624468  -5.308377
H    -4.934378  2.054436  -3.677533
H    -1.638701  0.960594  -5.516379
N    -2.963805  -2.455497  0.916567
C    -3.049154  -3.904245  0.943852
H    -3.479447  -1.953667  0.205783
H    -4.083454  -4.237886  1.104790
H    -2.426543  -4.255120  1.773132
H    -2.676269  -4.340357  0.006790
