35
Energy: -21190.2646462 eV PBE+vdW (tier 2 basis)
C    -1.221063  -0.246760  -0.480271
C    -0.550339  -0.047163  0.863928
O    0.632758  -0.314414  1.059824
H    -0.450951  -0.554692  -1.192324
H    -1.685144  0.681858  -0.842871
H    -1.999005  -1.025886  -0.449940
N    -1.316613  0.468475  1.887934
C    -2.750783  0.734188  1.887993
C    -3.081203  1.982518  2.728066
O    -3.596620  2.976396  2.222834
H    -0.799357  0.564806  2.757500
H    -3.026072  1.035051  0.871046
C    -3.581819  -0.498316  2.303662
C    -5.101826  -0.289725  2.312270
C    -5.706009  0.197015  0.978696
N    -5.249648  -0.502999  -0.224702
C    -5.255433  -1.884589  -0.356983
N    -6.389108  -2.503554  0.170760
N    -4.239340  -2.459582  -0.909513
H    -3.258099  -0.833694  3.302667
H    -3.319368  -1.317815  1.619281
H    -5.386624  0.438588  3.089002
H    -5.572137  -1.242697  2.593007
H    -5.472953  1.258097  0.820144
H    -6.803534  0.144853  1.049119
H    -4.398695  -0.131828  -0.636155
H    -7.257373  -1.982503  0.086577
H    -6.491182  -3.479333  -0.083010
H    -4.414549  -3.451414  -1.089608
N    -2.771397  1.892923  4.056106
C    -3.017283  2.973629  4.993680
H    -2.453135  1.003189  4.422602
H    -2.114061  3.196937  5.576437
H    -3.837675  2.731358  5.684899
H    -3.299259  3.856895  4.411559
