35
Energy: -21190.4504209 eV PBE+vdW (tier 2 basis)
C    0.295550  -2.166146  -0.304290
C    0.913924  -0.967292  0.389161
O    1.651156  -0.174461  -0.197797
H    1.099930  -2.783778  -0.722451
H    -0.314453  -1.811336  -1.144295
H    -0.326640  -2.784368  0.354221
N    0.597249  -0.825788  1.709875
C    1.126009  0.255151  2.518611
C    1.220790  -0.269884  3.957361
O    0.338919  -0.989882  4.428243
H    0.004297  -1.493138  2.195346
H    2.120175  0.506113  2.116802
C    0.228415  1.511900  2.440290
C    0.779501  2.735176  3.171735
C    -0.104770  3.978951  2.974733
N    0.342969  5.163513  3.683252
C    0.072587  5.483292  5.004007
N    -0.819073  4.624112  5.648492
N    0.503887  6.519877  5.642612
H    -0.766349  1.246732  2.831655
H    0.104674  1.741276  1.371363
H    1.796580  2.964568  2.811297
H    0.877626  2.528821  4.249637
H    -1.138521  3.762705  3.282819
H    -0.154398  4.223591  1.902867
H    1.086415  5.703735  3.260161
H    -0.896593  4.872653  6.630031
H    -0.680409  3.628263  5.507883
H    1.028818  7.147503  5.027509
N    2.313374  0.140688  4.654947
C    2.533579  -0.192389  6.050584
H    2.998204  0.709769  4.171930
H    1.691833  -0.810457  6.379215
H    2.579873  0.712811  6.671827
H    3.464870  -0.760282  6.179366
