35
Energy: -21190.406129 eV PBE+vdW (tier 2 basis)
C    0.113604  -2.183157  0.893986
C    -0.063007  -0.711511  1.191732
O    0.909647  0.032244  1.377866
H    0.372625  -2.310250  -0.166913
H    -0.773165  -2.785660  1.117157
H    0.968810  -2.539444  1.478131
N    -1.329361  -0.197659  1.282062
C    -2.612442  -0.656401  0.733670
C    -3.275763  -1.672529  1.694077
O    -3.121911  -2.887894  1.586293
H    -1.330811  0.793688  1.512619
H    -3.221675  0.259855  0.745238
C    -2.592224  -1.201643  -0.702274
C    -1.749835  -0.452504  -1.746045
C    -1.995377  1.063830  -1.932634
N    -1.100477  1.923674  -1.178697
C    -1.383041  2.531138  0.026054
N    -0.232030  2.890198  0.724701
N    -2.551818  2.795785  0.528756
H    -3.642479  -1.227623  -1.035152
H    -2.273983  -2.252593  -0.675828
H    -1.935581  -0.948292  -2.710921
H    -0.677322  -0.596410  -1.546443
H    -3.030708  1.326366  -1.672859
H    -1.885164  1.313819  -2.998210
H    -0.114288  1.858380  -1.406315
H    -0.463503  3.372893  1.587982
H    0.441251  2.130676  0.871487
H    -3.292991  2.645656  -0.161581
N    -4.017989  -1.091106  2.677443
C    -4.622402  -1.846064  3.758734
H    -4.042007  -0.078229  2.716440
H    -4.553632  -2.907952  3.500835
H    -5.678154  -1.571541  3.881458
H    -4.097455  -1.679401  4.710838
