35
Energy: -21190.2603415 eV PBE+vdW (tier 2 basis)
C    0.894299  -0.157008  1.585312
C    0.414157  0.499968  2.871352
O    1.192072  0.757765  3.786929
H    1.971905  -0.314316  1.678557
H    0.705603  0.480585  0.709502
H    0.406368  -1.123988  1.406827
N    -0.921271  0.791963  2.980431
C    -1.965124  0.673170  1.983277
C    -2.758004  1.996404  1.967082
O    -2.780443  2.723225  2.959644
H    -1.169822  1.372947  3.781682
H    -1.501982  0.500343  1.002106
C    -2.959870  -0.472898  2.278065
C    -2.341678  -1.870316  2.249198
C    -3.381225  -2.998243  2.347464
N    -4.230645  -3.139518  1.159007
C    -5.312543  -2.305429  0.877064
N    -6.083397  -1.970695  1.984921
N    -5.645536  -1.842821  -0.283650
H    -3.777850  -0.415655  1.548135
H    -3.416995  -0.285439  3.261765
H    -1.616865  -1.979278  3.070974
H    -1.771569  -2.009666  1.314034
H    -4.023886  -2.842973  3.223793
H    -2.870329  -3.959463  2.501866
H    -3.702747  -3.356803  0.318270
H    -6.940497  -1.502353  1.708284
H    -6.236778  -2.716250  2.656821
H    -4.925386  -2.050294  -0.981547
N    -3.459547  2.302612  0.838594
C    -3.621171  1.522759  -0.379361
H    -4.031436  3.135716  0.943408
H    -3.891791  2.200893  -1.196746
H    -4.402268  0.750089  -0.295753
H    -2.678559  1.036522  -0.659697
