35
Energy: -21190.2823348 eV PBE+vdW (tier 2 basis)
C    -0.235108  -2.446536  -1.264137
C    0.395329  -1.431011  -0.333192
O    1.608135  -1.246738  -0.299972
H    0.506199  -3.225951  -1.463661
H    -0.473100  -1.955471  -2.218081
H    -1.156520  -2.900038  -0.881783
N    -0.432584  -0.701452  0.502091
C    -1.894535  -0.606453  0.513099
C    -2.577985  -1.930398  0.951891
O    -3.669922  -2.274779  0.501728
H    0.078814  0.028852  0.990069
H    -2.117156  0.102914  1.327077
C    -2.526348  -0.036621  -0.771234
C    -3.913484  0.600301  -0.540617
C    -4.990238  0.033466  -1.480184
N    -6.340728  0.488258  -1.203583
C    -7.065139  -0.014347  -0.122488
N    -8.251040  0.707964  0.088874
N    -6.777880  -1.000450  0.649688
H    -2.609761  -0.839443  -1.517450
H    -1.825216  0.703127  -1.179907
H    -3.855182  1.692151  -0.667644
H    -4.244280  0.428315  0.493353
H    -4.976894  -1.063233  -1.412577
H    -4.755407  0.289389  -2.524687
H    -6.517937  1.469749  -1.396854
H    -8.825941  0.234767  0.780786
H    -8.775659  0.903824  -0.760515
H    -5.839458  -1.376540  0.488281
N    -1.897151  -2.630680  1.895257
C    -2.385073  -3.876508  2.455003
H    -0.961979  -2.309606  2.122359
H    -3.421994  -4.007656  2.128801
H    -2.353495  -3.845958  3.551868
H    -1.792527  -4.734898  2.106396
