35
Energy: -21190.0235392 eV PBE+vdW (tier 2 basis)
C    -1.564608  -1.742678  0.657298
C    -0.725678  -1.315133  1.841192
O    0.216913  -1.994084  2.242421
H    -1.236498  -1.210635  -0.246594
H    -2.632045  -1.562039  0.817510
H    -1.389422  -2.810921  0.501781
N    -0.972844  -0.101803  2.461842
C    -2.046703  0.878449  2.355634
C    -3.396751  0.346453  2.898072
O    -3.750261  -0.820294  2.761613
H    -0.357931  0.010371  3.262347
H    -1.723013  1.699399  3.013007
C    -2.252602  1.507791  0.958689
C    -1.077850  2.355607  0.447142
C    0.086376  1.567053  -0.182308
N    1.106301  2.400000  -0.792464
C    0.926287  3.017573  -2.023116
N    1.963346  3.908795  -2.326180
N    -0.039869  2.866964  -2.863144
H    -3.144529  2.148887  1.023052
H    -2.513528  0.726329  0.231750
H    -0.685476  2.978673  1.268614
H    -1.458944  3.058686  -0.308233
H    -0.299787  0.886218  -0.956520
H    0.576052  0.931809  0.565925
H    1.712310  2.898978  -0.149306
H    1.878160  4.235278  -3.284807
H    2.895655  3.551767  -2.132107
H    -0.792432  2.290337  -2.481044
N    -4.203969  1.262905  3.517634
C    -3.917440  2.648052  3.855022
H    -5.083100  0.866815  3.835350
H    -3.704775  3.260185  2.966708
H    -3.075476  2.743772  4.557586
H    -4.801977  3.073550  4.340293
