35
Energy: -21190.322249 eV PBE+vdW (tier 2 basis)
C    -0.299237  -0.224242  0.380610
C    -0.612977  -0.009007  1.847082
O    0.264450  0.255130  2.663786
H    -0.315583  0.747057  -0.133677
H    -0.995057  -0.894883  -0.135555
H    0.718711  -0.619582  0.309383
N    -1.926332  -0.129937  2.266943
C    -3.160389  -0.232668  1.481570
C    -3.358665  -1.611165  0.795616
O    -4.130698  -1.741894  -0.150515
H    -2.025853  0.125763  3.245324
H    -3.966092  -0.193782  2.233886
C    -3.414482  0.918890  0.495453
C    -3.384488  2.294723  1.158768
C    -3.676354  3.418518  0.166913
N    -3.622441  4.713100  0.823516
C    -3.956804  5.876706  0.135185
N    -3.694170  7.027299  0.886558
N    -4.446433  5.987850  -1.050520
H    -4.392513  0.730548  0.032959
H    -2.686549  0.877589  -0.327426
H    -2.397332  2.466937  1.619761
H    -4.122284  2.339658  1.976497
H    -4.686067  3.286707  -0.251947
H    -2.968016  3.356107  -0.683283
H    -2.847933  4.828200  1.472101
H    -4.062160  7.851566  0.420276
H    -3.986839  6.974479  1.858690
H    -4.456067  5.091495  -1.541947
N    -2.667582  -2.635511  1.363097
C    -2.760186  -4.002498  0.890409
H    -2.034364  -2.402542  2.120447
H    -3.105620  -4.674155  1.688231
H    -1.790085  -4.362751  0.520077
H    -3.484413  -4.022014  0.069094
