35
Energy: -21190.2933238 eV PBE+vdW (tier 2 basis)
C    0.616209  1.571414  0.605995
C    0.470298  1.380966  2.102601
O    1.408306  1.649035  2.866303
H    0.943363  2.599919  0.412642
H    -0.297837  1.369537  0.034934
H    1.411457  0.904442  0.247966
N    -0.733984  0.897718  2.512471
C    -1.222908  0.522886  3.857034
C    -1.198189  1.601838  4.972016
O    -2.108635  1.589702  5.803243
H    -1.415011  0.762464  1.775358
H    -2.301065  0.381849  3.708623
C    -0.696311  -0.829205  4.396949
C    0.800880  -0.936893  4.730790
C    1.648344  -1.505640  3.578368
N    3.086714  -1.400623  3.759663
C    3.799242  -2.075799  4.740972
N    3.365250  -3.377667  5.002939
N    4.840993  -1.508101  5.249166
H    -0.977897  -1.614220  3.675082
H    -1.294094  -1.020239  5.299155
H    0.927719  -1.581293  5.613523
H    1.206784  0.042811  5.014714
H    1.414620  -0.982122  2.643334
H    1.371908  -2.557113  3.390177
H    3.453334  -0.457708  3.653599
H    3.631443  -3.733907  5.912471
H    2.413447  -3.617166  4.748063
H    5.356849  -2.150941  5.855436
N    -0.167126  2.472452  4.990930
C    -0.045037  3.471519  6.036691
H    0.598544  2.321173  4.322495
H    0.701392  4.212682  5.731992
H    0.264678  3.025756  6.994154
H    -1.008987  3.969439  6.196958
