35
Energy: -21190.1913312 eV PBE+vdW (tier 2 basis)
C    -0.189547  -0.120287  0.114890
C    -0.233999  -0.067788  1.627925
O    0.742941  0.235684  2.307415
H    0.777432  -0.524507  -0.202449
H    -0.265006  0.908122  -0.265044
H    -0.998436  -0.714912  -0.327898
N    -1.444263  -0.396210  2.193634
C    -1.760164  -0.058375  3.587246
C    -1.265380  1.383902  3.889080
O    -1.553307  2.295537  3.118413
H    -2.233694  -0.423925  1.558543
H    -2.854287  0.066994  3.600183
C    -1.475598  -1.177454  4.609932
C    -0.058617  -1.744209  4.804954
C    0.466902  -2.676082  3.690253
N    -0.492990  -3.630551  3.139719
C    -1.127473  -4.619077  3.884708
N    -0.383165  -5.096453  4.962601
N    -2.302582  -5.110711  3.671354
H    -2.145628  -2.015427  4.364309
H    -1.844416  -0.813146  5.581876
H    -0.075298  -2.312276  5.746322
H    0.690345  -0.945882  4.922845
H    1.342873  -3.217599  4.077068
H    0.838549  -2.080797  2.850554
H    -1.096397  -3.234214  2.426951
H    -0.806390  -5.935525  5.347246
H    0.613747  -5.198536  4.797568
H    -2.792386  -4.593268  2.935950
N    -0.624118  1.579596  5.071896
C    -0.088907  2.879879  5.433251
H    -0.266258  0.766097  5.556313
H    -0.036303  2.967524  6.524749
H    -0.755573  3.652743  5.037248
H    0.913252  3.042620  5.007472
