35
Energy: -21190.5704403 eV PBE+vdW (tier 2 basis)
C    -0.785373  0.444607  -1.090452
C    -0.486730  1.115328  0.233835
O    0.469529  1.866792  0.399178
H    -0.608530  -0.639535  -1.029845
H    -0.111287  0.869741  -1.838438
H    -1.826579  0.569901  -1.415612
N    -1.351563  0.861675  1.285904
C    -2.429089  -0.112851  1.335124
C    -3.842681  0.502333  1.388742
O    -4.835966  -0.229975  1.478883
H    -1.011096  1.236800  2.169256
H    -2.425834  -0.627242  0.365512
C    -2.227258  -1.162580  2.458433
C    -1.734922  -2.528184  1.957746
C    -2.860902  -3.440318  1.430271
N    -3.724728  -2.880829  0.391318
C    -3.282835  -2.543203  -0.879197
N    -2.154918  -3.235117  -1.326369
N    -3.796791  -1.639457  -1.649147
H    -3.173094  -1.289874  3.004198
H    -1.502917  -0.752259  3.176828
H    -1.242288  -3.066222  2.782750
H    -0.968392  -2.388665  1.180050
H    -3.525960  -3.706209  2.265115
H    -2.427206  -4.390786  1.084224
H    -4.399151  -2.201748  0.750774
H    -2.037674  -3.114198  -2.328062
H    -2.091596  -4.207790  -1.041866
H    -4.558468  -1.149314  -1.171523
N    -3.903162  1.848681  1.286113
C    -5.149746  2.585846  1.222098
H    -3.016823  2.330902  1.169220
H    -5.177371  3.372537  1.987490
H    -5.966711  1.879169  1.401895
H    -5.289351  3.046706  0.234085
