35
Energy: -21190.3864314 eV PBE+vdW (tier 2 basis)
C    -0.285894  0.211341  -0.143602
C    -0.403319  0.577232  1.328110
O    -0.009401  1.661416  1.761198
H    -1.004733  0.815954  -0.713384
H    -0.478832  -0.849914  -0.343318
H    0.715691  0.485788  -0.495635
N    -1.008876  -0.375615  2.096619
C    -1.168104  -0.311820  3.549178
C    -1.195448  1.123253  4.135004
O    -0.386521  1.476330  4.988528
H    -1.130852  -1.309130  1.672389
H    -2.166604  -0.733787  3.764842
C    -0.146970  -1.186129  4.303043
C    1.336048  -0.944229  3.951561
C    2.026041  -2.155910  3.311236
N    1.434849  -2.551225  2.023185
C    0.396960  -3.452988  1.899885
N    0.537363  -4.607229  2.658968
N    -0.611653  -3.162928  1.131127
H    -0.410354  -2.236990  4.111737
H    -0.308996  -1.016850  5.374679
H    1.893864  -0.670332  4.857668
H    1.435406  -0.075584  3.284713
H    1.979835  -3.020573  3.986444
H    3.091112  -1.935944  3.145914
H    1.288812  -1.766158  1.394324
H    -0.151264  -5.329011  2.485560
H    1.481398  -4.960992  2.776501
H    -1.214725  -3.973793  0.974150
N    -2.267163  1.912652  3.809640
C    -3.211552  1.737650  2.722125
H    -2.168619  2.850942  4.186249
H    -3.518322  0.688521  2.640122
H    -2.802683  2.055195  1.749606
H    -4.109754  2.329962  2.935403
