35
Energy: -21190.7176504 eV PBE+vdW (tier 2 basis)
C    -0.137278  0.936566  -1.656752
C    -0.037675  0.545542  -0.197181
O    0.996178  0.733689  0.464257
H    0.703526  0.490508  -2.201807
H    -0.029710  2.026951  -1.734334
H    -1.082852  0.626424  -2.118243
N    -1.153677  -0.018747  0.330720
C    -1.285405  -0.354216  1.750743
C    -0.639099  -1.725326  2.105319
O    -1.289946  -2.658528  2.578241
H    -1.947730  -0.176244  -0.299229
H    -0.704949  0.407768  2.296641
C    -2.746682  -0.275100  2.200877
C    -3.719502  -1.226676  1.474952
C    -5.035603  -0.565038  1.029485
N    -4.872596  0.685239  0.296384
C    -4.151367  0.820474  -0.864165
N    -3.967940  2.145398  -1.249220
N    -3.638578  -0.126237  -1.590862
H    -3.071201  0.766102  2.054032
H    -2.773830  -0.469722  3.280471
H    -3.970652  -2.074038  2.124102
H    -3.226777  -1.686035  0.607873
H    -5.639845  -0.316663  1.912830
H    -5.627548  -1.291186  0.444119
H    -5.438767  1.475096  0.578057
H    -3.379326  2.219901  -2.072885
H    -3.703459  2.790381  -0.510444
H    -4.009817  -1.040602  -1.323022
N    0.696101  -1.757052  1.868038
C    1.504249  -2.937797  2.091105
H    1.114147  -0.908344  1.469592
H    1.923259  -3.319477  1.148417
H    0.865572  -3.709631  2.533845
H    2.333760  -2.722012  2.779065
