35
Energy: -21190.1465694 eV PBE+vdW (tier 2 basis)
C    0.003378  0.500024  -0.266263
C    -0.272023  1.016284  1.135534
O    -0.089971  2.186623  1.453079
H    1.083867  0.554147  -0.452233
H    -0.485544  1.164278  -0.988376
H    -0.332732  -0.530177  -0.438420
N    -0.754575  0.083219  2.017399
C    -0.959670  0.334297  3.444214
C    -1.648095  1.698002  3.727468
O    -1.175927  2.493564  4.532221
H    -0.825755  -0.876659  1.702028
H    -1.667496  -0.442884  3.783238
C    0.342288  0.195014  4.248958
C    0.123872  -0.051793  5.742573
C    1.443401  -0.215843  6.492984
N    1.205040  -0.452548  7.907207
C    2.249569  -0.776525  8.766193
N    1.839565  -0.821776  10.103912
N    3.479564  -1.021075  8.470436
H    0.938177  1.105312  4.095635
H    0.907019  -0.646123  3.816341
H    -0.485373  -0.958480  5.893838
H    -0.436180  0.795017  6.165652
H    2.077685  0.675976  6.324589
H    1.994360  -1.081233  6.091448
H    0.499073  0.149421  8.322868
H    2.582735  -1.185320  10.693557
H    0.957096  -1.301884  10.259515
H    3.678911  -0.810049  7.490176
N    -2.862547  1.929707  3.141148
C    -3.571040  1.157843  2.138303
H    -3.209103  2.862370  3.343251
H    -4.630080  1.441307  2.164931
H    -3.515283  0.083644  2.353221
H    -3.191392  1.327777  1.118416
