35
Energy: -21190.0554143 eV PBE+vdW (tier 2 basis)
C    -0.659026  -1.620398  0.550503
C    -0.653145  -0.522579  1.601544
O    -0.032375  0.525752  1.430645
H    0.345423  -2.061494  0.502097
H    -0.866132  -1.169297  -0.426557
H    -1.383297  -2.422315  0.740129
N    -1.378207  -0.812562  2.728067
C    -1.517554  -0.068870  3.986025
C    -2.875972  0.652877  4.186569
O    -3.476753  0.466451  5.246843
H    -1.852002  -1.708010  2.722517
H    -1.584390  -0.841412  4.764005
C    -0.346266  0.857076  4.367259
C    1.011152  0.157733  4.500598
C    1.044587  -0.960696  5.542251
N    2.382981  -1.514335  5.649024
C    2.718192  -2.724067  6.232823
N    1.627310  -3.481989  6.666150
N    3.905027  -3.222025  6.340221
H    -0.629077  1.304314  5.333009
H    -0.251799  1.675105  3.645394
H    1.752638  0.925376  4.777236
H    1.331854  -0.239810  3.528054
H    0.369683  -1.776443  5.243789
H    0.672916  -0.568299  6.511321
H    3.154624  -0.871312  5.520909
H    1.952751  -4.304928  7.165087
H    0.908415  -2.978541  7.178098
H    4.598352  -2.639875  5.862377
N    -3.376591  1.488545  3.235671
C    -2.851636  1.876121  1.937022
H    -4.280115  1.866435  3.506449
H    -3.142621  2.913802  1.732732
H    -3.243663  1.240978  1.126767
H    -1.758813  1.819376  1.910171
