35
Energy: -21190.3130646 eV PBE+vdW (tier 2 basis)
C    -0.383300  0.677205  -0.125375
C    -0.241039  0.789796  1.378134
O    0.795018  1.184077  1.907573
H    0.619529  0.584146  -0.552135
H    -0.841838  1.595510  -0.518539
H    -1.004508  -0.167154  -0.446867
N    -1.315389  0.417166  2.167046
C    -2.702016  0.135102  1.773705
C    -2.873645  -1.252516  1.100555
O    -3.845798  -1.505305  0.392663
H    -1.152849  0.639511  3.145170
H    -3.242065  0.036757  2.730571
C    -3.381364  1.263831  0.973443
C    -4.888083  1.382501  1.209429
C    -5.510859  2.543876  0.427583
N    -5.005726  3.856805  0.826808
C    -4.128604  4.566841  0.027619
N    -3.926453  5.876591  0.496876
N    -3.615511  4.039117  -1.031103
H    -3.200552  1.133792  -0.100943
H    -2.898790  2.207829  1.263379
H    -5.087849  1.519139  2.286718
H    -5.383098  0.450208  0.902948
H    -6.601454  2.538278  0.567171
H    -5.310130  2.423585  -0.646171
H    -5.635685  4.427981  1.376538
H    -3.143673  6.346400  0.054555
H    -3.882279  5.962864  1.509661
H    -2.938404  4.669211  -1.465912
N    -1.903207  -2.156807  1.405115
C    -1.905908  -3.513037  0.896234
H    -1.117168  -1.819255  1.950513
H    -1.875742  -4.243067  1.716847
H    -1.048877  -3.693490  0.231514
H    -2.831335  -3.652609  0.327092
