35
Energy: -21190.1750602 eV PBE+vdW (tier 2 basis)
C    0.265275  1.275687  1.757184
C    0.178464  -0.137707  2.295028
O    0.999113  -0.601502  3.083351
H    -0.542577  1.902189  2.161458
H    0.177215  1.308398  0.662902
H    1.226695  1.696514  2.061711
N    -0.876234  -0.908586  1.859369
C    -2.023389  -0.493374  1.065636
C    -2.925169  0.572942  1.728445
O    -3.338634  1.514255  1.048172
H    -0.884376  -1.840892  2.264439
H    -1.671632  0.019399  0.158031
C    -2.798189  -1.747920  0.612985
C    -3.997623  -1.500814  -0.314389
C    -5.317181  -1.179659  0.413207
N    -6.472676  -1.093914  -0.459801
C    -7.102009  -2.221113  -0.972472
N    -8.065183  -1.899951  -1.935421
N    -6.901789  -3.458891  -0.671286
H    -3.127813  -2.320148  1.497198
H    -2.066048  -2.385308  0.095231
H    -4.153813  -2.400224  -0.926771
H    -3.767456  -0.684069  -1.015459
H    -5.240753  -0.224261  0.946313
H    -5.522066  -1.949094  1.174737
H    -6.503137  -0.276067  -1.060516
H    -8.607560  -2.722197  -2.184482
H    -8.659372  -1.110480  -1.695812
H    -6.093331  -3.575296  -0.056820
N    -3.264210  0.459935  3.045864
C    -2.937521  -0.566412  4.027182
H    -3.836190  1.237924  3.359974
H    -3.112546  -1.576000  3.634837
H    -3.604555  -0.435196  4.886341
H    -1.899805  -0.500017  4.381682
