35
Energy: -21190.2727372 eV PBE+vdW (tier 2 basis)
C    -0.298307  0.963992  0.613102
C    0.018513  0.144626  1.848221
O    1.085541  0.232555  2.450549
H    -0.602749  0.327067  -0.229129
H    -1.120943  1.669117  0.798607
H    0.598628  1.525423  0.340371
N    -0.951613  -0.731677  2.280565
C    -2.310581  -0.872626  1.782914
C    -3.236944  0.320168  2.104410
O    -3.937401  0.801076  1.202067
H    -0.678105  -1.265040  3.101441
H    -2.279504  -0.877762  0.686355
C    -2.872221  -2.238040  2.225224
C    -4.361363  -2.512285  1.969700
C    -4.874801  -2.259855  0.536313
N    -3.910046  -2.607162  -0.495301
C    -3.716263  -1.869987  -1.662408
N    -3.988416  -0.514876  -1.564405
N    -3.311414  -2.512386  -2.709646
H    -2.682671  -2.376499  3.302360
H    -2.266247  -2.992227  1.703464
H    -4.983561  -1.916735  2.656420
H    -4.537195  -3.563544  2.244971
H    -5.126410  -1.201905  0.424833
H    -5.822065  -2.811842  0.400997
H    -3.807268  -3.595966  -0.705832
H    -3.683781  0.040808  -2.352610
H    -3.934474  -0.038933  -0.659951
H    -3.092658  -1.871890  -3.476462
N    -3.282009  0.843463  3.357367
C    -2.558935  0.457484  4.561302
H    -3.897055  1.649419  3.419521
H    -2.612785  -0.623984  4.736287
H    -3.038486  0.947492  5.415573
H    -1.503591  0.761925  4.533099
