35
Energy: -21190.4649023 eV PBE+vdW (tier 2 basis)
C    0.041513  0.421407  0.067878
C    0.035316  0.248405  1.575174
O    1.066936  0.040961  2.215076
H    0.756227  1.210716  -0.194619
H    -0.940981  0.671290  -0.350308
H    0.399933  -0.509003  -0.390767
N    -1.192206  0.355164  2.166383
C    -1.411326  0.061607  3.568350
C    -2.682521  -0.799293  3.659919
O    -3.570932  -0.720667  2.811786
H    -2.039241  0.371654  1.601977
H    -0.530131  -0.499326  3.918871
C    -1.577385  1.339852  4.422697
C    -0.320266  2.209193  4.454045
C    -0.486933  3.492393  5.283955
N    -1.509737  4.423928  4.816980
C    -1.500449  4.989502  3.546487
N    -0.254072  5.424246  3.100945
N    -2.627310  5.150994  2.938180
H    -1.852101  1.044125  5.449192
H    -2.427071  1.910468  4.016604
H    -0.036008  2.475352  3.425446
H    0.525981  1.632684  4.859520
H    0.481488  4.014340  5.352209
H    -0.746469  3.240518  6.323046
H    -2.464463  4.174860  5.058968
H    0.570922  5.059985  3.563797
H    -0.154331  5.489928  2.095955
H    -2.516536  5.709726  2.087966
N    -2.753907  -1.604208  4.754899
C    -3.908063  -2.431442  5.054998
H    -1.952507  -1.639113  5.373532
H    -3.639376  -3.496599  5.072476
H    -4.646913  -2.264851  4.264430
H    -4.351611  -2.159100  6.022782
