35
Energy: -21190.2807228 eV PBE+vdW (tier 2 basis)
C    -0.566219  -0.958181  2.446965
C    -1.248680  -0.600786  3.751832
O    -0.816855  -0.986067  4.837049
H    -0.634820  -0.167160  1.687654
H    -1.008705  -1.875058  2.022416
H    0.486339  -1.162618  2.664624
N    -2.383710  0.172330  3.695094
C    -3.122291  0.637054  2.539208
C    -4.104729  1.705902  3.045758
O    -4.511781  1.702569  4.206950
H    -2.825745  0.377485  4.591288
H    -2.430404  1.096997  1.816388
C    -3.894584  -0.493592  1.800875
C    -4.836024  -1.300131  2.697853
C    -5.254269  -2.642619  2.082468
N    -4.130605  -3.560970  1.880461
C    -3.405815  -3.641933  0.702079
N    -4.185955  -3.586175  -0.457110
N    -2.117832  -3.737138  0.761579
H    -3.139145  -1.158997  1.362689
H    -4.452055  -0.065388  0.953541
H    -5.740133  -0.720807  2.940801
H    -4.339877  -1.499683  3.660728
H    -5.745223  -2.483006  1.113424
H    -5.992130  -3.128367  2.738430
H    -3.496493  -3.625950  2.674509
H    -3.674758  -3.802823  -1.305310
H    -5.076151  -4.074586  -0.406976
H    -1.714208  -3.963322  -0.151169
N    -4.549879  2.623512  2.138286
C    -4.051311  2.874462  0.794689
H    -5.204138  3.289976  2.535823
H    -4.612841  3.714496  0.372827
H    -4.197204  2.012361  0.129543
H    -2.985041  3.146082  0.788448
