35
Energy: -21190.2395024 eV PBE+vdW (tier 2 basis)
C    -0.730718  1.287703  0.748348
C    -0.383321  0.900802  2.171240
O    0.014888  1.711682  3.003673
H    -0.430748  2.327339  0.595929
H    -1.811173  1.197989  0.566074
H    -0.227003  0.647011  0.011957
N    -0.530900  -0.425942  2.511271
C    -1.128194  -1.491010  1.723007
C    -2.626197  -1.312959  1.393409
O    -3.023961  -1.618169  0.261618
H    -0.291071  -0.621767  3.479427
H    -0.665505  -1.511551  0.725234
C    -0.828118  -2.850783  2.393123
C    -1.472144  -4.064980  1.704740
C    -2.858160  -4.426953  2.270626
N    -3.579513  -5.381600  1.450632
C    -4.811379  -5.146161  0.858481
N    -5.098634  -3.804342  0.607378
N    -5.575660  -6.163157  0.628602
H    -1.139367  -2.814539  3.451654
H    0.266427  -2.952586  2.403896
H    -1.570405  -3.883101  0.625527
H    -0.809606  -4.935966  1.810251
H    -3.480916  -3.529231  2.372847
H    -2.737077  -4.827152  3.292506
H    -3.472957  -6.365289  1.673201
H    -5.920459  -3.676546  0.028387
H    -4.330979  -3.187975  0.327684
H    -6.396142  -5.893759  0.080859
N    -3.492420  -0.846222  2.331942
C    -3.280749  -0.539170  3.741451
H    -4.446576  -0.802781  1.985901
H    -4.263650  -0.459910  4.217903
H    -2.747110  0.408886  3.888436
H    -2.733895  -1.339369  4.256227
