35
Energy: -21190.669357 eV PBE+vdW (tier 2 basis)
C    -3.090114  0.772694  1.011322
C    -2.214826  0.320145  2.161811
O    -1.879361  1.052918  3.094082
H    -3.807278  -0.005681  0.712095
H    -2.461394  1.018352  0.143123
H    -3.625043  1.677960  1.312573
N    -1.803654  -0.983757  2.087174
C    -0.959862  -1.572894  3.101471
C    -0.115154  -2.687972  2.475114
O    -0.490521  -3.342100  1.494053
H    -2.093319  -1.566698  1.309427
H    -0.296627  -0.766664  3.454672
C    -1.733779  -2.061599  4.359421
C    -2.592143  -3.334280  4.282572
C    -3.809878  -3.322372  3.344744
N    -3.457664  -3.700228  1.987061
C    -3.938180  -3.043122  0.871154
N    -3.150282  -3.256008  -0.256476
N    -4.998122  -2.306585  0.773769
H    -2.355080  -1.210850  4.674911
H    -0.994127  -2.205674  5.163319
H    -2.962765  -3.519742  5.301889
H    -1.965526  -4.210592  4.042457
H    -4.262860  -2.317169  3.331334
H    -4.574180  -4.009453  3.745974
H    -2.537159  -4.115157  1.875759
H    -3.436073  -2.699191  -1.053085
H    -2.146891  -3.343000  -0.113244
H    -5.549297  -2.332119  1.634050
N    1.056038  -2.934432  3.114787
C    1.967771  -3.997024  2.731062
H    1.318109  -2.319361  3.876211
H    2.924394  -3.590135  2.375755
H    1.499671  -4.560040  1.917595
H    2.159177  -4.673172  3.575062
