35
Energy: -21190.1315326 eV PBE+vdW (tier 2 basis)
C    -0.245697  -0.753730  -0.083624
C    0.043086  -0.085039  1.245709
O    1.176534  -0.012430  1.718194
H    0.684081  -1.194717  -0.451174
H    -0.616785  -0.028498  -0.822002
H    -1.008885  -1.538510  0.010674
N    -1.027273  0.456890  1.914981
C    -2.404025  0.565277  1.464051
C    -2.690626  1.548599  0.302735
O    -3.677964  1.338889  -0.400680
H    -0.771191  0.894918  2.795431
H    -2.702982  -0.396217  1.021659
C    -3.353706  0.788013  2.661351
C    -3.198505  2.086016  3.470164
C    -3.937370  3.295308  2.873244
N    -3.844467  4.505988  3.676625
C    -4.595772  4.641825  4.832093
N    -4.272536  5.813769  5.536138
N    -5.452840  3.740949  5.171465
H    -3.212216  -0.073700  3.329901
H    -4.382004  0.716729  2.279493
H    -2.134878  2.340792  3.622519
H    -3.613339  1.920288  4.473416
H    -5.003255  3.049106  2.784007
H    -3.573144  3.538434  1.866452
H    -2.934470  4.953900  3.707215
H    -4.906179  6.013284  6.302813
H    -4.124038  6.633041  4.951595
H    -6.013537  4.044274  5.970688
N    -1.863067  2.606531  0.036251
C    -0.737337  3.172527  0.770612
H    -2.187613  3.125852  -0.773921
H    -0.548739  4.174285  0.367988
H    0.183076  2.583599  0.665230
H    -0.955666  3.285761  1.839871
