35
Energy: -21190.3788265 eV PBE+vdW (tier 2 basis)
C    -0.343435  0.401323  -0.213975
C    -0.015771  -0.579355  0.896645
O    0.985031  -1.302185  0.840135
H    0.530420  0.477580  -0.866312
H    -0.601695  1.397788  0.168643
H    -1.191818  0.040815  -0.813566
N    -0.860510  -0.630860  1.967347
C    -2.231800  -0.159982  2.028981
C    -2.590281  -0.010858  3.520254
O    -2.079389  -0.724595  4.378220
H    -0.621632  -1.327871  2.679398
H    -2.296675  0.827710  1.548033
C    -3.245911  -1.117262  1.333062
C    -3.086157  -2.598363  1.723774
C    -2.148338  -3.379153  0.778684
N    -1.688442  -4.664419  1.287696
C    -0.835267  -4.781571  2.389177
N    0.018876  -3.703369  2.586429
N    -0.790502  -5.779248  3.207738
H    -3.136245  -1.002577  0.242330
H    -4.260771  -0.764282  1.569937
H    -4.072157  -3.085824  1.725969
H    -2.704273  -2.677167  2.751943
H    -1.269319  -2.774669  0.525365
H    -2.658284  -3.569268  -0.178067
H    -2.381537  -5.404917  1.263235
H    0.704453  -3.915379  3.304350
H    0.429392  -3.241086  1.773707
H    -1.552281  -6.439797  3.030145
N    -3.540134  0.930413  3.787012
C    -4.072306  1.154138  5.119052
H    -3.886145  1.496642  3.021864
H    -5.154035  0.963877  5.152978
H    -3.879296  2.181739  5.455972
H    -3.566257  0.457899  5.795783
