35
Energy: -21190.3581661 eV PBE+vdW (tier 2 basis)
C    -0.463744  0.894050  -0.216369
C    -0.302349  0.431761  1.223767
O    0.791065  0.449796  1.784373
H    0.493001  1.314322  -0.536585
H    -1.248413  1.653476  -0.333222
H    -0.711639  0.052136  -0.878203
N    -1.416738  -0.033134  1.875048
C    -2.803822  -0.022589  1.435078
C    -3.591895  0.898843  2.389801
O    -3.562765  0.680122  3.602233
H    -1.269292  -0.227998  2.864278
H    -2.836876  0.352277  0.408439
C    -3.442340  -1.426359  1.496523
C    -2.719794  -2.519751  0.705570
C    -2.770483  -2.389165  -0.825993
N    -4.110353  -2.293367  -1.375076
C    -4.742301  -1.105314  -1.680742
N    -6.128604  -1.226981  -1.758400
N    -4.197743  0.040495  -1.940530
H    -4.486998  -1.337825  1.158329
H    -3.490351  -1.718657  2.555499
H    -3.156454  -3.491239  0.987334
H    -1.662382  -2.562161  1.009974
H    -2.259240  -3.249776  -1.281931
H    -2.209584  -1.504849  -1.155444
H    -4.695937  -3.118747  -1.321419
H    -6.571294  -0.335779  -1.958821
H    -6.577132  -1.732803  -1.000154
H    -3.183735  -0.043160  -2.046469
N    -4.315964  1.924498  1.863660
C    -4.337493  2.428040  0.495810
H    -4.751834  2.497509  2.581519
H    -3.463771  3.061560  0.272105
H    -5.236989  3.041465  0.369105
H    -4.388835  1.617789  -0.244568
