35
Energy: -21190.2415258 eV PBE+vdW (tier 2 basis)
C    -0.434880  1.237196  0.858902
C    -1.442374  0.423662  1.652386
O    -2.637966  0.412532  1.375377
H    0.601833  1.115790  1.197423
H    -0.710991  2.297303  0.921229
H    -0.500341  0.944222  -0.195999
N    -0.911291  -0.312030  2.685631
C    -1.764141  -0.996319  3.659262
C    -1.045928  -1.369437  4.962899
O    -1.732139  -1.481219  5.986010
H    0.022869  -0.058422  2.982071
H    -2.536895  -0.284743  3.991342
C    -2.540087  -2.202013  3.076992
C    -1.719580  -3.419777  2.611149
C    -2.086150  -4.720429  3.349209
N    -1.892092  -4.683491  4.785834
C    -0.659098  -4.719093  5.405444
N    -0.720511  -4.315418  6.738231
N    0.467263  -5.113875  4.899697
H    -3.146983  -1.806191  2.255081
H    -3.246585  -2.497697  3.866325
H    -0.642734  -3.245957  2.731676
H    -1.870238  -3.586451  1.534646
H    -1.513903  -5.561519  2.927309
H    -3.144503  -4.961401  3.173870
H    -2.665956  -4.367983  5.357241
H    0.195546  -4.351096  7.174224
H    -1.203708  -3.427009  6.889622
H    0.334006  -5.518536  3.969282
N    0.311914  -1.527012  5.033237
C    1.301661  -1.951995  4.042891
H    0.580691  -1.735194  5.992694
H    1.578379  -3.000009  4.234950
H    0.897755  -1.894340  3.029547
H    2.195550  -1.314977  4.103552
