35
Energy: -21190.2402917 eV PBE+vdW (tier 2 basis)
C    0.020072  0.205345  0.536571
C    -0.806971  1.079436  1.466796
O    -0.753641  2.305276  1.416386
H    0.666379  -0.494882  1.081907
H    0.642917  0.867017  -0.070733
H    -0.622363  -0.383681  -0.134003
N    -1.622341  0.450297  2.374281
C    -1.884792  -0.966370  2.543170
C    -3.412399  -1.165556  2.575898
O    -4.136767  -0.376269  3.177079
H    -2.238557  1.069386  2.899924
H    -1.453134  -1.506437  1.688680
C    -1.288444  -1.528904  3.854936
C    0.234531  -1.436469  3.925322
C    0.786843  -1.902922  5.272380
N    2.235970  -1.797464  5.295794
C    3.076943  -2.425680  6.204377
N    2.445171  -3.339823  7.049746
N    4.359119  -2.295815  6.272454
H    -1.608209  -2.578188  3.962234
H    -1.743237  -0.976394  4.692077
H    0.540708  -0.392175  3.750626
H    0.693810  -2.043553  3.128996
H    0.519524  -2.957431  5.435109
H    0.306815  -1.314366  6.080806
H    2.628641  -0.964386  4.873020
H    3.107271  -3.696821  7.732591
H    1.577185  -3.030494  7.477319
H    4.716904  -1.710893  5.512348
N    -3.867345  -2.280195  1.938778
C    -5.268148  -2.663266  1.925065
H    -3.198007  -2.858167  1.445189
H    -5.415329  -3.647646  2.390161
H    -5.661717  -2.689397  0.899917
H    -5.819709  -1.910824  2.498030
