35
Energy: -21190.4857702 eV PBE+vdW (tier 2 basis)
C    1.424058  -0.490989  0.535673
C    0.955477  -0.099473  1.923465
O    1.766081  0.040483  2.848006
H    2.200439  0.213309  0.214078
H    0.627449  -0.518705  -0.217370
H    1.888576  -1.483580  0.595659
N    -0.386671  0.092925  2.051199
C    -1.218421  0.323386  3.251114
C    -0.920885  1.565743  4.116135
O    -1.868855  2.061673  4.749315
H    -0.922279  -0.035462  1.201496
H    -2.208138  0.556840  2.837015
C    -1.411908  -0.947184  4.123790
C    -0.290487  -1.340867  5.116943
C    -0.648449  -1.132147  6.591765
N    -0.855309  0.264034  6.918735
C    -0.632000  0.762483  8.178903
N    -0.881922  2.144550  8.267831
N    -0.161112  0.015277  9.122426
H    -1.602568  -1.771281  3.421304
H    -2.355600  -0.803825  4.672212
H    0.640735  -0.808636  4.885693
H    -0.066681  -2.409420  4.987498
H    0.162008  -1.491651  7.238232
H    -1.539105  -1.739555  6.847570
H    -1.469520  0.809437  6.317940
H    -1.170886  2.447957  9.191069
H    -1.468322  2.535409  7.533004
H    0.040225  0.571037  9.956815
N    0.344258  2.008669  4.179789
C    0.731070  3.088546  5.071441
H    1.068923  1.399829  3.772993
H    1.678422  3.514519  4.723553
H    0.851459  2.734678  6.106180
H    -0.040910  3.866137  5.063602
