35
Energy: -21190.2514019 eV PBE+vdW (tier 2 basis)
C    -0.164916  -0.172708  0.003614
C    -0.140238  -0.004082  1.509885
O    0.913481  0.142999  2.122042
H    -1.045958  -0.696424  -0.382248
H    0.742766  -0.710710  -0.288041
H    -0.123758  0.820626  -0.464858
N    -1.338873  -0.040199  2.200714
C    -2.711172  0.059399  1.690721
C    -3.205034  -1.220755  0.965463
O    -4.144983  -1.180344  0.175829
H    -1.201934  0.176369  3.184397
H    -3.337348  0.108060  2.597494
C    -3.011095  1.323503  0.868833
C    -2.713916  2.614623  1.628737
C    -2.912967  3.867740  0.763205
N    -2.585849  5.128054  1.418224
C    -1.315269  5.413086  1.912354
N    -0.260052  5.047158  1.079807
N    -1.219617  6.059367  3.024563
H    -4.067453  1.272472  0.572684
H    -2.440819  1.298044  -0.071950
H    -1.677758  2.608497  2.001750
H    -3.358770  2.689374  2.519861
H    -3.959017  3.939164  0.432031
H    -2.328963  3.773462  -0.168377
H    -3.276879  5.448486  2.091786
H    0.624584  4.886289  1.544652
H    -0.447440  4.391604  0.329990
H    -0.254014  6.343636  3.209319
N    -2.559733  -2.362603  1.324682
C    -2.907897  -3.663963  0.790117
H    -1.773857  -2.268241  1.959138
H    -2.075184  -4.095500  0.216824
H    -3.767260  -3.531006  0.124299
H    -3.182214  -4.360881  1.593875
