35
Energy: -21190.6396179 eV PBE+vdW (tier 2 basis)
C    1.395012  0.593701  0.712751
C    0.841292  0.758731  2.116136
O    1.551430  1.083150  3.068669
H    1.832172  1.547455  0.391630
H    0.644598  0.279005  -0.022768
H    2.205515  -0.144987  0.738944
N    -0.497591  0.532097  2.246544
C    -1.168199  0.577665  3.529620
C    -2.397939  -0.321059  3.422317
O    -2.924710  -0.531916  2.315060
H    -1.061251  0.176514  1.478075
H    -0.464073  0.196416  4.283848
C    -1.549622  2.026278  3.954331
C    -2.417823  2.822585  2.960207
C    -3.900108  2.973791  3.322383
N    -4.663449  1.733958  3.286903
C    -5.317823  1.245544  4.389770
N    -5.895219  -0.025693  4.159416
N    -5.336180  1.883228  5.513747
H    -0.591243  2.540868  4.101770
H    -2.039664  1.996722  4.938077
H    -2.319587  2.399467  1.947612
H    -2.014346  3.842804  2.881307
H    -4.357384  3.699569  2.629027
H    -4.012679  3.378995  4.336323
H    -4.390605  1.048675  2.585351
H    -6.648060  -0.236009  4.807476
H    -6.191635  -0.182463  3.197715
H    -5.926394  1.407025  6.198896
N    -2.922969  -0.834851  4.558223
C    -2.533888  -0.561396  5.932875
H    -3.866467  -1.200205  4.420611
H    -2.812100  -1.420111  6.555489
H    -3.032355  0.337384  6.327861
H    -1.449255  -0.432948  6.011563
