35
Energy: -21190.1689007 eV PBE+vdW (tier 2 basis)
C    -1.721848  -0.878402  -0.131680
C    -1.158194  -1.125535  1.255764
O    -0.425461  -2.075970  1.508912
H    -2.300381  0.049760  -0.218870
H    -2.362794  -1.725944  -0.405952
H    -0.892267  -0.850564  -0.848191
N    -1.515157  -0.197878  2.207708
C    -1.209035  -0.411344  3.625560
C    -2.164682  0.376836  4.528653
O    -2.741067  -0.199056  5.455175
H    -2.281665  0.425157  1.980419
H    -1.422390  -1.463228  3.863561
C    0.285985  -0.175798  3.964066
C    0.609030  -0.381541  5.453869
C    0.531693  0.911851  6.283331
N    0.548530  0.691292  7.719399
C    -0.474363  1.033497  8.595672
N    -1.721228  1.217707  8.001611
N    -0.353915  1.204998  9.871235
H    0.598135  0.827516  3.635494
H    0.844062  -0.891604  3.348795
H    1.617946  -0.807252  5.554444
H    -0.076310  -1.121962  5.892301
H    -0.386354  1.466824  6.057412
H    1.365808  1.576340  5.996964
H    1.455330  0.601982  8.160277
H    -2.427117  1.340090  8.721435
H    -2.009595  0.544435  7.289031
H    0.628134  1.177498  10.159691
N    -2.377925  1.711526  4.304590
C    -1.576040  2.664114  3.546455
H    -2.992408  2.109260  5.012353
H    -0.834119  3.168960  4.184425
H    -2.231609  3.425811  3.105653
H    -1.042519  2.162214  2.734729
