35
Energy: -21190.058767 eV PBE+vdW (tier 2 basis)
C    0.150185  -0.172155  -0.284894
C    0.084968  0.246016  1.176933
O    0.916718  1.015778  1.654524
H    1.124641  -0.640908  -0.469326
H    0.099722  0.729750  -0.907819
H    -0.641698  -0.864816  -0.596228
N    -0.966695  -0.287824  1.870411
C    -1.332526  -0.204543  3.292936
C    -2.594408  0.638994  3.600354
O    -3.372484  0.218277  4.456959
H    -1.572301  -0.896323  1.332355
H    -1.688532  -1.214851  3.536775
C    -0.193654  0.082301  4.300262
C    0.146061  1.539364  4.614802
C    1.301740  1.626455  5.619570
N    1.724105  2.985906  5.928020
C    1.017776  3.749400  6.840383
N    1.466654  5.082883  6.871919
N    0.054404  3.240547  7.529103
H    0.703501  -0.450865  3.952415
H    -0.508084  -0.406437  5.234742
H    -0.726709  2.051777  5.044440
H    0.442356  2.057793  3.694006
H    2.177976  1.086795  5.228022
H    1.013693  1.159417  6.570433
H    2.107220  3.509056  5.146836
H    1.092255  5.613153  7.651667
H    2.476532  5.187911  6.804132
H    -0.281105  3.896573  8.237933
N    -2.844283  1.807254  2.942061
C    -2.049762  2.557133  1.982353
H    -3.716722  2.226066  3.250934
H    -2.289406  2.285986  0.942006
H    -0.977570  2.409980  2.140932
H    -2.259182  3.625320  2.115941
