35
Energy: -21190.045443 eV PBE+vdW (tier 2 basis)
C    0.695856  -0.472266  0.760497
C    -0.042954  0.360041  1.786887
O    0.315705  1.495851  2.089799
H    1.380365  0.191581  0.226145
H    0.028239  -0.970371  0.048185
H    1.283605  -1.258890  1.253928
N    -1.139333  -0.192025  2.415704
C    -1.802127  -1.485380  2.230335
C    -0.806750  -2.666677  2.371433
O    -0.604899  -3.464891  1.457401
H    -1.569255  0.458102  3.066846
H    -2.492516  -1.564156  3.086933
C    -2.645071  -1.583624  0.942827
C    -3.940142  -2.393283  1.089400
C    -3.747183  -3.889970  1.336049
N    -5.037132  -4.556585  1.427365
C    -5.217930  -5.864628  1.858494
N    -4.090662  -6.447221  2.437139
N    -6.325716  -6.528167  1.842026
H    -2.027073  -2.009157  0.140136
H    -2.906342  -0.557836  0.650824
H    -4.528553  -2.261851  0.166114
H    -4.553346  -1.975243  1.905172
H    -3.219653  -4.053422  2.286599
H    -3.101662  -4.307165  0.540039
H    -5.750388  -4.234246  0.783219
H    -4.262656  -7.427721  2.637308
H    -3.204724  -6.289444  1.966072
H    -7.103066  -5.946074  1.518389
N    -0.164574  -2.787848  3.569192
C    -0.270919  -1.955708  4.757148
H    0.494074  -3.560057  3.589005
H    0.134826  -2.514605  5.607456
H    -1.318768  -1.723801  4.990073
H    0.281668  -1.010471  4.660321
