35
Energy: -21190.18179 eV PBE+vdW (tier 2 basis)
C    -0.800197  2.525957  0.804534
C    -0.112010  1.384874  1.535537
O    0.979831  1.523184  2.080085
H    -0.144799  3.398865  0.858443
H    -1.767138  2.779475  1.262035
H    -0.985870  2.280209  -0.250301
N    -0.771490  0.179743  1.577391
C    -2.006825  -0.192726  0.887830
C    -2.754849  -1.129381  1.860745
O    -2.576160  -2.344650  1.848030
H    -0.236348  -0.571588  2.007802
H    -2.590688  0.726723  0.745936
C    -1.766453  -0.840098  -0.485556
C    -2.964413  -0.784856  -1.442033
C    -4.166583  -1.653871  -1.041305
N    -5.239752  -1.665469  -2.027722
C    -5.124106  -2.420451  -3.182496
N    -6.195555  -2.196805  -4.065971
N    -4.110876  -3.194327  -3.370098
H    -1.444753  -1.880660  -0.332479
H    -0.922019  -0.309000  -0.948265
H    -2.632601  -1.124584  -2.432697
H    -3.293820  0.263541  -1.558616
H    -4.606654  -1.319958  -0.090147
H    -3.839197  -2.691081  -0.900538
H    -5.743953  -0.792507  -2.145288
H    -6.214604  -2.844422  -4.846744
H    -7.105687  -2.130863  -3.615895
H    -4.236989  -3.775069  -4.202148
N    -3.594304  -0.536865  2.762905
C    -3.755312  0.884860  3.025061
H    -3.979629  -1.190306  3.437911
H    -4.484515  1.005523  3.832945
H    -4.147101  1.420485  2.148644
H    -2.814438  1.360657  3.339865
