35
Energy: -21190.2537313 eV PBE+vdW (tier 2 basis)
C    0.475426  1.727901  1.612445
C    0.036968  0.608560  2.533170
O    0.833674  -0.088864  3.154517
H    1.561598  1.822396  1.688256
H    -0.001515  2.679849  1.889010
H    0.208953  1.513512  0.568392
N    -1.323000  0.381358  2.654667
C    -2.391580  1.281139  2.202594
C    -3.688910  1.021022  2.972786
O    -4.475535  1.934774  3.229298
H    -1.518691  -0.205028  3.462094
H    -2.112601  2.318407  2.441613
C    -2.699966  1.140990  0.671293
C    -2.778121  2.437213  -0.146881
C    -3.871168  3.451644  0.241022
N    -3.633510  4.169434  1.496663
C    -2.452786  4.865875  1.696558
N    -2.094605  5.697899  0.632489
N    -1.772863  4.672697  2.780956
H    -3.638115  0.576960  0.542161
H    -1.914337  0.503118  0.243480
H    -2.946271  2.151650  -1.197936
H    -1.806640  2.954515  -0.128403
H    -4.842543  2.948667  0.350351
H    -3.987942  4.170369  -0.583380
H    -3.879964  3.610194  2.320089
H    -1.323765  6.326045  0.828676
H    -2.866715  6.156558  0.157039
H    -1.019262  5.359743  2.878977
N    -3.942717  -0.277777  3.302716
C    -5.180577  -0.688545  3.942029
H    -3.338011  -0.995697  2.918078
H    -4.983150  -1.492776  4.660723
H    -5.924800  -1.036149  3.209557
H    -5.595050  0.176769  4.468550
