35
Energy: -21190.1048943 eV PBE+vdW (tier 2 basis)
C    -3.137463  1.706311  -0.474956
C    -2.326945  1.529027  0.797910
O    -1.261127  0.920655  0.812644
H    -3.493985  0.720545  -0.800536
H    -2.477908  2.090702  -1.261736
H    -3.999942  2.376078  -0.368638
N    -2.868290  2.109769  1.914822
C    -2.349557  1.984507  3.280651
C    -0.800795  1.930067  3.369449
O    -0.230911  1.032655  3.986050
H    -3.774573  2.552226  1.817851
H    -2.633142  2.921693  3.791207
C    -2.984570  0.825330  4.058858
C    -2.767705  -0.570826  3.448385
C    -2.729367  -1.668713  4.511915
N    -1.577262  -1.485152  5.389866
C    -1.597775  -1.747594  6.741487
N    -2.503033  -2.759458  7.108499
N    -0.853872  -1.059414  7.544060
H    -4.062647  1.028156  4.160112
H    -2.567425  0.856549  5.075425
H    -1.825386  -0.594494  2.886518
H    -3.565577  -0.804293  2.728505
H    -2.688745  -2.648975  4.003104
H    -3.656367  -1.656983  5.109748
H    -0.945750  -0.722857  5.140004
H    -2.383110  -3.074159  8.065026
H    -2.568118  -3.540163  6.459689
H    -0.868950  -1.454396  8.488061
N    -0.096718  2.989564  2.873965
C    -0.557745  4.106433  2.072846
H    0.906119  2.847003  2.945689
H    0.172537  4.920139  2.154976
H    -1.516771  4.487728  2.443937
H    -0.673283  3.848278  1.008244
