35
Energy: -21190.1791618 eV PBE+vdW (tier 2 basis)
C    -0.415682  -0.232033  -0.064397
C    -0.649813  -0.715038  1.356713
O    -0.541214  -1.894558  1.678793
H    0.637636  -0.400159  -0.322974
H    -0.652078  0.828360  -0.219778
H    -1.020427  -0.839369  -0.748428
N    -1.002675  0.253565  2.257366
C    -1.162004  -0.019021  3.678851
C    -2.275554  -1.013469  4.076295
O    -2.104740  -1.707098  5.076390
H    -1.042344  1.216158  1.945362
H    -0.252889  -0.520941  4.043297
C    -1.352617  1.286793  4.464604
C    -0.157509  2.241474  4.409541
C    -0.260821  3.382790  5.430409
N    -0.262454  2.903367  6.807760
C    0.934326  2.659623  7.460810
N    0.739988  2.309708  8.806602
N    2.055685  2.795068  6.841063
H    -1.526706  1.001331  5.511222
H    -2.270224  1.797646  4.121677
H    -0.045803  2.694634  3.410973
H    0.773600  1.689517  4.603936
H    -1.195211  3.942856  5.277954
H    0.581218  4.075438  5.283712
H    -1.015194  3.228956  7.401213
H    1.580158  1.966718  9.260168
H    -0.049095  1.688831  8.971092
H    2.840714  2.493340  7.422002
N    -3.458508  -1.060546  3.391691
C    -3.911677  -0.349673  2.208905
H    -4.071685  -1.780170  3.761604
H    -3.689820  0.722359  2.269479
H    -5.001470  -0.454699  2.147286
H    -3.476030  -0.746151  1.279332
