35
Energy: -21190.2685946 eV PBE+vdW (tier 2 basis)
C    2.019756  1.350107  1.015893
C    1.238951  0.918334  2.247679
O    1.525969  1.340797  3.366377
H    3.066078  1.045498  1.143909
H    2.003297  2.445259  0.958790
H    1.643507  0.936338  0.072093
N    0.218097  0.041786  1.991813
C    -0.697734  -0.648629  2.911943
C    -2.136178  -0.081102  2.876665
O    -3.055476  -0.855532  2.554372
H    0.065596  -0.181980  1.015465
H    -0.845229  -1.641835  2.464201
C    -0.141340  -0.894170  4.330864
C    -0.891036  -1.983644  5.131271
C    -1.943185  -1.508853  6.140039
N    -3.167651  -1.021850  5.526101
C    -3.792863  0.120798  5.952913
N    -4.825616  0.544085  5.085628
N    -3.403749  0.744918  7.016094
H    -0.093899  0.032913  4.912079
H    0.901800  -1.211076  4.197742
H    -0.143188  -2.540405  5.714681
H    -1.337278  -2.725624  4.447558
H    -1.548396  -0.696339  6.766297
H    -2.174667  -2.344710  6.822722
H    -3.371800  -1.334725  4.580280
H    -5.546204  1.077168  5.561864
H    -5.232548  -0.193545  4.513443
H    -3.981705  1.570263  7.188194
N    -2.394582  1.205265  3.201491
C    -1.551926  2.187958  3.869343
H    -3.398959  1.368357  3.278868
H    -0.492192  1.928522  3.796181
H    -1.820889  2.258674  4.934111
H    -1.694784  3.171444  3.402037
