35
Energy: -21190.3417617 eV PBE+vdW (tier 2 basis)
C    -0.935755  -0.917561  0.093777
C    -0.603108  -0.810470  1.571164
O    0.292711  -1.467778  2.093086
H    -0.027820  -0.714594  -0.486868
H    -1.729006  -0.234308  -0.234584
H    -1.239748  -1.949236  -0.123588
N    -1.365235  0.085453  2.280368
C    -1.273837  0.171797  3.740912
C    -2.578249  0.701009  4.341434
O    -3.121505  0.082485  5.266146
H    -2.197375  0.451701  1.833604
H    -1.179544  -0.853016  4.126519
C    -0.018350  0.951356  4.213155
C    0.315364  0.804702  5.712183
C    -0.095838  1.965443  6.624671
N    -1.533491  2.095830  6.802741
C    -2.191410  3.287666  6.651082
N    -3.597349  3.152566  6.698865
N    -1.553937  4.390828  6.426145
H    -0.099014  2.014371  3.948457
H    0.809432  0.538571  3.623374
H    1.405461  0.703036  5.815106
H    -0.100089  -0.140797  6.098692
H    0.262237  2.924407  6.226216
H    0.388640  1.829176  7.606706
H    -2.090308  1.248115  6.732411
H    -4.064170  4.002901  6.997828
H    -3.930751  2.347797  7.226330
H    -2.199673  5.180828  6.365831
N    -3.129233  1.854110  3.860471
C    -2.491211  2.932212  3.107925
H    -3.896095  2.159537  4.460970
H    -3.254574  3.451787  2.515084
H    -1.737323  2.541370  2.418810
H    -2.008655  3.657750  3.780917
