35
Energy: -21190.5458966 eV PBE+vdW (tier 2 basis)
C    0.585416  -0.009238  0.515055
C    0.195352  -0.162912  1.971022
O    1.016259  -0.493887  2.833698
H    1.390884  0.732249  0.444677
H    -0.242444  0.300835  -0.134274
H    0.986940  -0.963915  0.153230
N    -1.109177  0.097734  2.268156
C    -1.642086  0.012258  3.630267
C    -1.999940  -1.469645  3.935338
O    -3.145856  -1.907878  3.829532
H    -1.762869  0.269820  1.512658
H    -0.821774  0.318838  4.296399
C    -2.843164  0.945320  3.802619
C    -3.074197  1.421705  5.242903
C    -3.377586  0.312092  6.256071
N    -3.647385  0.852224  7.587905
C    -2.598098  1.104090  8.454052
N    -3.042460  1.446770  9.743283
N    -1.376253  0.983374  8.060615
H    -3.738765  0.431462  3.419143
H    -2.673744  1.833733  3.175863
H    -3.914023  2.132993  5.246994
H    -2.189342  1.973029  5.594359
H    -2.531676  -0.388329  6.323203
H    -4.258646  -0.260837  5.938790
H    -4.488384  0.509565  8.037143
H    -2.309011  1.817562  10.338001
H    -3.868878  2.039724  9.760567
H    -0.721510  1.284174  8.785841
N    -0.920578  -2.208152  4.298856
C    -0.991292  -3.637698  4.524357
H    -0.009351  -1.759247  4.191055
H    -0.464025  -3.906475  5.449014
H    -0.549862  -4.203462  3.689694
H    -2.046418  -3.916106  4.615458
