35
Energy: -21190.0793315 eV PBE+vdW (tier 2 basis)
C    -0.443200  0.027660  -0.324070
C    -0.208576  -0.211867  1.153118
O    0.911818  -0.372579  1.632947
H    -1.156058  -0.694455  -0.745454
H    -0.856884  1.029745  -0.505923
H    0.515667  -0.063411  -0.840155
N    -1.321402  -0.251473  1.962214
C    -2.689910  0.101712  1.615545
C    -2.945745  1.591508  1.280043
O    -3.704389  1.866722  0.351447
H    -1.091720  -0.377073  2.944499
H    -2.961505  -0.402908  0.676520
C    -3.661754  -0.379131  2.705325
C    -3.776952  -1.905866  2.772843
C    -4.627424  -2.408004  3.940582
N    -5.993689  -1.930750  3.839516
C    -6.962507  -2.061923  4.820406
N    -6.470187  -2.245635  6.117658
N    -8.198310  -1.913559  4.480830
H    -4.645585  0.065885  2.508129
H    -3.342163  0.014359  3.685749
H    -2.779182  -2.360860  2.860258
H    -4.196955  -2.281444  1.824692
H    -4.188680  -2.027560  4.877619
H    -4.564806  -3.514438  3.975148
H    -6.414519  -1.944387  2.915037
H    -7.180865  -2.534795  6.779825
H    -5.617289  -2.787784  6.214597
H    -8.822005  -1.980364  5.287880
N    -2.341930  2.574636  2.011097
C    -1.486493  2.494997  3.187177
H    -2.594861  3.501102  1.681718
H    -1.905910  1.831834  3.955540
H    -1.425451  3.496286  3.627601
H    -0.466614  2.162789  2.949161
