35
Energy: -21190.4609917 eV PBE+vdW (tier 2 basis)
C    0.222903  0.039940  0.098988
C    0.150754  0.096703  1.609635
O    1.154873  0.295723  2.305031
H    0.941201  -0.735569  -0.193705
H    0.608908  0.998647  -0.269557
H    -0.741666  -0.163328  -0.381818
N    -1.086314  -0.080907  2.152482
C    -1.344823  0.006093  3.592456
C    -1.039599  -1.341049  4.309220
O    -1.908453  -2.044175  4.826003
H    -1.850724  -0.334419  1.538595
H    -0.597134  0.724188  3.964128
C    -2.729814  0.592342  3.905574
C    -4.003311  -0.223968  3.623151
C    -4.258969  -0.592904  2.161919
N    -5.589589  -1.152932  2.006937
C    -6.070843  -1.505052  0.749515
N    -7.292025  -2.180602  0.818345
N    -5.529021  -1.284728  -0.399219
H    -2.789599  1.562130  3.385165
H    -2.730101  0.825170  4.980023
H    -4.857666  0.379451  3.966981
H    -3.977236  -1.138639  4.229556
H    -3.494949  -1.317244  1.810144
H    -4.190435  0.305309  1.524964
H    -5.865084  -1.789354  2.750763
H    -7.689999  -2.304540  -0.107987
H    -7.960120  -1.788295  1.476171
H    -4.582780  -0.910248  -0.302420
N    0.286151  -1.636508  4.309696
C    0.813683  -2.871289  4.854735
H    0.902957  -0.995404  3.802124
H    1.611917  -2.666425  5.580918
H    1.218109  -3.519108  4.063037
H    -0.003452  -3.397454  5.359307
