35
Energy: -21189.8242187 eV PBE+vdW (tier 2 basis)
C    0.037356  -0.143943  -0.023812
C    0.075107  0.001266  1.484776
O    1.152466  0.063952  2.076834
H    -0.479580  -1.057020  -0.342956
H    1.074388  -0.186574  -0.366592
H    -0.462460  0.707425  -0.501668
N    -1.088040  0.087889  2.221241
C    -2.533933  -0.033477  1.992506
C    -3.141771  -1.206880  2.804048
O    -4.077644  -0.982696  3.571419
H    -0.852104  0.211679  3.204134
H    -2.995742  0.838843  2.479718
C    -3.022576  -0.025112  0.537065
C    -4.550781  -0.001795  0.437621
C    -5.019778  0.067664  -1.013347
N    -6.479647  0.068282  -1.071893
C    -7.169387  0.069419  -2.280384
N    -6.594444  0.876559  -3.266611
N    -8.224585  -0.662172  -2.392759
H    -2.615911  0.870117  0.043585
H    -2.640516  -0.892007  -0.019126
H    -4.971996  -0.901496  0.913209
H    -4.957406  0.855049  0.995377
H    -4.587298  -0.773644  -1.590019
H    -4.633870  0.990132  -1.473431
H    -6.915326  -0.609240  -0.449141
H    -6.159918  1.734049  -2.936446
H    -7.196046  1.035656  -4.067042
H    -8.721137  -0.475091  -3.267972
N    -2.648204  -2.471958  2.653659
C    -1.539378  -2.966942  1.852157
H    -3.114395  -3.135443  3.264768
H    -0.562170  -2.635998  2.229731
H    -1.565629  -4.061590  1.877768
H    -1.629590  -2.666650  0.800688
