35
Energy: -21190.369093 eV PBE+vdW (tier 2 basis)
C    -0.889578  -1.505374  0.517461
C    -2.067744  -2.189503  1.183174
O    -1.951352  -3.284515  1.725794
H    -1.163409  -0.833258  -0.303325
H    -0.215628  -2.284602  0.148055
H    -0.343603  -0.921720  1.271335
N    -3.302362  -1.565628  1.150810
C    -3.670647  -0.202751  0.754651
C    -3.723138  0.003145  -0.772221
O    -3.842695  1.131774  -1.265597
H    -3.990500  -2.078564  1.695692
H    -4.722210  -0.083733  1.063619
C    -2.879397  0.895778  1.511535
C    -3.500349  2.298842  1.569684
C    -4.825176  2.440914  2.327692
N    -5.969588  1.667938  1.804096
C    -6.809849  2.189512  0.807995
N    -6.144974  2.768763  -0.261602
N    -8.084727  2.096139  0.994642
H    -1.872421  0.988371  1.081769
H    -2.746308  0.517765  2.537851
H    -3.589882  2.710558  0.558741
H    -2.779907  2.950086  2.090641
H    -5.077225  3.514013  2.385825
H    -4.679417  2.092200  3.361056
H    -6.576667  1.329906  2.547221
H    -6.753913  3.052228  -1.020633
H    -5.294165  2.299470  -0.587647
H    -8.602288  2.371127  0.154882
N    -3.695216  -1.127701  -1.517701
C    -3.821398  -1.129154  -2.961411
H    -3.615097  -2.004573  -1.013140
H    -4.730963  -1.657875  -3.278721
H    -2.951628  -1.607976  -3.431317
H    -3.880474  -0.087619  -3.293929
