35
Energy: -21190.3827539 eV PBE+vdW (tier 2 basis)
C    -0.429445  0.300702  -0.319744
C    -0.113124  0.231670  1.163844
O    1.035219  0.282819  1.592422
H    0.014946  1.215032  -0.731090
H    -1.502524  0.292111  -0.548022
H    0.050018  -0.549688  -0.820707
N    -1.207528  0.122724  1.990634
C    -1.069171  -0.133955  3.426877
C    -2.399892  -0.606532  4.025018
O    -2.434080  -1.516043  4.858119
H    -2.087148  -0.139403  1.559056
H    -0.357612  -0.958712  3.580585
C    -0.552842  1.110057  4.190019
C    -0.312304  0.840249  5.686811
C    -0.963092  1.873728  6.620737
N    -2.382585  2.126374  6.356164
C    -3.443945  1.457824  6.956360
N    -3.158122  0.171906  7.392398
N    -4.636970  1.936773  7.123777
H    -1.294245  1.914328  4.065834
H    0.369191  1.433926  3.694029
H    0.765846  0.823714  5.901583
H    -0.676064  -0.161722  5.953067
H    -0.449465  2.839269  6.506897
H    -0.826604  1.556331  7.665674
H    -2.612330  3.084183  6.124135
H    -3.997675  -0.263251  7.763706
H    -2.684821  -0.437966  6.724155
H    -4.667521  2.939548  6.916205
N    -3.510636  0.062058  3.606569
C    -4.832985  -0.180390  4.168435
H    -3.368781  0.923703  3.089507
H    -5.073775  0.536017  4.968662
H    -4.838049  -1.189996  4.590773
H    -5.590175  -0.115765  3.377387
