35
Energy: -21190.1107434 eV PBE+vdW (tier 2 basis)
C    -0.807961  -1.343647  -1.184110
C    -0.143361  -1.016748  0.136643
O    0.954545  -1.477819  0.442257
H    -0.527330  -0.572979  -1.916697
H    -1.902403  -1.382021  -1.146414
H    -0.410862  -2.301241  -1.532871
N    -0.777513  -0.149351  0.999404
C    -2.092777  0.491344  0.920377
C    -3.246444  -0.535352  0.782937
O    -4.046773  -0.490586  -0.149841
H    -0.207806  0.053701  1.814801
H    -2.224360  0.970438  1.905181
C    -2.205493  1.589770  -0.145219
C    -1.132054  2.667602  -0.009767
C    -1.239404  3.734751  -1.106955
N    -0.199786  4.762568  -1.062993
C    1.146712  4.449884  -1.232933
N    1.388669  3.502472  -2.232102
N    2.019231  5.019898  -0.474220
H    -3.211427  2.027935  -0.067168
H    -2.165757  1.132765  -1.144113
H    -0.131911  2.212706  -0.061809
H    -1.202075  3.157584  0.976303
H    -2.207524  4.253323  -1.046143
H    -1.225344  3.246367  -2.092834
H    -0.285502  5.406024  -0.279459
H    2.367096  3.402034  -2.477038
H    0.788634  3.562569  -3.050174
H    2.974065  4.825737  -0.787878
N    -3.343361  -1.494663  1.750304
C    -2.524712  -1.698034  2.934576
H    -4.099050  -2.150340  1.578524
H    -3.080564  -2.333113  3.633462
H    -2.322271  -0.748913  3.449090
H    -1.564596  -2.182903  2.707394
