35
Energy: -21190.1400211 eV PBE+vdW (tier 2 basis)
C    -0.476147  -0.976606  0.395276
C    -0.167235  -0.492390  1.801733
O    0.979206  -0.375287  2.221282
H    -0.096674  -2.000415  0.285830
H    0.069796  -0.349662  -0.319997
H    -1.543441  -0.965234  0.141058
N    -1.261457  -0.181457  2.567181
C    -1.180189  0.225524  3.969069
C    -0.177991  1.383774  4.223396
O    0.620088  1.336477  5.152130
H    -2.180642  -0.323150  2.167239
H    -2.175821  0.633927  4.211052
C    -0.867829  -0.944038  4.919445
C    -1.759432  -2.174952  4.740766
C    -3.246033  -1.926216  4.989963
N    -3.994698  -3.167873  4.904272
C    -5.380989  -3.175969  5.003480
N    -5.928011  -4.432805  4.720217
N    -6.159985  -2.194111  5.302141
H    -0.937019  -0.566340  5.948723
H    0.182470  -1.225521  4.774049
H    -1.414582  -2.954679  5.436265
H    -1.625366  -2.586560  3.725938
H    -3.639018  -1.179930  4.269441
H    -3.385438  -1.494477  5.994610
H    -3.617541  -3.849455  4.251603
H    -6.921240  -4.445780  4.934340
H    -5.437156  -5.212653  5.150000
H    -5.647054  -1.311735  5.362221
N    -0.276680  2.500606  3.438210
C    -1.173079  2.799285  2.337896
H    0.439586  3.184832  3.659129
H    -1.225851  3.888236  2.219570
H    -2.191695  2.446544  2.544251
H    -0.841480  2.364085  1.382333
