35
Energy: -21190.5532189 eV PBE+vdW (tier 2 basis)
C    -1.101644  0.729161  -0.906040
C    -0.431063  0.720497  0.453917
O    0.737935  1.084029  0.613801
H    -1.064566  1.747474  -1.312458
H    -2.144069  0.389456  -0.883212
H    -0.528722  0.085468  -1.585172
N    -1.202550  0.293562  1.490377
C    -0.666900  0.151972  2.826173
C    -1.578246  -0.848259  3.561493
O    -2.712845  -1.106414  3.150057
H    -2.138020  -0.090768  1.363670
H    0.341264  -0.278983  2.733981
C    -0.557305  1.514499  3.583989
C    0.860542  1.942522  3.987616
C    1.426345  1.312429  5.260994
N    1.717449  -0.123199  5.086992
C    2.265684  -0.899416  6.126972
N    1.849720  -0.531717  7.397661
N    3.068110  -1.895548  5.987326
H    -1.210240  1.502210  4.471039
H    -0.971332  2.276534  2.911871
H    0.857247  3.029858  4.155595
H    1.541783  1.774530  3.137587
H    0.689624  1.427743  6.070093
H    2.332815  1.857552  5.576009
H    2.217146  -0.299910  4.217085
H    2.092750  -1.228433  8.094045
H    0.912778  -0.156761  7.495718
H    3.389786  -1.991976  5.020798
N    -1.025130  -1.379433  4.676418
C    -1.724520  -2.309542  5.540452
H    -0.064252  -1.097032  4.897486
H    -2.630190  -2.645080  5.024214
H    -2.020107  -1.839840  6.491247
H    -1.089277  -3.177184  5.760207
