35
Energy: -21190.2792985 eV PBE+vdW (tier 2 basis)
C    -1.979043  0.064292  0.952228
C    -0.987753  0.304461  2.080818
O    0.225217  0.189773  1.925602
H    -3.025127  0.222711  1.244186
H    -1.856526  -0.962735  0.585361
H    -1.734181  0.735430  0.119529
N    -1.553510  0.656973  3.274306
C    -0.777240  0.920681  4.484315
C    0.366185  1.953003  4.245177
O    1.501225  1.776738  4.674326
H    -2.569165  0.742669  3.328779
H    -1.481563  1.417666  5.173309
C    -0.226224  -0.340226  5.185127
C    -1.074807  -0.877164  6.348579
C    -2.201978  -1.861674  5.988056
N    -3.153850  -1.421708  4.973474
C    -4.020101  -0.365498  5.183936
N    -4.567540  0.123204  3.972254
N    -4.346349  0.219265  6.282175
H    0.766123  -0.062525  5.563253
H    -0.044871  -1.117065  4.427768
H    -1.482935  -0.027656  6.919096
H    -0.416820  -1.412378  7.051093
H    -2.762180  -2.136574  6.895043
H    -1.761947  -2.794933  5.608772
H    -2.791896  -1.472559  4.025685
H    -5.312307  0.783905  4.185678
H    -4.912000  -0.614837  3.359423
H    -3.810064  -0.136968  7.076091
N    0.038269  3.118929  3.608757
C    -1.243049  3.604921  3.131768
H    0.845714  3.718515  3.474671
H    -1.204375  4.700327  3.091554
H    -2.055755  3.334067  3.817526
H    -1.496996  3.231936  2.127484
