35
Energy: -21190.4069254 eV PBE+vdW (tier 2 basis)
C    -0.425508  0.061060  1.194234
C    -1.431762  -0.642419  2.089132
O    -1.082219  -1.517444  2.876496
H    -0.696682  1.086717  0.921879
H    -0.316149  -0.510402  0.261527
H    0.541101  0.058191  1.706451
N    -2.769677  -0.328834  1.941139
C    -3.336449  0.880054  1.339379
C    -3.153804  0.962600  -0.193815
O    -3.118216  2.043610  -0.779715
H    -3.359401  -0.734958  2.676749
H    -4.422913  0.741250  1.456587
C    -2.950200  2.202263  2.043226
C    -4.105148  3.190121  2.257551
C    -5.243853  2.711353  3.179370
N    -4.800047  2.190103  4.468756
C    -4.529996  0.839582  4.660258
N    -3.573269  0.596306  5.637516
N    -5.032257  -0.170280  4.023978
H    -2.179257  2.714529  1.453299
H    -2.500624  1.943479  3.012150
H    -4.540000  3.472817  1.286607
H    -3.683858  4.118072  2.678171
H    -5.843529  1.930788  2.692166
H    -5.939595  3.544910  3.355132
H    -4.149448  2.807544  4.947063
H    -3.550830  -0.377183  5.923963
H    -3.535805  1.245331  6.416110
H    -5.712453  0.131184  3.323937
N    -3.111948  -0.244910  -0.816443
C    -2.979828  -0.388783  -2.251254
H    -3.090374  -1.063576  -0.216154
H    -3.789188  -1.007878  -2.661832
H    -2.015831  -0.843298  -2.523288
H    -3.034813  0.611912  -2.693153
