35
Energy: -21190.017548 eV PBE+vdW (tier 2 basis)
C    0.881730  -1.530069  1.344394
C    0.439275  -0.900512  2.651624
O    1.190217  -0.915325  3.629709
H    1.834901  -2.029840  1.536223
H    1.030444  -0.767398  0.569608
H    0.162679  -2.261677  0.957873
N    -0.791582  -0.299930  2.769301
C    -1.960129  -0.025846  1.920930
C    -3.251556  -0.656777  2.485125
O    -4.264589  0.037179  2.596347
H    -0.876165  0.110615  3.696856
H    -2.133633  1.055794  2.013432
C    -1.815188  -0.294364  0.414297
C    -3.017938  0.193156  -0.407904
C    -3.246796  1.712558  -0.433273
N    -2.169870  2.483189  -1.038057
C    -1.172034  3.080198  -0.296613
N    -0.207124  3.698437  -1.110765
N    -1.160779  3.012390  0.992190
H    -1.674184  -1.364494  0.210057
H    -0.909377  0.220622  0.065867
H    -3.945111  -0.274318  -0.043375
H    -2.883532  -0.163333  -1.442532
H    -3.392974  2.104355  0.579534
H    -4.171764  1.915792  -0.993740
H    -1.926837  2.256146  -1.995876
H    0.452592  4.268304  -0.591996
H    -0.584121  4.201560  -1.910614
H    -0.425425  3.599791  1.389482
N    -3.278199  -1.977450  2.839985
C    -2.242557  -2.996270  2.772245
H    -4.181040  -2.251834  3.214328
H    -2.711046  -3.968744  2.960109
H    -1.448675  -2.844526  3.515977
H    -1.782480  -3.044804  1.776956
