35
Energy: -21190.3153987 eV PBE+vdW (tier 2 basis)
C    0.450138  -0.552956  0.912260
C    -0.516556  -0.528188  2.082480
O    -0.918601  -1.550914  2.630380
H    1.400406  -0.984608  1.251509
H    0.646406  0.434384  0.475609
H    0.049939  -1.216567  0.136348
N    -0.924721  0.715264  2.486244
C    -1.760338  0.914771  3.658829
C    -3.215469  0.411384  3.610037
O    -3.751978  0.120580  4.686431
H    -0.545730  1.534316  2.026300
H    -1.341452  0.291928  4.461990
C    -1.744842  2.402751  4.091616
C    -0.790670  2.712016  5.249883
C    -1.117559  1.929728  6.542661
N    -2.528666  1.849450  6.877918
C    -3.203645  2.958945  7.335746
N    -4.594322  2.775283  7.361335
N    -2.568615  4.039858  7.655548
H    -2.759115  2.700483  4.388855
H    -1.499273  3.030319  3.219316
H    -0.850175  3.786725  5.467889
H    0.251529  2.493174  4.965398
H    -0.590941  2.402956  7.381177
H    -0.751714  0.895479  6.469735
H    -3.069427  1.183811  6.320013
H    -4.903720  1.815355  7.490867
H    -5.082837  3.418959  7.973668
H    -3.206822  4.735974  8.047546
N    -3.922223  0.347711  2.451838
C    -3.550541  0.694385  1.089470
H    -4.859610  -0.013554  2.600325
H    -4.471409  0.786299  0.502325
H    -2.917033  -0.070541  0.617983
H    -3.034514  1.660295  1.044563
