35
Energy: -21190.1096325 eV PBE+vdW (tier 2 basis)
C    0.181796  0.350764  2.254336
C    -0.989268  1.263124  2.573058
O    -0.836378  2.448421  2.856106
H    0.224246  -0.515655  2.928137
H    1.098703  0.934942  2.365433
H    0.129595  -0.030802  1.224574
N    -2.249487  0.717321  2.514716
C    -2.627093  -0.676415  2.305239
C    -3.919566  -0.740333  1.454691
O    -4.947926  -1.271497  1.868620
H    -2.981278  1.370316  2.783991
H    -1.833279  -1.140112  1.699197
C    -2.757945  -1.486069  3.607710
C    -3.606352  -0.833404  4.700746
C    -3.727093  -1.734292  5.936819
N    -4.505040  -1.148320  7.021187
C    -3.978927  -0.569258  8.164772
N    -2.650005  -0.154633  8.041311
N    -4.582136  -0.404939  9.294555
H    -1.741592  -1.664981  3.994473
H    -3.177685  -2.469533  3.349323
H    -4.612119  -0.614826  4.316333
H    -3.159296  0.128276  4.999599
H    -2.727445  -1.989438  6.320243
H    -4.203881  -2.682899  5.645826
H    -5.463365  -1.458316  7.113946
H    -2.368486  0.358731  8.871584
H    -2.424508  0.347298  7.186585
H    -5.486293  -0.885108  9.308399
N    -3.865193  -0.178762  0.209943
C    -2.734924  0.421178  -0.481272
H    -4.750268  -0.232152  -0.284243
H    -2.515891  1.439256  -0.130546
H    -2.966988  0.461921  -1.551126
H    -1.827084  -0.186521  -0.367175
