35
Energy: -21190.2706843 eV PBE+vdW (tier 2 basis)
C    -0.459043  -1.542780  0.566611
C    -0.451344  -0.821384  1.902107
O    0.331468  -1.117149  2.801263
H    0.569743  -1.607755  0.194300
H    -1.090232  -1.067490  -0.194481
H    -0.814078  -2.569274  0.727084
N    -1.367055  0.189618  2.024948
C    -1.649877  0.916018  3.262720
C    -0.388515  1.234606  4.103916
O    -0.344467  1.012299  5.313560
H    -2.017643  0.327458  1.260407
H    -2.006103  1.910837  2.940556
C    -2.803016  0.290748  4.081428
C    -2.811074  -1.228293  4.303426
C    -1.778164  -1.798165  5.292289
N    -1.788520  -1.178579  6.614930
C    -2.890967  -1.185681  7.454472
N    -3.686628  -2.333984  7.364688
N    -3.235353  -0.259417  8.288137
H    -3.733679  0.550316  3.552937
H    -2.849114  0.813864  5.046560
H    -2.694985  -1.752958  3.340692
H    -3.814456  -1.491132  4.670280
H    -0.763239  -1.676433  4.896128
H    -1.945680  -2.882280  5.380690
H    -1.284663  -0.293058  6.609904
H    -4.347583  -2.362839  8.135527
H    -3.170704  -3.203850  7.265321
H    -2.648052  0.570579  8.165944
N    0.618935  1.930561  3.501323
C    0.802748  2.287631  2.107632
H    1.406625  2.071926  4.126205
H    1.197332  1.455716  1.503746
H    1.512974  3.121158  2.054636
H    -0.137948  2.628110  1.658691
