35
Energy: -21190.1326128 eV PBE+vdW (tier 2 basis)
C    0.668130  -0.507568  0.148206
C    0.521788  -0.161699  1.618466
O    1.477231  -0.232192  2.388818
H    1.359230  -1.350814  0.048810
H    1.116128  0.356797  -0.361493
H    -0.280774  -0.751524  -0.346194
N    -0.752639  0.205617  1.987705
C    -1.111946  0.867911  3.239871
C    -0.610165  2.337491  3.202258
O    0.362625  2.685717  2.546469
H    -1.393745  0.354524  1.217462
H    -2.213515  0.916358  3.243956
C    -0.688718  -0.015300  4.444030
C    -0.787558  0.549405  5.870555
C    0.534088  1.094795  6.434715
N    0.976113  2.357613  5.852022
C    2.243305  2.581068  5.303452
N    2.782461  1.497796  4.630708
N    2.902998  3.691331  5.386122
H    0.338579  -0.350343  4.265614
H    -1.314484  -0.915741  4.364929
H    -1.100021  -0.270209  6.536263
H    -1.577135  1.313343  5.965843
H    1.329551  0.355773  6.269883
H    0.431818  1.210113  7.527797
H    0.627117  3.181504  6.328337
H    3.666513  1.757299  4.203743
H    2.175491  1.014663  3.963843
H    2.461383  4.331209  6.053723
N    -1.387526  3.218411  3.898272
C    -0.974161  4.595936  4.100463
H    -2.171906  2.862736  4.429449
H    -1.210240  4.911863  5.124776
H    -1.471245  5.281809  3.398819
H    0.108343  4.659269  3.938313
