35
Energy: -21190.1772003 eV PBE+vdW (tier 2 basis)
C    -0.294247  0.916185  0.555669
C    -0.257719  0.438257  1.996746
O    0.795747  0.310641  2.615518
H    0.738265  1.049453  0.223202
H    -0.820822  1.876791  0.461148
H    -0.795377  0.196268  -0.105423
N    -1.460632  0.167282  2.602392
C    -2.795660  0.175807  2.014940
C    -3.820612  0.729856  3.037131
O    -4.806711  0.083061  3.382616
H    -1.361457  -0.193296  3.548227
H    -2.778074  0.890424  1.177193
C    -3.239391  -1.190598  1.464926
C    -3.054321  -2.363991  2.430480
C    -3.726364  -3.640064  1.902043
N    -3.597859  -4.805730  2.756955
C    -4.371478  -4.969048  3.902887
N    -3.976838  -6.092831  4.641970
N    -5.347260  -4.245378  4.327750
H    -2.677283  -1.383431  0.537124
H    -4.299777  -1.105605  1.185661
H    -3.484531  -2.113477  3.409886
H    -1.982062  -2.563021  2.584593
H    -3.311762  -3.902278  0.916046
H    -4.799947  -3.456288  1.742490
H    -2.663714  -5.198164  2.825267
H    -4.631547  -6.262475  5.400424
H    -3.819022  -6.928639  4.084389
H    -5.448843  -3.375935  3.799306
N    -3.584371  1.979822  3.536863
C    -2.546600  2.935247  3.182109
H    -4.282991  2.268191  4.214567
H    -2.870019  3.931004  3.505051
H    -2.395881  2.977755  2.095082
H    -1.581441  2.709041  3.656064
