35
Energy: -21190.7644598 eV PBE+vdW (tier 2 basis)
C    0.006057  -2.078714  -1.637264
C    -0.603991  -1.129062  -0.621233
O    -0.994246  -0.000700  -0.931766
H    0.881915  -1.595895  -2.088370
H    -0.721439  -2.252240  -2.440069
H    0.307571  -3.043689  -1.211780
N    -0.691924  -1.611310  0.647878
C    -1.205779  -0.825152  1.752248
C    -0.596174  -1.454620  3.020241
O    -0.291000  -2.655266  3.036442
H    -0.334111  -2.527169  0.914321
H    -0.854823  0.211314  1.631346
C    -2.762185  -0.804849  1.750208
C    -3.391731  0.438421  2.393911
C    -3.630278  0.350220  3.911543
N    -3.786351  1.649647  4.553969
C    -2.707380  2.468916  4.770130
N    -3.029762  3.727767  5.275520
N    -1.496600  2.036034  4.584165
H    -3.143260  -1.734403  2.202939
H    -3.054791  -0.827792  0.693103
H    -4.352321  0.652806  1.901281
H    -2.743884  1.303736  2.190241
H    -2.802430  -0.163319  4.411694
H    -4.536022  -0.234510  4.124993
H    -4.692488  2.093914  4.473928
H    -2.325266  4.439715  5.122927
H    -3.970572  4.070408  5.109818
H    -0.808821  2.739715  4.857518
N    -0.431441  -0.633469  4.075575
C    0.040466  -1.139903  5.351350
H    -0.765060  0.347310  4.059853
H    1.108567  -1.398427  5.313233
H    -0.509118  -2.044843  5.644982
H    -0.112329  -0.359592  6.105122
