35
Energy: -21190.3430579 eV PBE+vdW (tier 2 basis)
C    -0.311499  -0.622790  2.471399
C    -0.652631  0.384640  3.557648
O    -0.074599  0.392645  4.640394
H    0.474612  -1.277072  2.856582
H    0.056253  -0.123858  1.562870
H    -1.177666  -1.235004  2.185799
N    -1.631733  1.304790  3.276827
C    -2.403794  1.460338  2.060603
C    -2.842905  2.933537  1.990428
O    -3.009284  3.601958  3.013797
H    -1.782969  2.021149  3.986073
H    -1.757971  1.242680  1.194740
C    -3.652372  0.533827  1.956541
C    -4.876903  0.925927  2.792704
C    -4.719903  0.791293  4.320135
N    -5.890864  1.210577  5.067852
C    -6.209829  2.532653  5.377504
N    -5.166841  3.438648  5.281846
N    -7.354024  2.937991  5.826247
H    -3.328757  -0.485424  2.217391
H    -3.950059  0.495028  0.896652
H    -5.718527  0.287410  2.479684
H    -5.184478  1.955878  2.553349
H    -3.861704  1.364003  4.689012
H    -4.503138  -0.257715  4.576170
H    -6.706461  0.614807  4.984422
H    -5.486928  4.384914  5.454558
H    -4.491452  3.366892  4.524158
H    -7.996650  2.153519  5.965323
N    -3.083676  3.406320  0.742549
C    -3.601773  4.739130  0.483415
H    -2.889243  2.798408  -0.044343
H    -4.562910  4.691234  -0.045719
H    -2.892523  5.328175  -0.113114
H    -3.748807  5.232180  1.449249
