35
Energy: -21190.4249679 eV PBE+vdW (tier 2 basis)
C    -1.037416  -2.559209  0.084742
C    -0.241826  -1.430627  0.702826
O    0.988710  -1.375226  0.592545
H    -1.316377  -2.281894  -0.940896
H    -0.394613  -3.443363  0.037792
H    -1.954997  -2.799762  0.637100
N    -0.910167  -0.476027  1.413683
C    -2.326154  -0.167994  1.417298
C    -2.940918  -0.095980  -0.001320
O    -2.312511  0.287175  -0.982894
H    -0.306713  0.259020  1.805646
H    -2.878803  -0.934673  1.992889
C    -2.526832  1.185878  2.140233
C    -2.057211  2.455318  1.401200
C    -0.601477  2.508147  0.919946
N    0.340106  2.175205  2.008406
C    1.740402  2.212949  1.749066
N    2.129885  1.422835  0.691345
N    2.601559  2.900367  2.420137
H    -2.021553  1.103627  3.114747
H    -3.597681  1.299110  2.362123
H    -2.247209  3.305449  2.077722
H    -2.691799  2.627590  0.519782
H    -0.402511  3.516662  0.515303
H    -0.451693  1.801492  0.096465
H    0.150688  2.736897  2.837743
H    3.139397  1.412220  0.587214
H    1.707989  0.488088  0.615817
H    2.137834  3.545620  3.066174
N    -4.257474  -0.453543  -0.042048
C    -5.056164  -0.382399  -1.251132
H    -4.687538  -0.796719  0.808664
H    -5.904091  0.305886  -1.129833
H    -5.438985  -1.372733  -1.533672
H    -4.407002  -0.011475  -2.051262
