35
Energy: -21190.6369143 eV PBE+vdW (tier 2 basis)
C    0.693497  -0.828969  0.347660
C    0.310002  -0.752917  1.809739
O    1.088093  -1.099314  2.707554
H    0.969607  -1.862836  0.106739
H    1.583007  -0.207184  0.186345
H    -0.099510  -0.500111  -0.334713
N    -0.937064  -0.274939  2.077605
C    -1.442445  -0.081568  3.438441
C    -1.987267  -1.427805  3.995007
O    -3.194420  -1.670705  4.093184
H    -1.567391  -0.075801  1.308745
H    -0.572051  0.207429  4.047792
C    -2.500116  1.016255  3.456386
C    -2.939514  1.406354  4.868734
C    -4.197687  2.286374  4.894135
N    -5.318524  1.800638  4.075196
C    -6.235017  0.837502  4.526363
N    -5.659190  -0.234922  5.186166
N    -7.516640  0.885606  4.364400
H    -3.383898  0.676841  2.894903
H    -2.096724  1.895751  2.929773
H    -2.134450  1.956726  5.381409
H    -3.123570  0.504813  5.466645
H    -3.945957  3.279655  4.494213
H    -4.506024  2.429498  5.943958
H    -5.799984  2.550264  3.591585
H    -4.821007  -0.641583  4.762764
H    -6.360251  -0.933207  5.413904
H    -7.809574  1.800989  4.010544
N    -1.006804  -2.293699  4.341977
C    -1.278436  -3.646988  4.787484
H    -0.053750  -2.026697  4.077036
H    -2.309757  -3.692912  5.151944
H    -0.592666  -3.919454  5.599032
H    -1.165704  -4.375936  3.970450
