35
Energy: -21190.2291593 eV PBE+vdW (tier 2 basis)
C    0.036148  0.314428  0.173444
C    -0.039866  -0.003591  1.652112
O    0.969722  -0.100162  2.344900
H    0.112055  1.404088  0.052119
H    -0.821236  -0.035218  -0.411493
H    0.957942  -0.126458  -0.219038
N    -1.284036  -0.191039  2.224529
C    -2.621179  0.061915  1.676776
C    -3.045323  -0.955387  0.580165
O    -3.936869  -0.692296  -0.222222
H    -1.215524  -0.319295  3.230187
H    -3.303256  -0.160112  2.514901
C    -2.919550  1.506834  1.244362
C    -2.803240  2.559598  2.355955
C    -1.386078  3.105653  2.601883
N    -1.329235  4.207415  3.563388
C    -1.934762  5.443945  3.337740
N    -1.902218  5.859165  2.006102
N    -2.489256  6.205078  4.218450
H    -3.943434  1.493082  0.850882
H    -2.287290  1.788080  0.388979
H    -3.208756  2.160545  3.301543
H    -3.438942  3.416200  2.089476
H    -0.959112  3.441151  1.645166
H    -0.707512  2.328439  2.975778
H    -1.417135  3.913831  4.531045
H    -2.209697  6.824055  1.927822
H    -1.026890  5.689245  1.518923
H    -2.577891  5.728212  5.120118
N    -2.402294  -2.153022  0.635276
C    -2.695368  -3.243611  -0.273130
H    -1.655622  -2.247766  1.314932
H    -2.990582  -4.147245  0.277484
H    -1.827725  -3.481963  -0.904682
H    -3.525639  -2.928430  -0.914052
