35
Energy: -21190.4195894 eV PBE+vdW (tier 2 basis)
C    1.541604  0.147298  1.151773
C    0.864490  -0.132772  2.479645
O    1.461008  -0.624600  3.430871
H    2.258865  0.966833  1.291586
H    0.845875  0.422391  0.349001
H    2.112052  -0.738302  0.849462
N    -0.475577  0.192893  2.534585
C    -1.217696  0.188607  3.788403
C    -2.369279  -0.840285  3.836492
O    -3.221324  -0.786299  4.721598
H    -0.861372  0.720449  1.758901
H    -0.488574  -0.158082  4.539008
C    -1.709733  1.587322  4.190259
C    -2.714100  2.225568  3.228533
C    -3.150275  3.629812  3.667674
N    -2.057650  4.599216  3.660231
C    -1.690437  5.381333  4.745127
N    -1.876757  4.772964  5.989971
N    -1.245320  6.572389  4.522254
H    -0.829212  2.238780  4.295702
H    -2.180176  1.482062  5.179041
H    -3.610753  1.591312  3.152189
H    -2.290540  2.304535  2.211964
H    -3.575103  3.588598  4.679870
H    -3.959272  3.982655  3.007695
H    -1.945619  5.133686  2.804274
H    -1.462308  5.284416  6.760444
H    -1.682082  3.776694  6.037570
H    -0.873141  6.998635  5.374373
N    -2.338931  -1.795546  2.869218
C    -3.270042  -2.905392  2.835299
H    -1.559281  -1.768334  2.221680
H    -2.772297  -3.856116  3.075536
H    -3.742308  -2.991922  1.847481
H    -4.042413  -2.713126  3.587825
