35
Energy: -21190.6298471 eV PBE+vdW (tier 2 basis)
C    -2.632723  0.134621  0.462424
C    -1.970871  -0.276715  1.763540
O    -1.091461  -1.129200  1.819805
H    -2.864516  -0.764285  -0.119366
H    -1.916635  0.729111  -0.120892
H    -3.547157  0.725274  0.600001
N    -2.430155  0.368909  2.892459
C    -1.704910  0.265644  4.158100
C    -2.051878  -1.011277  4.948763
O    -1.281863  -1.466564  5.802420
H    -3.024857  1.181362  2.763445
H    -0.641462  0.177184  3.910872
C    -1.952433  1.558957  4.965721
C    -1.319802  1.673489  6.360829
C    0.212686  1.774564  6.410599
N    0.894309  0.556959  5.997684
C    1.509981  0.488031  4.762460
N    1.876177  -0.816105  4.409323
N    1.740693  1.555384  4.066091
H    -3.044130  1.684990  5.071810
H    -1.587293  2.390538  4.342365
H    -1.656467  0.840064  6.996762
H    -1.723433  2.586923  6.825583
H    0.509507  2.026379  7.441567
H    0.575179  2.577907  5.755439
H    0.402352  -0.297429  6.261073
H    1.950870  -0.954848  3.406854
H    1.319096  -1.551152  4.840367
H    2.257933  1.324338  3.215168
N    -3.258427  -1.560593  4.669314
C    -3.724526  -2.792002  5.275356
H    -3.751655  -1.175393  3.870672
H    -4.761683  -2.685364  5.618626
H    -3.080420  -3.008731  6.133823
H    -3.666218  -3.635047  4.571350
