35
Energy: -21190.4882579 eV PBE+vdW (tier 2 basis)
C    -0.118876  -3.598848  -0.330409
C    -0.062175  -2.688987  0.878315
O    0.953992  -2.040432  1.159018
H    -1.075537  -4.122883  -0.445082
H    0.689269  -4.336984  -0.257539
H    0.067563  -2.998180  -1.229566
N    -1.193519  -2.628908  1.632569
C    -1.351891  -1.751802  2.792495
C    -0.741494  -2.361498  4.090652
O    -1.418473  -2.585446  5.092782
H    -1.962496  -3.247988  1.405009
H    -0.758594  -0.851442  2.567333
C    -2.816655  -1.344674  2.984695
C    -3.839543  -2.486859  3.025166
C    -5.259336  -1.992223  3.362638
N    -5.475997  -1.596508  4.741093
C    -5.733904  -2.530668  5.741500
N    -5.786856  -1.938486  7.006750
N    -5.923673  -3.799685  5.628222
H    -3.087587  -0.639808  2.182477
H    -2.858851  -0.791412  3.933629
H    -3.529832  -3.239469  3.763619
H    -3.901789  -2.986696  2.042499
H    -5.993927  -2.775221  3.126472
H    -5.513355  -1.133308  2.720914
H    -4.958630  -0.782734  5.058057
H    -6.318930  -1.073506  7.050839
H    -6.087225  -2.611488  7.705740
H    -5.709907  -4.136048  4.687177
N    0.595228  -2.578880  3.996107
C    1.372450  -3.157302  5.073811
H    1.046173  -2.330266  3.110775
H    0.696745  -3.352833  5.913172
H    2.162150  -2.468258  5.405184
H    1.840482  -4.102270  4.762885
