35
Energy: -21190.5344061 eV PBE+vdW (tier 2 basis)
C    0.328324  -0.701972  0.297493
C    -0.133836  -0.269547  1.676316
O    0.547880  -0.449872  2.685560
H    0.518481  -1.782273  0.313637
H    1.280717  -0.205766  0.073426
H    -0.390089  -0.475893  -0.499925
N    -1.357826  0.334017  1.721190
C    -1.958109  0.776219  2.964678
C    -3.478375  0.668075  2.787822
O    -4.015270  0.958755  1.717450
H    -1.928180  0.455297  0.888833
H    -1.599914  0.102180  3.758476
C    -1.531784  2.220749  3.316008
C    -2.071853  2.739956  4.648409
C    -1.466525  4.101870  5.025303
N    -1.956455  4.667765  6.269793
C    -1.534358  4.201197  7.510363
N    -2.284290  4.746538  8.560850
N    -0.587803  3.369965  7.778377
H    -1.844428  2.880234  2.491331
H    -0.431512  2.222168  3.332717
H    -1.856028  2.018040  5.452851
H    -3.167719  2.842317  4.606115
H    -1.668342  4.830831  4.226109
H    -0.370702  4.023221  5.093399
H    -2.920262  4.987025  6.250958
H    -1.866422  4.502996  9.454725
H    -2.450542  5.746950  8.483724
H    -0.196361  2.945932  6.934663
N    -4.162266  0.260586  3.889935
C    -5.610210  0.177346  3.937556
H    -3.629632  0.025853  4.719118
H    -5.939538  -0.844719  4.168380
H    -5.989848  0.459698  2.950242
H    -6.023215  0.862722  4.690941
