35
Energy: -21190.3552333 eV PBE+vdW (tier 2 basis)
C    -0.898055  -1.881325  0.809438
C    -0.708392  -0.717040  1.758010
O    0.006362  0.249097  1.474381
H    0.079871  -2.331298  0.597765
H    -1.292569  -1.498480  -0.140005
H    -1.575821  -2.655357  1.190044
N    -1.392006  -0.798104  2.940152
C    -1.296519  0.239135  3.971755
C    -0.065857  -0.007333  4.887330
O    -0.157319  -0.388995  6.053733
H    -1.785272  -1.695591  3.197733
H    -1.087086  1.161301  3.409319
C    -2.608832  0.459935  4.735588
C    -3.215448  -0.682180  5.568704
C    -3.809344  -1.875321  4.792030
N    -4.689616  -1.553222  3.680043
C    -6.040901  -1.246472  3.772152
N    -6.608315  -1.443481  5.031411
N    -6.804491  -0.885830  2.795670
H    -3.355458  0.820210  4.010497
H    -2.423963  1.301453  5.418374
H    -4.017006  -0.231082  6.176331
H    -2.466516  -1.059623  6.277438
H    -4.366478  -2.519420  5.486371
H    -3.005899  -2.526263  4.409037
H    -4.250148  -1.204540  2.836607
H    -6.086342  -1.084326  5.824985
H    -7.574947  -1.131493  5.030240
H    -6.308744  -0.918499  1.900493
N    1.110284  0.246837  4.252874
C    2.401081  0.014167  4.869962
H    1.058222  0.503398  3.265176
H    3.030439  0.911868  4.805607
H    2.931834  -0.821825  4.390895
H    2.233248  -0.231302  5.923857
