35
Energy: -21190.6712873 eV PBE+vdW (tier 2 basis)
C    -1.706282  1.706001  0.563938
C    -0.865115  0.500241  0.910448
O    -0.094330  -0.024079  0.094471
H    -2.740124  1.610971  0.921178
H    -1.699066  1.833119  -0.521595
H    -1.281561  2.604915  1.032218
N    -0.968712  -0.002929  2.176591
C    -1.736805  0.477756  3.314859
C    -1.344534  1.850972  3.917195
O    -2.167591  2.420548  4.640544
H    -0.376058  -0.814747  2.319127
H    -2.784203  0.620269  3.006487
C    -1.752526  -0.587520  4.432900
C    -0.509880  -0.769641  5.326029
C    0.766244  -1.425161  4.747815
N    1.745913  -0.500207  4.179815
C    1.944018  -0.234793  2.838100
N    1.916797  -1.307617  1.973111
N    2.150601  0.998181  2.480762
H    -2.031923  -1.552381  3.978333
H    -2.581305  -0.309445  5.096910
H    -0.833366  -1.402735  6.166340
H    -0.236943  0.195868  5.781388
H    0.501658  -2.173726  3.986317
H    1.258152  -1.986123  5.557375
H    1.902638  0.339184  4.731296
H    1.505629  -1.133092  1.054459
H    1.862621  -2.250904  2.335135
H    2.440359  1.048571  1.501810
N    -0.117714  2.339826  3.643401
C    0.319972  3.597874  4.220943
H    0.595843  1.815255  3.099470
H    1.377969  3.733316  3.972178
H    0.194513  3.600070  5.312896
H    -0.256341  4.445661  3.823302
