35
Energy: -21190.24806 eV PBE+vdW (tier 2 basis)
C    -0.794278  -2.742500  2.004840
C    -0.409578  -1.336530  2.422705
O    0.712517  -1.057783  2.836032
H    0.117962  -3.344918  1.990153
H    -1.250914  -2.770948  1.004670
H    -1.500585  -3.201520  2.715987
N    -1.370061  -0.352205  2.312273
C    -2.794663  -0.517783  2.033849
C    -3.246087  0.727443  1.243402
O    -3.740471  1.705063  1.801464
H    -1.079930  0.540983  2.705303
H    -2.887592  -1.396905  1.382960
C    -3.625751  -0.728153  3.305511
C    -5.117738  -1.011769  3.084939
C    -5.447051  -2.172800  2.127337
N    -4.700727  -3.420075  2.326104
C    -4.578079  -4.050807  3.558041
N    -5.743749  -4.049058  4.320817
N    -3.430242  -4.543663  3.886090
H    -3.528734  0.170705  3.930009
H    -3.163911  -1.556892  3.860954
H    -5.619111  -0.109376  2.703450
H    -5.566106  -1.223883  4.065699
H    -5.260011  -1.878392  1.084467
H    -6.528542  -2.375501  2.174738
H    -3.802512  -3.456266  1.853935
H    -5.722924  -4.659078  5.129424
H    -6.617175  -4.102651  3.805132
H    -3.485788  -5.106809  4.738293
N    -3.044151  0.698191  -0.107942
C    -2.343192  -0.316798  -0.878902
H    -3.281797  1.570263  -0.570258
H    -2.316152  0.002969  -1.925697
H    -2.860801  -1.287188  -0.846811
H    -1.307807  -0.457076  -0.536293
