35
Energy: -21190.462862 eV PBE+vdW (tier 2 basis)
C    2.587533  1.735762  1.395239
C    1.825598  1.196958  2.587767
O    2.430323  0.656629  3.528345
H    3.371255  2.413448  1.754254
H    1.962890  2.261125  0.663286
H    3.086719  0.895416  0.895642
N    0.479983  1.368075  2.550423
C    -0.586376  0.863173  3.440293
C    -0.523998  1.173923  4.958049
O    -1.581425  1.105120  5.585211
H    0.133490  1.848658  1.728570
H    -1.467542  1.447937  3.142375
C    -0.964134  -0.612569  3.161417
C    0.091254  -1.701906  3.384520
C    0.455907  -1.972880  4.856839
N    1.310042  -3.123003  5.063506
C    2.677336  -3.175217  4.855327
N    3.330942  -1.944213  4.846597
N    3.231466  -4.343152  4.784723
H    -1.301716  -0.662227  2.114743
H    -1.850747  -0.815441  3.781471
H    1.004388  -1.485150  2.810900
H    -0.308795  -2.637107  2.961831
H    -0.467591  -2.131741  5.434261
H    0.936316  -1.096684  5.310769
H    0.891062  -4.042780  4.980632
H    4.290510  -2.005306  4.527870
H    2.854503  -1.135920  4.449280
H    4.245927  -4.263742  4.685657
N    0.663180  1.520339  5.504954
C    0.786629  1.747146  6.934354
H    1.503774  1.311418  4.956529
H    1.685261  2.343386  7.127191
H    0.859101  0.802083  7.495569
H    -0.095601  2.286822  7.294754
