35
Energy: -21190.457208 eV PBE+vdW (tier 2 basis)
C    0.121331  0.722408  0.168726
C    -0.268496  0.317450  1.576047
O    0.518467  0.343328  2.517860
H    1.154928  1.076337  0.190672
H    -0.530159  1.515579  -0.222518
H    0.050152  -0.129927  -0.522082
N    -1.574906  -0.084000  1.767662
C    -2.618615  -0.255389  0.765307
C    -3.289989  1.063327  0.317441
O    -3.956047  1.099752  -0.725555
H    -1.759185  -0.421290  2.709376
H    -2.190157  -0.691668  -0.149908
C    -3.677574  -1.233626  1.322188
C    -4.749710  -1.685576  0.307683
C    -6.187315  -1.376163  0.744747
N    -6.416293  0.051356  0.936217
C    -6.795126  0.639814  2.120152
N    -7.542794  -0.191164  2.967276
N    -6.427556  1.854239  2.382566
H    -4.158194  -0.752457  2.189281
H    -3.133511  -2.108098  1.707532
H    -4.673318  -2.769146  0.137306
H    -4.570076  -1.202598  -0.662096
H    -6.406842  -1.888942  1.691461
H    -6.881392  -1.780892  -0.011575
H    -5.884842  0.675010  0.329621
H    -7.937389  0.296684  3.763663
H    -8.227319  -0.785262  2.506637
H    -6.907962  2.210546  3.212270
N    -3.119919  2.120704  1.135792
C    -3.799033  3.389449  0.927828
H    -2.602524  1.964226  1.993932
H    -3.886287  3.568205  -0.149706
H    -3.209757  4.193251  1.383586
H    -4.806858  3.355446  1.368415
