35
Energy: -21190.2218381 eV PBE+vdW (tier 2 basis)
C    -1.746253  -1.054430  0.068214
C    -1.036874  -1.144856  1.409973
O    -0.339412  -2.110190  1.708520
H    -1.345479  -0.228054  -0.537167
H    -2.829595  -0.906462  0.171066
H    -1.571476  -1.994517  -0.460841
N    -1.216843  -0.114083  2.302817
C    -1.866173  1.162580  2.081321
C    -0.831922  2.282228  2.312683
O    0.017749  2.174127  3.194310
H    -0.597369  -0.149296  3.111844
H    -2.232242  1.181578  1.048114
C    -3.062377  1.411892  3.030283
C    -4.207738  0.394237  2.914986
C    -4.059015  -0.845330  3.816938
N    -5.178968  -1.767892  3.731629
C    -5.308933  -2.658466  2.667491
N    -6.602261  -3.191633  2.578161
N    -4.422535  -3.015929  1.805862
H    -3.448094  2.422025  2.822812
H    -2.680094  1.445145  4.063392
H    -4.331111  0.070381  1.869920
H    -5.150301  0.894846  3.187367
H    -3.963270  -0.525186  4.865719
H    -3.137543  -1.394071  3.584752
H    -6.065050  -1.380831  4.044901
H    -6.617012  -3.966198  1.920111
H    -7.009504  -3.455154  3.472150
H    -3.540141  -2.516477  1.930256
N    -0.934315  3.402345  1.540728
C    -1.842313  3.641642  0.430151
H    -0.243727  4.113476  1.760360
H    -1.659628  4.651117  0.047718
H    -2.896986  3.591202  0.737040
H    -1.682618  2.937251  -0.399908
