35
Energy: -21190.4234098 eV PBE+vdW (tier 2 basis)
C    -0.665874  -1.225327  -0.367253
C    -0.252836  -0.963203  1.067770
O    0.896056  -1.153223  1.463843
H    -0.412718  -2.261039  -0.624329
H    -0.078355  -0.572907  -1.025444
H    -1.732738  -1.057874  -0.559773
N    -1.250222  -0.509551  1.891552
C    -1.013922  -0.114107  3.276607
C    -1.968818  -0.921595  4.182522
O    -2.998213  -0.421858  4.650482
H    -2.167231  -0.325717  1.499361
H    0.029027  -0.398363  3.477130
C    -1.183873  1.393085  3.473825
C    -0.784319  1.867223  4.872004
C    -1.205329  3.313162  5.171629
N    -2.605511  3.637599  4.858999
C    -3.670579  3.357566  5.727798
N    -3.620493  2.100435  6.308806
N    -4.650859  4.155187  5.999766
H    -2.231698  1.669381  3.287202
H    -0.573660  1.898629  2.709863
H    0.308427  1.804248  4.998517
H    -1.218827  1.206797  5.633838
H    -0.598781  3.994325  4.557073
H    -0.973085  3.536836  6.227130
H    -2.709756  4.560312  4.452482
H    -4.458141  1.926915  6.855962
H    -3.386083  1.319781  5.691381
H    -4.473410  5.095137  5.633757
N    -1.648450  -2.219039  4.435910
C    -0.592142  -3.033748  3.856426
H    -2.359802  -2.696437  4.983507
H    -0.240914  -3.755306  4.603893
H    0.258722  -2.418824  3.547006
H    -0.941727  -3.586184  2.970422
