35
Energy: -21190.4869421 eV PBE+vdW (tier 2 basis)
C    -2.549986  -0.293843  0.477135
C    -1.771743  0.257394  1.655225
O    -0.539476  0.366370  1.612212
H    -3.637083  -0.297414  0.621576
H    -2.214230  -1.321522  0.288903
H    -2.306973  0.297586  -0.413884
N    -2.518003  0.616133  2.736648
C    -2.028373  1.087895  4.042844
C    -1.430501  2.520377  4.022578
O    -1.891479  3.386389  4.768296
H    -3.522601  0.534566  2.644455
H    -2.927954  1.204145  4.660138
C    -1.101263  0.064559  4.726848
C    -0.695648  0.488226  6.139317
C    0.181930  -0.558837  6.819607
N    0.552913  -0.122455  8.158084
C    1.123233  -1.017744  9.045458
N    1.569730  -0.384966  10.219463
N    1.225915  -2.268046  8.748947
H    -0.208700  -0.097723  4.107360
H    -1.637808  -0.896856  4.763605
H    -1.589880  0.669742  6.755870
H    -0.157281  1.449512  6.093382
H    1.074371  -0.772582  6.202461
H    -0.348959  -1.513984  6.925996
H    0.922783  0.821756  8.216464
H    1.830047  -1.034668  10.953802
H    0.950136  0.342626  10.568538
H    1.561259  -2.809162  9.549637
N    -0.374731  2.696996  3.191178
C    0.300299  3.971631  3.052286
H    -0.128842  1.910361  2.578429
H    1.383162  3.855319  3.196820
H    -0.094103  4.652609  3.813951
H    0.126562  4.412271  2.059382
