35
Energy: -21190.1271272 eV PBE+vdW (tier 2 basis)
C    -0.813597  0.610783  0.685049
C    -0.720598  0.040736  2.091212
O    0.267327  0.228370  2.797030
H    -1.781038  0.448824  0.193588
H    -0.026445  0.153274  0.072152
H    -0.607914  1.687006  0.728348
N    -1.821870  -0.666844  2.495091
C    -2.006685  -1.492935  3.695054
C    -2.868516  -0.883341  4.824037
O    -3.552272  -1.656114  5.509165
H    -2.570399  -0.739897  1.816735
H    -2.652409  -2.313696  3.353201
C    -0.737533  -2.178382  4.265808
C    0.075208  -1.444500  5.350638
C    0.321771  -2.321144  6.587506
N    -0.916630  -2.729978  7.227392
C    -1.420229  -4.010565  7.105230
N    -2.801154  -4.055503  7.344884
N    -0.631310  -5.005956  6.858609
H    -0.094598  -2.445265  3.417693
H    -1.093712  -3.127976  4.686112
H    -0.445728  -0.531170  5.677145
H    1.031330  -1.095911  4.941611
H    0.955268  -1.777130  7.306059
H    0.850438  -3.246799  6.324988
H    -1.611361  -2.008892  7.384538
H    -3.200183  -4.975608  7.193535
H    -3.321772  -3.329680  6.847320
H    -1.165643  -5.870881  6.754163
N    -2.898725  0.452444  5.073776
C    -2.112612  1.553618  4.533084
H    -3.548477  0.672579  5.823559
H    -2.070701  2.344933  5.290311
H    -2.561510  1.973265  3.620484
H    -1.085240  1.244390  4.311280
