35
Energy: -21190.6145958 eV PBE+vdW (tier 2 basis)
C    -1.910144  0.374967  -0.414285
C    -1.161759  0.321421  0.900448
O    0.066418  0.460239  0.958367
H    -1.702321  1.338065  -0.896670
H    -2.995139  0.254391  -0.309927
H    -1.523530  -0.411513  -1.074297
N    -1.921825  0.120289  2.013153
C    -1.350981  0.074362  3.362149
C    -0.813491  -1.358706  3.622106
O    -1.443968  -2.202015  4.263422
H    -2.911068  -0.077551  1.910561
H    -0.494285  0.765404  3.346839
C    -2.382673  0.541337  4.390812
C    -1.804040  1.005308  5.736061
C    -1.241970  -0.095203  6.655561
N    -2.181972  -1.169092  6.965683
C    -3.376837  -0.929801  7.625611
N    -3.271444  -0.010790  8.681456
N    -4.454614  -1.520924  7.230433
H    -3.124237  -0.255463  4.556380
H    -2.919828  1.391978  3.945181
H    -2.604076  1.524079  6.284647
H    -1.013436  1.754907  5.562761
H    -0.888146  0.376194  7.584154
H    -0.359496  -0.572141  6.208271
H    -2.314659  -1.808123  6.180131
H    -4.089195  0.011644  9.280642
H    -2.409082  -0.068865  9.217262
H    -5.220852  -1.375282  7.894258
N    0.396774  -1.580764  3.049486
C    1.025981  -2.887751  3.043465
H    0.721474  -0.863097  2.396219
H    2.100236  -2.793041  3.246196
H    0.893216  -3.398694  2.077711
H    0.560824  -3.496878  3.825308
