35
Energy: -21190.2045682 eV PBE+vdW (tier 2 basis)
C    0.337519  -0.246342  0.663149
C    0.207765  -0.531716  2.147379
O    1.188935  -0.771427  2.855508
H    1.393264  -0.331281  0.393815
H    -0.017320  0.764503  0.415837
H    -0.245229  -0.954970  0.058096
N    -1.050099  -0.515829  2.691307
C    -2.284566  -0.113771  2.044407
C    -2.613738  1.403791  1.996169
O    -3.446565  1.776685  1.168021
H    -1.034659  -0.618029  3.712590
H    -2.205499  -0.362251  0.978003
C    -3.508701  -0.889719  2.580398
C    -3.688698  -0.859465  4.109919
C    -3.100306  -2.097873  4.819691
N    -2.776948  -1.895126  6.233965
C    -1.770476  -1.002670  6.605693
N    -0.669378  -1.009980  5.739172
N    -1.766658  -0.197973  7.610835
H    -3.428558  -1.933465  2.238524
H    -4.386380  -0.464071  2.078685
H    -4.756834  -0.781692  4.358017
H    -3.226829  0.046200  4.532658
H    -2.196343  -2.437237  4.297505
H    -3.806010  -2.938293  4.758947
H    -3.591562  -1.817661  6.836080
H    0.085306  -0.436235  6.106604
H    -0.330189  -1.929508  5.464018
H    -2.678552  -0.177763  8.076444
N    -2.000477  2.308762  2.814306
C    -1.082697  2.162743  3.941005
H    -2.333067  3.248664  2.620002
H    -1.459484  1.471513  4.705102
H    -0.987230  3.145944  4.414531
H    -0.081640  1.834902  3.633455
