35
Energy: -21190.0029732 eV PBE+vdW (tier 2 basis)
C    1.120232  -0.077616  0.528533
C    0.521876  0.171790  1.902743
O    1.018988  0.962353  2.697591
H    1.079873  0.858335  -0.043653
H    0.611743  -0.862832  -0.045308
H    2.177415  -0.343346  0.646673
N    -0.637110  -0.520721  2.164713
C    -1.254659  -0.536643  3.496859
C    -2.280721  -1.671086  3.651646
O    -2.370714  -2.244927  4.733638
H    -0.825509  -1.318739  1.568850
H    -0.477633  -0.806497  4.228589
C    -1.819446  0.817704  3.994969
C    -2.949688  1.500584  3.216051
C    -2.507915  2.203635  1.923125
N    -3.566081  2.960635  1.265350
C    -3.946147  4.201373  1.751094
N    -5.076853  4.702938  1.081326
N    -3.308194  4.756402  2.722829
H    -0.968715  1.506064  4.083611
H    -2.164003  0.617376  5.019937
H    -3.375821  2.277125  3.866901
H    -3.770907  0.796107  3.005973
H    -2.109566  1.489267  1.189237
H    -1.701149  2.909811  2.156994
H    -4.330559  2.410674  0.886173
H    -5.284993  5.668967  1.311242
H    -5.070654  4.553764  0.074868
H    -3.627671  5.715210  2.877591
N    -3.054191  -2.090523  2.589616
C    -3.478862  -1.399176  1.379662
H    -3.643914  -2.868015  2.879059
H    -4.510251  -1.025131  1.472369
H    -3.436045  -2.080611  0.517951
H    -2.830005  -0.545169  1.174279
