35
Energy: -21190.5333898 eV PBE+vdW (tier 2 basis)
C    -3.400876  -0.664735  1.396789
C    -2.452570  -0.888146  2.556793
O    -1.229129  -0.990768  2.395277
H    -3.413971  -1.566075  0.770059
H    -3.013157  0.154019  0.778751
H    -4.426547  -0.433955  1.710541
N    -3.034264  -0.961602  3.785188
C    -2.294832  -1.115215  5.043601
C    -1.930126  -2.614331  5.294047
O    -2.393961  -3.260605  6.230579
H    -4.047121  -0.912298  3.850078
H    -1.340029  -0.583384  4.902532
C    -3.090291  -0.521754  6.213544
C    -2.643006  0.855802  6.718135
C    -2.587444  2.006172  5.681792
N    -3.606346  2.006512  4.639876
C    -4.964207  2.039709  4.906821
N    -5.727053  1.636060  3.791143
N    -5.569526  2.352698  5.998427
H    -3.031513  -1.240886  7.041220
H    -4.157647  -0.483910  5.945813
H    -1.641253  0.778919  7.170210
H    -3.317539  1.130273  7.541758
H    -1.626812  1.983064  5.150238
H    -2.612332  2.970503  6.212651
H    -3.367957  1.420958  3.846544
H    -5.437424  2.077931  2.920370
H    -6.712866  1.811734  3.972021
H    -4.910567  2.520608  6.761457
N    -1.047585  -3.098304  4.383593
C    -0.609720  -4.480108  4.376184
H    -0.776764  -2.471199  3.620316
H    0.485089  -4.537122  4.313402
H    -1.038776  -5.036211  3.529143
H    -0.941877  -4.949353  5.308110
