35
Energy: -21190.1787605 eV PBE+vdW (tier 2 basis)
C    -0.062833  0.329746  -0.311264
C    -0.074092  -0.290293  1.070414
O    0.948234  -0.728768  1.595204
H    -0.675660  1.234543  -0.390423
H    -0.451469  -0.386446  -1.049191
H    0.976131  0.557840  -0.563628
N    -1.275792  -0.396929  1.735714
C    -2.611875  0.103598  1.398923
C    -3.056486  -0.326164  -0.021780
O    -3.333770  0.492654  -0.895524
H    -1.160983  -0.809381  2.656981
H    -3.287768  -0.414568  2.099955
C    -2.793719  1.611334  1.623362
C    -4.257564  2.017101  1.805198
C    -4.460154  3.526990  1.997691
N    -3.751456  4.124964  3.122756
C    -4.161079  3.907354  4.423480
N    -3.275079  4.470760  5.359198
N    -5.229001  3.229507  4.678586
H    -2.353133  2.159344  0.777080
H    -2.217624  1.869627  2.524444
H    -4.687094  1.497567  2.674923
H    -4.837848  1.717295  0.920247
H    -5.529005  3.726740  2.145466
H    -4.141566  4.066965  1.093516
H    -2.755625  4.271671  3.003305
H    -3.632675  4.462613  6.308522
H    -2.916628  5.388389  5.105108
H    -5.459850  3.268996  5.673999
N    -3.136644  -1.668944  -0.260901
C    -2.852461  -2.778333  0.634584
H    -3.408571  -1.884966  -1.214733
H    -3.287813  -2.610497  1.628740
H    -1.774710  -2.958803  0.755370
H    -3.316061  -3.682183  0.223906
