35
Energy: -21190.0044533 eV PBE+vdW (tier 2 basis)
C    1.386175  0.758951  0.519025
C    0.708242  0.783837  1.873386
O    1.088346  1.517683  2.785645
H    2.471740  0.780732  0.663047
H    1.103647  1.670195  -0.025551
H    1.116712  -0.111659  -0.091429
N    -0.360676  -0.058084  2.015212
C    -1.255770  0.008431  3.173276
C    -1.676048  1.493360  3.395191
O    -2.283486  2.031986  2.470233
H    -0.718703  -0.501780  1.178695
H    -2.210406  -0.396339  2.808225
C    -0.832726  -0.919911  4.336701
C    0.662519  -1.085699  4.624417
C    0.933555  -2.007666  5.813965
N    0.525495  -1.390747  7.067735
C    0.406592  -2.136937  8.238188
N    0.154021  -1.327010  9.351370
N    0.503812  -3.411824  8.389827
H    -1.227223  -1.920579  4.095044
H    -1.369808  -0.615609  5.246017
H    1.152577  -0.115729  4.783312
H    1.154911  -1.518090  3.741529
H    2.002473  -2.291738  5.827769
H    0.357789  -2.939139  5.697039
H    0.911928  -0.462441  7.219291
H    -0.049699  -1.894869  10.168929
H    -0.547931  -0.607125  9.200872
H    0.837093  -3.869760  7.538906
N    -1.532134  2.141056  4.591643
C    -0.508531  1.978821  5.616428
H    -1.929540  3.073695  4.516848
H    0.488986  1.884897  5.167592
H    -0.522626  2.874742  6.246471
H    -0.707085  1.115229  6.264590
