35
Energy: -21190.5839492 eV PBE+vdW (tier 2 basis)
C    1.544987  1.016752  0.555770
C    0.744373  0.504828  1.734927
O    1.228264  0.490032  2.878317
H    2.463220  0.421774  0.470001
H    1.847591  2.051732  0.757669
H    1.007500  0.979358  -0.399136
N    -0.513081  0.076133  1.455901
C    -1.483804  -0.539220  2.380101
C    -2.152919  0.459336  3.359358
O    -3.379760  0.512642  3.435588
H    -0.827107  0.190209  0.500348
H    -2.311598  -0.870270  1.740482
C    -0.922992  -1.755838  3.140511
C    -0.379539  -2.868041  2.237608
C    0.656186  -3.756113  2.945949
N    1.851855  -3.025505  3.324222
C    2.119055  -2.596968  4.622265
N    2.910274  -1.448858  4.646073
N    1.774510  -3.167584  5.727457
H    -1.737638  -2.141211  3.770429
H    -0.136495  -1.418033  3.825406
H    0.103306  -2.428936  1.348440
H    -1.200447  -3.496751  1.857772
H    0.922784  -4.604594  2.295898
H    0.223502  -4.187982  3.859365
H    2.262046  -2.446066  2.598787
H    3.085947  -1.155336  5.602367
H    2.569935  -0.686254  4.058301
H    1.343773  -4.080443  5.560109
N    -1.295443  1.193065  4.112093
C    -1.749150  2.133713  5.117560
H    -0.294057  1.035502  3.974558
H    -1.445430  1.814160  6.124699
H    -2.842468  2.175818  5.074501
H    -1.342010  3.136784  4.929177
