35
Energy: -21190.417064 eV PBE+vdW (tier 2 basis)
C    -3.808003  1.029087  0.089473
C    -2.662708  0.506921  0.935339
O    -1.606639  0.114783  0.441020
H    -4.666895  1.375972  0.676601
H    -4.135154  0.231140  -0.588965
H    -3.440275  1.854882  -0.531725
N    -2.881563  0.523186  2.287350
C    -1.962986  -0.093333  3.224035
C    -2.802252  -0.920925  4.210783
O    -3.951817  -0.589977  4.503464
H    -3.816405  0.683947  2.656474
H    -1.292501  -0.738170  2.633862
C    -1.118490  0.942200  4.001139
C    -0.199656  1.771259  3.104355
C    0.580434  2.820638  3.893796
N    1.469196  3.559767  3.015414
C    2.269478  4.616480  3.411212
N    2.629196  4.607718  4.763130
N    2.681648  5.448816  2.514490
H    -0.519220  0.407415  4.756061
H    -1.807912  1.598804  4.555986
H    -0.798619  2.273660  2.329327
H    0.504595  1.114291  2.572522
H    1.176859  2.310254  4.669934
H    -0.138205  3.484523  4.418099
H    1.165182  3.672909  2.053250
H    2.981362  5.496471  5.098229
H    1.978250  4.179767  5.413629
H    3.328526  6.135096  2.909404
N    -2.165201  -1.995216  4.748980
C    -2.769735  -2.854996  5.750177
H    -1.239127  -2.220211  4.405194
H    -2.171207  -2.872133  6.671335
H    -2.879953  -3.882468  5.377119
H    -3.762202  -2.451554  5.975506
