35
Energy: -21190.5429649 eV PBE+vdW (tier 2 basis)
C    1.206660  -0.460293  0.208437
C    0.679189  -0.380661  1.629329
O    1.427079  -0.267869  2.601558
H    1.797385  0.440257  -0.000691
H    0.418612  -0.555674  -0.548346
H    1.884224  -1.319914  0.133201
N    -0.679648  -0.426214  1.750809
C    -1.336837  -0.501443  3.038220
C    -2.704751  -1.167525  2.786730
O    -3.089696  -1.430493  1.644351
H    -1.275951  -0.698425  0.969333
H    -0.737814  -1.154793  3.695890
C    -1.421226  0.878982  3.740313
C    -2.236686  1.969730  3.034626
C    -3.750672  1.777175  3.115623
N    -4.462291  2.975116  2.684956
C    -5.839055  3.012397  2.832137
N    -6.410779  4.132704  2.208516
N    -6.459316  2.071620  3.461380
H    -0.381652  1.214934  3.852497
H    -1.801363  0.738504  4.766105
H    -1.914860  2.036879  1.981902
H    -1.985095  2.936007  3.497959
H    -4.057844  1.579166  4.151763
H    -4.076495  0.908359  2.522634
H    -4.126852  3.384448  1.817261
H    -7.385712  4.279885  2.446510
H    -5.869321  4.989319  2.295167
H    -7.448701  2.302229  3.581309
N    -3.439074  -1.428486  3.897713
C    -4.835664  -1.831689  3.830199
H    -3.084093  -1.093990  4.785844
H    -5.074907  -2.480489  4.680752
H    -4.988596  -2.386072  2.899166
H    -5.506590  -0.957935  3.834122
