35
Energy: -21190.485749 eV PBE+vdW (tier 2 basis)
C    -1.080348  -0.277133  -0.267856
C    -0.930480  -0.240070  1.237650
O    0.153393  -0.507043  1.781725
H    -2.056250  0.069810  -0.627650
H    -0.926203  -1.310507  -0.606855
H    -0.289311  0.334206  -0.717768
N    -2.050473  0.070704  1.938649
C    -2.209404  0.122754  3.403215
C    -1.554037  1.367515  4.059251
O    -2.220801  2.097739  4.791583
H    -2.865631  0.335233  1.399521
H    -3.283136  0.284500  3.560739
C    -1.803311  -1.152207  4.171207
C    -2.507024  -2.456003  3.769693
C    -1.925010  -3.180498  2.538479
N    -0.492590  -3.413744  2.605315
C    0.129063  -4.622162  2.850497
N    -0.706139  -5.616229  3.376234
N    1.366130  -4.911469  2.616994
H    -2.037031  -0.931361  5.222988
H    -0.716074  -1.296609  4.125667
H    -3.582568  -2.279247  3.600128
H    -2.446411  -3.141077  4.630310
H    -2.145311  -2.607312  1.626345
H    -2.427471  -4.149298  2.415510
H    0.106550  -2.666226  2.268992
H    -0.150426  -6.430753  3.622315
H    -1.302940  -5.320584  4.144522
H    1.829453  -4.158959  2.099834
N    -0.234233  1.533294  3.791675
C    0.543692  2.621857  4.349788
H    0.214556  0.841530  3.185471
H    1.011615  3.218749  3.554682
H    1.333096  2.244740  5.015706
H    -0.131880  3.260590  4.928287
