35
Energy: -21190.0204134 eV PBE+vdW (tier 2 basis)
C    0.084786  0.721396  0.008783
C    0.079763  0.141185  1.406840
O    1.122823  -0.060069  2.025824
H    -0.265990  1.763312  0.021414
H    -0.549882  0.141248  -0.669977
H    1.118660  0.710504  -0.346805
N    -1.123820  -0.128877  2.031363
C    -2.510557  -0.123406  1.582018
C    -2.829397  -1.301269  0.630354
O    -2.027246  -1.701641  -0.207715
H    -0.962168  -0.540574  2.945297
H    -3.091886  -0.256229  2.506532
C    -2.994600  1.196470  0.942569
C    -2.764859  2.422320  1.825874
C    -3.234275  3.709583  1.151209
N    -2.967446  4.867058  1.988397
C    -3.717382  6.021409  1.853901
N    -3.302377  7.059830  2.698075
N    -4.746261  6.046497  1.076030
H    -4.069857  1.090665  0.729026
H    -2.512734  1.330439  -0.035447
H    -1.693964  2.496796  2.074381
H    -3.293544  2.304574  2.785159
H    -4.317009  3.699348  0.971965
H    -2.759246  3.811818  0.156978
H    -2.004229  4.985850  2.282681
H    -3.516594  7.988835  2.354897
H    -2.367586  6.996407  3.089685
H    -5.259991  6.924629  1.178285
N    -4.075899  -1.855223  0.741181
C    -5.119118  -1.560968  1.710624
H    -4.241624  -2.600866  0.072445
H    -4.805597  -1.779071  2.742729
H    -5.983775  -2.194840  1.487860
H    -5.456734  -0.515704  1.658803
