35
Energy: -21190.396423 eV PBE+vdW (tier 2 basis)
C    0.089911  -0.329186  0.415464
C    0.020882  -0.344063  1.930816
O    1.039344  -0.314479  2.616508
H    0.246239  0.705122  0.079048
H    -0.798143  -0.727025  -0.086801
H    0.971397  -0.905913  0.116027
N    -1.217937  -0.417219  2.538456
C    -2.565601  -0.306292  1.977435
C    -3.033384  -1.540158  1.169291
O    -4.053478  -1.496478  0.474614
H    -1.142848  -0.377909  3.551292
H    -3.233097  -0.361987  2.855541
C    -2.845307  1.016905  1.236821
C    -3.039847  2.243164  2.146935
C    -4.488342  2.540770  2.582715
N    -5.123530  1.583569  3.485559
C    -5.531722  0.310667  3.104820
N    -6.244404  0.216059  1.915937
N    -5.256834  -0.678822  3.894120
H    -3.730030  0.861741  0.605823
H    -2.016824  1.214924  0.544895
H    -2.687111  3.139384  1.612390
H    -2.395369  2.163513  3.038277
H    -5.115976  2.659372  1.686233
H    -4.512335  3.517858  3.086885
H    -4.703546  1.537279  4.411158
H    -5.938677  -0.553202  1.321548
H    -6.356351  1.078167  1.392852
H    -5.752650  -1.522340  3.592631
N    -2.300953  -2.665576  1.351526
C    -2.659443  -3.946242  0.776255
H    -1.501141  -2.596186  1.971792
H    -1.832287  -4.353743  0.179360
H    -3.527761  -3.790363  0.127598
H    -2.924373  -4.673095  1.557108
