35
Energy: -21190.5657099 eV PBE+vdW (tier 2 basis)
C    -0.692883  -0.718050  -0.107179
C    -0.418570  -0.564611  1.374516
O    0.720968  -0.680189  1.841244
H    -0.106332  0.033164  -0.650885
H    -1.750616  -0.605397  -0.375025
H    -0.342510  -1.705059  -0.433062
N    -1.498890  -0.285087  2.155193
C    -1.407832  -0.064679  3.600206
C    -1.430574  -1.424641  4.351222
O    -2.415783  -1.823134  4.969684
H    -2.422885  -0.296521  1.738011
H    -0.425095  0.401152  3.770847
C    -2.515902  0.866776  4.082466
C    -2.415397  2.286112  3.521048
C    -3.543456  3.186762  4.040432
N    -3.491023  4.561949  3.564662
C    -2.611189  5.465198  4.137396
N    -2.595176  6.691749  3.450951
N    -1.901581  5.139023  5.162640
H    -2.468832  0.895731  5.180352
H    -3.494141  0.413671  3.849920
H    -2.442274  2.268441  2.418635
H    -1.453568  2.735487  3.808729
H    -3.503505  3.229169  5.136602
H    -4.523759  2.771664  3.758996
H    -3.638367  4.691674  2.568808
H    -2.081064  7.419312  3.936255
H    -3.509873  7.019627  3.149450
H    -1.401733  5.947237  5.539772
N    -0.258971  -2.106179  4.237434
C    -0.080779  -3.444085  4.765064
H    0.436858  -1.714819  3.598162
H    0.857031  -3.514372  5.331927
H    -0.063666  -4.198159  3.963437
H    -0.921924  -3.661093  5.431951
