37
Energy: -110552.037815 eV PBE+vdW (tier 2 basis)
C    -0.851972  0.016428  -0.431567
C    -0.729877  0.091331  1.056006
O    0.373179  0.434836  1.594456
H    -1.873525  -0.182940  -0.771443
H    -0.200758  -0.792997  -0.792578
H    -0.493604  0.948539  -0.885890
N    -1.792296  -0.209089  1.802871
C    -1.788184  -0.437003  3.255003
C    -2.426737  -1.841878  3.482940
O    -1.683295  -2.812659  3.487400
H    -2.628702  -0.503337  1.301705
H    -0.741867  -0.592411  3.538196
C    -2.365208  0.749139  4.087294
C    -1.287920  1.616811  4.665976
C    -0.774644  1.515273  5.945012
C    -0.527169  2.649653  4.019049
N    0.275827  2.390981  6.115960
C    0.466892  3.103626  4.960168
C    -0.577574  3.259241  2.743775
C    1.431334  4.067225  4.622573
C    0.378151  4.222350  2.409600
C    1.385108  4.608923  3.332411
H    -2.951497  0.337168  4.919525
H    -3.061550  1.342044  3.477405
H    -1.089240  0.873670  6.762766
H    0.761460  2.546638  6.994075
H    -1.353070  2.983703  2.029730
H    2.174234  4.408210  5.344288
H    0.336032  4.710741  1.436336
H    2.102971  5.378290  3.050300
N    -3.778429  -1.886884  3.580560
C    -4.505272  -3.143798  3.762390
H    -4.306088  -1.024542  3.662320
H    -3.880178  -3.961227  3.391838
H    -5.442195  -3.109840  3.196477
H    -4.728942  -3.322611  4.822293
Sr    1.833216  1.739338  2.706318
