37
Energy: -110553.137459 eV PBE+vdW (tier 2 basis)
C    -0.551295  1.267280  0.283721
C    -0.258432  0.653271  1.620627
O    0.847732  0.098183  1.832757
H    -0.450914  0.493142  -0.488846
H    0.205159  2.033485  0.068780
H    -1.546208  1.718183  0.208900
N    -1.232730  0.730954  2.551353
C    -1.337390  0.196885  3.922863
C    -0.281959  0.787307  4.873413
O    0.955247  0.669781  4.664817
H    -2.073852  1.202392  2.233494
H    -2.308036  0.584334  4.245985
C    -1.461032  -1.379084  4.038841
C    -0.293593  -2.104415  4.625802
C    -0.031385  -2.264595  5.972389
C    0.845012  -2.644384  3.933202
N    1.220052  -2.806349  6.153613
C    1.803278  -3.029519  4.931187
C    1.165853  -2.848576  2.571200
C    3.092424  -3.471506  4.597416
C    2.445056  -3.296842  2.239132
C    3.408037  -3.576038  3.240758
H    -1.702593  -1.758664  3.037601
H    -2.348468  -1.573996  4.654879
H    -0.651161  -2.023329  6.830278
H    1.616532  -3.066269  7.050606
H    0.435118  -2.649037  1.789305
H    3.817371  -3.747467  5.363088
H    2.703022  -3.463986  1.193921
H    4.395547  -3.930313  2.948439
N    -0.713592  1.410636  5.970733
C    -2.087279  1.699072  6.397439
H    0.036145  1.766250  6.562632
H    -2.581242  2.402327  5.715103
H    -2.039796  2.166247  7.385085
H    -2.682497  0.782677  6.489178
Sr    2.530867  -0.479033  3.320309
