37
Energy: -110553.357331 eV PBE+vdW (tier 2 basis)
C    1.049805  -2.109082  1.888777
C    0.658205  -0.945749  2.753324
O    1.505792  -0.419656  3.515627
H    1.845871  -1.788079  1.203220
H    0.225908  -2.528122  1.301806
H    1.475702  -2.895842  2.524459
N    -0.619032  -0.517166  2.636233
C    -1.376117  0.553228  3.316121
C    -0.715667  1.940782  3.200078
O    0.382030  2.236294  3.738261
H    -1.170696  -1.043343  1.965534
H    -2.302060  0.615855  2.729420
C    -1.853414  0.184000  4.763775
C    -0.809082  -0.320568  5.702843
C    -0.441364  -1.640873  5.867803
C    0.091788  0.448369  6.517043
N    0.667263  -1.728876  6.676504
C    1.042372  -0.470891  7.076840
C    0.207090  1.821383  6.836451
C    2.148552  -0.037454  7.824631
C    1.299745  2.251353  7.590481
C    2.276454  1.334280  8.055113
H    -2.630129  -0.583111  4.640647
H    -2.366944  1.066670  5.173072
H    -0.893333  -2.538432  5.457556
H    1.095880  -2.595830  6.982948
H    -0.538174  2.537693  6.492814
H    2.872459  -0.742574  8.233029
H    1.393841  3.304525  7.853259
H    3.114327  1.700165  8.646925
N    -1.405448  2.851624  2.515115
C    -0.962823  4.234698  2.334026
H    -2.277818  2.575566  2.075900
H    -1.783555  4.807328  1.894409
H    -0.094375  4.277815  1.664787
H    -0.691713  4.673199  3.300752
Sr    2.222017  1.321364  4.890815
