37
Energy: -110551.944513 eV PBE+vdW (tier 2 basis)
C    -0.578592  -0.035183  -0.308257
C    -0.553781  0.115798  1.177896
O    0.457137  0.634763  1.757077
H    -1.517405  -0.456503  -0.682526
H    0.248673  -0.691132  -0.613639
H    -0.409443  0.940908  -0.781252
N    -1.601982  -0.308508  1.888324
C    -1.631932  -0.315232  3.349756
C    -2.150364  -1.609157  4.026432
O    -1.479054  -2.027804  4.965322
H    -2.381385  -0.706980  1.371330
H    -0.581072  -0.326865  3.649700
C    -2.295457  0.957661  3.995087
C    -1.295670  1.692060  4.832447
C    -0.905765  1.374028  6.119656
C    -0.421573  2.744409  4.400848
N    0.175953  2.141396  6.493706
C    0.517835  2.985180  5.468305
C    -0.324155  3.521016  3.221347
C    1.579225  3.893819  5.333962
C    0.727312  4.433329  3.093460
C    1.684207  4.599527  4.128704
H    -3.153344  0.654810  4.608274
H    -2.692504  1.605407  3.202965
H    -1.312009  0.627093  6.795052
H    0.601797  2.127201  7.415481
H    -1.057352  3.412608  2.422338
H    2.286871  4.068871  6.144829
H    0.801911  5.050602  2.198361
H    2.483283  5.329688  4.006313
N    -3.316772  -2.174307  3.632052
C    -4.268266  -1.729351  2.622523
H    -3.552191  -3.012321  4.159866
H    -5.264429  -2.097441  2.889175
H    -4.037381  -2.124963  1.619428
H    -4.341411  -0.634328  2.587920
Sr    1.890964  1.802477  3.074952
