37
Energy: -110552.826251 eV PBE+vdW (tier 2 basis)
C    -0.414420  0.030431  -0.319444
C    -0.854189  0.519810  1.019756
O    -1.137062  1.735050  1.216295
H    0.498117  0.565408  -0.615446
H    -1.184644  0.281993  -1.060924
H    -0.224770  -1.047532  -0.347257
N    -0.952547  -0.374799  2.037464
C    -1.439676  0.093560  3.325813
C    -0.325762  0.738099  4.180088
O    -0.278983  2.000139  4.242128
H    -0.736085  -1.351992  1.862879
H    -2.046233  0.947080  3.022786
C    -2.460102  -0.735600  4.139843
C    -3.076629  0.291963  5.055617
C    -2.896903  0.439069  6.415686
C    -3.679756  1.519059  4.600438
N    -3.325567  1.683129  6.819352
C    -3.776851  2.389025  5.732638
C    -4.141292  1.983686  3.346496
C    -4.207934  3.715326  5.617298
C    -4.588665  3.306827  3.232813
C    -4.589611  4.171940  4.353167
H    -2.009358  -1.562960  4.703429
H    -3.195402  -1.173717  3.448782
H    -2.480539  -0.257659  7.136436
H    -3.333529  2.009898  7.779651
H    -4.211113  1.311678  2.488483
H    -4.266444  4.371396  6.485618
H    -5.005823  3.656926  2.287262
H    -4.957782  5.191026  4.242617
N    0.547558  -0.047324  4.796407
C    1.675388  0.418658  5.604040
H    0.434635  -1.052388  4.694168
H    2.620963  0.124812  5.132343
H    1.621716  -0.025459  6.604748
H    1.628099  1.507127  5.681708
Sr    -1.642806  3.397314  2.885826
