37
Energy: -110552.258717 eV PBE+vdW (tier 2 basis)
C    -1.312312  2.780846  1.242844
C    -1.527649  1.682951  2.232215
O    -1.562353  1.938188  3.483156
H    -1.243014  2.417348  0.212630
H    -0.399172  3.334388  1.496295
H    -2.148488  3.490442  1.319523
N    -1.692003  0.445470  1.772037
C    -2.086814  -0.739771  2.537759
C    -0.877671  -1.301296  3.319600
O    -0.540772  -0.735415  4.410800
H    -1.712204  0.296567  0.752496
H    -2.781153  -0.406012  3.323806
C    -2.848612  -1.743584  1.596056
C    -2.851005  -1.408864  0.137613
C    -3.994833  -1.177406  -0.608438
C    -1.737257  -1.328365  -0.783271
N    -3.659605  -0.967985  -1.916311
C    -2.290639  -1.047272  -2.068134
C    -0.336309  -1.457334  -0.676415
C    -1.505056  -0.905386  -3.214047
C    0.447721  -1.316903  -1.814938
C    -0.130363  -1.045547  -3.070251
H    -3.887387  -1.780240  1.945551
H    -2.467425  -2.762696  1.767333
H    -5.033486  -1.175668  -0.293321
H    -4.321949  -0.809289  -2.666766
H    0.152080  -1.661613  0.277634
H    -1.951815  -0.699779  -4.186155
H    1.528944  -1.424766  -1.741596
H    0.512043  -0.947676  -3.943666
N    -0.225765  -2.346154  2.847952
C    0.938359  -2.982465  3.461331
H    -0.566379  -2.748225  1.976391
H    1.110679  -2.548454  4.448211
H    1.822164  -2.828447  2.829414
H    0.753119  -4.058285  3.558473
Sr    -0.876622  1.242694  5.510187
