37
Energy: -110552.576382 eV PBE+vdW (tier 2 basis)
C    0.228134  -1.123508  0.649177
C    -0.775151  -0.481601  1.548689
O    -1.088433  0.734456  1.415994
H    -0.092775  -0.992041  -0.392683
H    1.189166  -0.601677  0.753635
H    0.375174  -2.189407  0.851616
N    -1.347853  -1.234950  2.517150
C    -2.371972  -0.671731  3.385026
C    -1.772025  0.048386  4.609173
O    -1.646639  1.307148  4.497585
H    -1.078607  -2.211623  2.596114
H    -2.708690  0.183645  2.801165
C    -3.693571  -1.488412  3.504178
C    -4.591049  -0.964299  2.415868
C    -5.004713  -1.584776  1.255719
C    -4.925566  0.427017  2.265703
N    -5.555965  -0.659139  0.397761
C    -5.495572  0.589785  0.965209
C    -4.798640  1.562087  3.098036
C    -5.844770  1.844119  0.457063
C    -5.150365  2.821452  2.587957
C    -5.639329  2.959345  1.269095
H    -4.130769  -1.325911  4.500829
H    -3.525154  -2.568836  3.407292
H    -4.941332  -2.629639  0.968720
H    -5.961672  -0.877113  -0.505777
H    -4.532086  1.455580  4.153084
H    -6.275312  1.954418  -0.537916
H    -5.150759  3.692892  3.247669
H    -5.923164  3.945003  0.903511
N    -1.398444  -0.584784  5.710909
C    -1.443279  -2.015261  6.001540
H    -1.015009  0.019822  6.439028
H    -2.090164  -2.202938  6.867179
H    -1.835571  -2.570574  5.146202
H    -0.433686  -2.378951  6.228026
Sr    -2.133385  2.561015  2.501476
