37
Energy: -110553.075132 eV PBE+vdW (tier 2 basis)
C    -0.109570  0.791291  0.514196
C    0.013520  0.489922  1.976389
O    1.142422  0.357370  2.506211
H    0.428714  1.723962  0.298638
H    -1.142505  0.885139  0.163728
H    0.393435  -0.003702  -0.052548
N    -1.133066  0.362701  2.679073
C    -1.343930  0.093618  4.116775
C    -0.590044  1.099598  5.010774
O    0.621057  0.935546  5.318444
H    -1.985951  0.487278  2.142062
H    -2.412903  0.295564  4.250961
C    -1.192230  -1.393074  4.563310
C    0.156885  -2.040707  4.693301
C    0.838554  -2.226278  5.884508
C    0.953029  -2.678924  3.662979
N    2.047282  -2.865027  5.645755
C    2.124775  -3.198240  4.291915
C    0.790275  -2.872338  2.274479
C    3.127396  -3.879073  3.587399
C    1.774731  -3.553951  1.577145
C    2.930774  -4.046705  2.222858
H    -1.806133  -1.982861  3.866602
H    -1.702129  -1.462538  5.535093
H    0.554166  -1.948278  6.894831
H    2.608610  -3.300014  6.373101
H    -0.104168  -2.516817  1.764192
H    4.003533  -4.289248  4.088803
H    1.654011  -3.730241  0.509334
H    3.675746  -4.586853  1.640585
N    -1.262835  2.150116  5.479728
C    -2.656630  2.537819  5.241679
H    -0.708590  2.762364  6.077502
H    -3.357464  1.812957  5.675095
H    -2.859094  2.667552  4.171646
H    -2.824707  3.500499  5.732370
Sr    2.380034  -0.307425  4.358090
