37
Energy: -110551.964045 eV PBE+vdW (tier 2 basis)
C    0.122871  -1.447045  0.385339
C    0.053972  -1.018519  1.813301
O    1.098094  -1.010669  2.539293
H    0.808774  -0.775350  -0.150232
H    -0.849184  -1.437977  -0.118058
H    0.552900  -2.455531  0.325598
N    -1.124260  -0.632468  2.318851
C    -1.321108  -0.048554  3.657137
C    -1.176131  -1.119188  4.766344
O    -0.033501  -1.199631  5.342836
H    -1.925773  -0.627149  1.691667
H    -0.459537  0.610688  3.838488
C    -2.588266  0.821603  3.694337
C    -2.944312  1.263866  5.081799
C    -2.113444  1.839389  6.029695
C    -4.256630  1.194769  5.668572
N    -2.834979  2.105519  7.166296
C    -4.150739  1.727909  6.982812
C    -5.516631  0.762760  5.210086
C    -5.245214  1.817643  7.848053
C    -6.605138  0.850408  6.066302
C    -6.469443  1.367617  7.372058
H    -3.437333  0.270872  3.265500
H    -2.413377  1.674658  3.017931
H    -1.066850  2.121009  5.972200
H    -2.472827  2.568151  7.990835
H    -5.655177  0.394442  4.191850
H    -5.147472  2.232786  8.850527
H    -7.587837  0.530614  5.722994
H    -7.346609  1.427123  8.014307
N    -2.116948  -1.987404  5.090616
C    -3.484590  -2.146298  4.590623
H    -1.850714  -2.603230  5.859223
H    -4.171604  -1.475033  5.120755
H    -3.785085  -3.183721  4.766350
H    -3.532390  -1.957087  3.514675
Sr    2.105361  -1.197841  4.571038
