37
Energy: -110552.278652 eV PBE+vdW (tier 2 basis)
C    0.328976  0.634773  0.290999
C    0.159463  0.338599  1.751703
O    1.111510  0.306098  2.545513
H    -0.585740  0.499968  -0.296734
H    1.125431  0.000319  -0.114960
H    0.664813  1.675993  0.187520
N    -1.117321  0.098470  2.198102
C    -1.451317  0.073322  3.620627
C    -1.069645  -1.280792  4.279951
O    -1.909687  -2.025970  4.898627
H    -1.878978  0.109781  1.527442
H    -0.792534  0.813708  4.107428
C    -2.916759  0.514468  3.799852
C    -3.387092  0.559693  5.222142
C    -2.869341  1.288810  6.273642
C    -4.429841  -0.252368  5.780275
N    -3.490468  0.931913  7.453921
C    -4.439410  -0.024562  7.201083
C    -5.347994  -1.180719  5.231885
C    -5.253631  -0.772152  8.067467
C    -6.167356  -1.914632  6.095295
C    -6.101270  -1.730227  7.500569
H    -3.571441  -0.157429  3.225868
H    -3.009345  1.505638  3.332525
H    -2.088179  2.042782  6.278902
H    -3.320980  1.373287  8.352314
H    -5.422821  -1.320686  4.152833
H    -5.248317  -0.601645  9.144380
H    -6.892757  -2.617181  5.685323
H    -6.760073  -2.308497  8.147093
N    0.201923  -1.596747  4.182788
C    0.798510  -2.822557  4.695779
H    0.784834  -0.895725  3.651560
H    0.841137  -2.809559  5.793808
H    1.819677  -2.895745  4.312400
H    0.230000  -3.700404  4.365030
Sr    -3.390775  -2.751864  6.436064
