37
Energy: -110552.257693 eV PBE+vdW (tier 2 basis)
C    -1.836425  1.586732  0.798875
C    -1.238088  1.014238  2.039717
O    -0.208506  1.545771  2.558917
H    -1.180719  1.307581  -0.041383
H    -2.844273  1.213101  0.590147
H    -1.851977  2.680580  0.861619
N    -1.805265  -0.078223  2.565719
C    -1.303157  -0.977570  3.625079
C    -1.227670  -0.312005  5.007084
O    -0.275417  0.471577  5.311986
H    -2.590692  -0.449092  2.038671
H    -2.067379  -1.763450  3.681009
C    0.025604  -1.701676  3.257391
C    -0.043926  -2.411221  1.946875
C    -0.523126  -3.694554  1.740941
C    0.345239  -1.901351  0.657211
N    -0.467684  -3.993105  0.406628
C    0.061786  -2.925895  -0.290857
C    0.945662  -0.713849  0.198101
C    0.327689  -2.784909  -1.655347
C    1.216084  -0.569775  -1.157449
C    0.901538  -1.591659  -2.075788
H    0.241742  -2.400352  4.079826
H    0.862779  -0.981674  3.243275
H    -0.881825  -4.427709  2.456707
H    -0.729168  -4.883930  0.000681
H    1.219098  0.085719  0.889180
H    0.105565  -3.582668  -2.363214
H    1.692375  0.339777  -1.521860
H    1.127120  -1.448958  -3.131191
N    -2.152519  -0.651686  5.893787
C    -2.208248  -0.184663  7.279275
H    -2.894391  -1.274932  5.585900
H    -2.522408  -1.014033  7.921263
H    -2.930098  0.636653  7.375754
H    -1.217639  0.160606  7.584886
Sr    1.257322  1.788605  4.246585
