37
Energy: -110552.130643 eV PBE+vdW (tier 2 basis)
C    0.838829  -1.035540  2.079739
C    0.152532  0.243779  2.420619
O    -0.116888  1.104010  1.515760
H    0.932525  -1.706315  2.939441
H    0.266977  -1.541974  1.290339
H    1.835173  -0.822771  1.668651
N    -0.185120  0.467160  3.690250
C    -1.053292  1.553620  4.138564
C    -0.307274  2.900101  4.088841
O    -0.546085  3.668415  3.093831
H    -0.070186  -0.290429  4.379114
H    -1.834374  1.678516  3.374396
C    -1.777095  1.177769  5.493212
C    -1.314856  -0.084184  6.149168
C    -0.710464  -0.207756  7.391248
C    -1.511867  -1.431614  5.657480
N    -0.512726  -1.530259  7.678644
C    -0.983048  -2.312604  6.642728
C    -2.109284  -1.982633  4.505507
C    -1.005847  -3.702383  6.497635
C    -2.138211  -3.363395  4.361657
C    -1.585367  -4.212492  5.342840
H    -2.843782  1.090120  5.244387
H    -1.704845  2.022202  6.189207
H    -0.449425  0.556508  8.116225
H    -0.117799  -1.882698  8.542890
H    -2.573362  -1.344585  3.750729
H    -0.599796  -4.361917  7.263685
H    -2.613035  -3.805383  3.486729
H    -1.629572  -5.290883  5.199692
N    0.570918  3.281904  5.001899
C    1.061709  2.577243  6.184668
H    0.956507  4.212831  4.839349
H    2.139796  2.753007  6.268630
H    0.572050  2.960046  7.089426
H    0.883367  1.501945  6.102435
Sr    -0.628792  3.206395  0.852167
