37
Energy: -110552.099027 eV PBE+vdW (tier 2 basis)
C    -0.563300  0.177107  -0.225683
C    -0.494839  -0.188770  1.227335
O    0.506021  -0.701913  1.747675
H    0.155284  0.987768  -0.410472
H    -1.555871  0.504586  -0.553978
H    -0.239542  -0.679837  -0.827868
N    -1.609026  0.066855  1.990115
C    -1.584981  0.011683  3.450529
C    -1.663540  -1.435551  3.995144
O    -2.505563  -1.775626  4.899403
H    -2.432918  0.449958  1.537939
H    -0.584956  0.371188  3.748938
C    -2.661540  0.985687  3.969543
C    -2.917330  1.099591  5.447708
C    -4.172034  1.336421  5.986356
C    -1.992244  1.076837  6.567839
N    -4.093403  1.418004  7.375104
C    -2.757063  1.304885  7.756750
C    -0.604943  0.828949  6.701198
C    -2.191734  1.297143  9.040689
C    -0.045915  0.821065  7.970566
C    -0.826359  1.054149  9.125481
H    -3.618616  0.750324  3.479844
H    -2.366849  1.980883  3.600139
H    -5.122402  1.485660  5.481369
H    -4.822762  1.821389  7.958151
H    0.026719  0.671777  5.829055
H    -2.788232  1.499558  9.930066
H    1.023513  0.648610  8.083095
H    -0.344443  1.057367  10.102178
N    -0.778061  -2.272496  3.507029
C    -0.666463  -3.681793  3.863370
H    -0.101336  -1.840306  2.826934
H    -0.229907  -4.220522  3.017130
H    -1.653825  -4.097403  4.087390
H    -0.008905  -3.811727  4.734056
Sr    -3.421635  -1.274500  6.882884
