37
Energy: -110552.226511 eV PBE+vdW (tier 2 basis)
C    -0.156424  1.656821  0.888447
C    -0.386656  1.070995  2.242836
O    0.276968  1.485977  3.246878
H    -0.412278  2.725630  0.924033
H    -0.749459  1.176908  0.103337
H    0.908935  1.592544  0.632821
N    -1.310314  0.115990  2.378081
C    -1.821171  -0.434367  3.646240
C    -0.856132  -1.467491  4.272144
O    0.174281  -1.042943  4.897447
H    -1.827630  -0.172410  1.546265
H    -1.832076  0.396031  4.370237
C    -3.268056  -0.903404  3.452453
C    -3.542282  -1.959215  2.412727
C    -2.721379  -2.534380  1.444399
C    -4.856555  -2.513522  2.210711
N    -3.460466  -3.403734  0.678774
C    -4.769340  -3.417027  1.118465
C    -6.095961  -2.323554  2.849422
C    -5.871756  -4.139464  0.652331
C    -7.192082  -3.036948  2.387846
C    -7.080065  -3.933979  1.304054
H    -3.867546  -0.005173  3.226035
H    -3.635631  -1.241423  4.435155
H    -1.662152  -2.414558  1.234173
H    -3.095126  -3.959522  -0.084728
H    -6.204044  -1.632535  3.685716
H    -5.790822  -4.829894  -0.186250
H    -8.161032  -2.904836  2.866646
H    -7.963688  -4.475724  0.970269
N    -1.154989  -2.745132  4.181188
C    -0.393075  -3.845657  4.763974
H    -1.983569  -2.973957  3.608636
H    0.361350  -3.450873  5.448003
H    0.095754  -4.424505  3.969825
H    -1.078404  -4.504445  5.309240
Sr    1.385870  0.871779  5.124171
