37
Energy: -110551.665906 eV PBE+vdW (tier 2 basis)
C    -1.988133  -0.131399  -0.747897
C    -0.978327  0.062489  0.332671
O    0.272020  0.069796  0.071614
H    -1.639964  -0.967256  -1.370811
H    -2.987734  -0.364350  -0.365720
H    -2.034498  0.746197  -1.409592
N    -1.370868  0.222138  1.613879
C    -2.450755  1.112839  2.012168
C    -1.891241  2.555273  2.009264
O    -0.725457  2.806183  1.547108
H    -0.631139  0.099416  2.306936
H    -3.231202  1.057199  1.238176
C    -3.085515  0.646743  3.354083
C    -3.513916  -0.773371  3.239995
C    -3.028188  -1.848210  3.964403
C    -4.457332  -1.301071  2.290607
N    -3.613382  -3.001245  3.514711
C    -4.490754  -2.709985  2.486169
C    -5.289218  -0.732633  1.306716
C    -5.303689  -3.552742  1.725916
C    -6.094076  -1.569796  0.541269
C    -6.096801  -2.963292  0.746768
H    -3.944974  1.301917  3.576816
H    -2.366457  0.783080  4.176175
H    -2.322372  -1.868658  4.788785
H    -3.467674  -3.920393  3.914797
H    -5.357240  0.349508  1.171430
H    -5.326226  -4.628703  1.895356
H    -6.754913  -1.143650  -0.212301
H    -6.747750  -3.589853  0.139242
N    -2.650169  3.519529  2.499373
C    -2.269923  4.933658  2.558069
H    -3.557883  3.259096  2.876549
H    -3.110838  5.499184  2.967196
H    -2.040708  5.308929  1.554025
H    -1.396821  5.070220  3.207282
Sr    1.221421  2.123928  0.512917
