37
Energy: -110551.672282 eV PBE+vdW (tier 2 basis)
C    -0.117067  0.012160  0.973943
C    -1.010934  0.571949  2.032147
O    -0.619881  1.548599  2.749318
H    -0.661909  -0.182142  0.043887
H    0.324543  -0.941021  1.305029
H    0.696627  0.718984  0.786741
N    -2.242096  0.058653  2.262550
C    -2.560667  -1.373041  2.363831
C    -1.716026  -1.970908  3.515237
O    -0.994707  -1.216088  4.262352
H    -2.798620  0.648680  2.880599
H    -3.607377  -1.404960  2.704711
C    -2.528957  -2.182766  1.031167
C    -3.275812  -3.475111  1.136680
C    -2.762689  -4.747614  0.915024
C    -4.677155  -3.639153  1.435359
N    -3.759030  -5.673504  1.074515
C    -4.944639  -5.035748  1.394005
C    -5.737622  -2.751279  1.700065
C    -6.215518  -5.564315  1.632267
C    -7.002060  -3.273415  1.939038
C    -7.235760  -4.663145  1.910850
H    -1.496577  -2.373025  0.712411
H    -2.990871  -1.531076  0.273027
H    -1.764812  -5.050309  0.612091
H    -3.656015  -6.669324  0.918314
H    -5.596725  -1.669074  1.672365
H    -6.405491  -6.636088  1.588805
H    -7.836146  -2.600411  2.131681
H    -8.241793  -5.036965  2.094141
N    -1.800779  -3.267832  3.709825
C    -1.116106  -4.002740  4.771779
H    -2.354452  -3.787982  3.005435
H    -1.389153  -5.057661  4.687731
H    -1.428513  -3.631846  5.755211
H    -0.027525  -3.905333  4.677515
Sr    -0.132184  0.807930  4.888387
