37
Energy: -110552.194137 eV PBE+vdW (tier 2 basis)
C    -0.070006  1.295536  0.343376
C    -0.433597  0.555712  1.589199
O    0.231560  0.749289  2.667002
H    -0.086074  2.376486  0.535523
H    0.961025  1.033962  0.066815
H    -0.732278  1.065382  -0.496859
N    -1.445616  -0.292806  1.556260
C    -1.847796  -1.254085  2.574404
C    -2.505943  -2.390308  1.715364
O    -2.897244  -2.098040  0.584183
H    -1.938771  -0.517112  0.669378
H    -0.956330  -1.620484  3.105562
C    -2.897780  -0.713671  3.584566
C    -2.445634  0.280446  4.617706
C    -2.080071  -0.014078  5.919770
C    -2.450035  1.728100  4.518987
N    -1.821121  1.159461  6.627611
C    -2.096697  2.250898  5.802297
C    -2.651017  2.629285  3.449613
C    -1.918231  3.623665  6.038273
C    -2.476485  3.986965  3.681226
C    -2.114019  4.478238  4.956575
H    -3.318286  -1.582608  4.109208
H    -3.729792  -0.282697  3.009212
H    -2.033180  -0.974232  6.425357
H    -1.793897  1.203567  7.643562
H    -2.942035  2.265227  2.464976
H    -1.667808  4.009633  7.026520
H    -2.636015  4.696196  2.870252
H    -2.004017  5.552130  5.101470
N    -2.626712  -3.594517  2.294578
C    -3.254070  -4.740303  1.633868
H    -2.203654  -3.747613  3.203675
H    -4.026540  -5.169628  2.282030
H    -2.504921  -5.507569  1.403186
H    -3.710588  -4.392600  0.703540
Sr    0.294677  1.476174  4.772734
