37
Energy: -110551.669486 eV PBE+vdW (tier 2 basis)
C    -1.119293  -0.281167  -0.575535
C    -0.434054  -0.700888  0.683945
O    0.100054  -1.853857  0.767383
H    -0.835716  0.735204  -0.870070
H    -2.212870  -0.293261  -0.445447
H    -0.859755  -0.983848  -1.372586
N    -0.366822  0.115612  1.761575
C    -1.483660  0.904542  2.307576
C    -2.618538  -0.091298  2.697246
O    -2.420227  -1.357185  2.614733
H    0.274720  -0.235467  2.471970
H    -1.099730  1.312710  3.254050
C    -1.919263  2.134729  1.456999
C    -2.761278  3.121359  2.211625
C    -2.312057  4.064081  3.122643
C    -4.191825  3.301511  2.104936
N    -3.373277  4.792351  3.588622
C    -4.540508  4.358791  2.994778
C    -5.211271  2.694330  1.341194
C    -5.855669  4.806395  3.150323
C    -6.517640  3.138460  1.495272
C    -6.836198  4.179505  2.392690
H    -2.461191  1.809509  0.560428
H    -0.987619  2.605946  1.112323
H    -1.302332  4.288929  3.451709
H    -3.302621  5.565213  4.240431
H    -4.983408  1.907793  0.619135
H    -6.102674  5.621451  3.829582
H    -7.312596  2.691950  0.899412
H    -7.870609  4.507105  2.482091
N    -3.746185  0.418506  3.131220
C    -4.934465  -0.321315  3.543791
H    -3.825633  1.449072  3.099740
H    -5.812112  0.192831  3.136043
H    -5.008822  -0.335588  4.638891
H    -4.893418  -1.346014  3.166511
Sr    -1.186279  -3.217495  2.124745
