37
Energy: -110552.167907 eV PBE+vdW (tier 2 basis)
C    -1.919743  1.381336  0.779451
C    -1.381577  0.832155  2.057473
O    -0.408191  1.398615  2.641460
H    -2.889155  0.957280  0.498118
H    -1.192554  1.146373  -0.013823
H    -1.998242  2.472409  0.847579
N    -1.940061  -0.280720  2.551941
C    -1.464667  -1.131183  3.660875
C    -1.476077  -0.399417  5.011792
O    -0.477198  0.296293  5.381206
H    -2.664300  -0.697556  1.974127
H    -2.207405  -1.935221  3.713166
C    -0.102297  -1.828885  3.385094
C    -0.065963  -2.545516  2.077681
C    -0.488424  -3.843673  1.843332
C    0.402487  -2.027403  0.818374
N    -0.324242  -4.143759  0.518321
C    0.223554  -3.062964  -0.143080
C    0.998246  -0.822999  0.399282
C    0.588913  -2.917625  -1.483856
C    1.368734  -0.674327  -0.931907
C    1.157307  -1.708703  -1.865541
H    0.077558  -2.515663  4.225822
H    0.724859  -1.095954  3.417869
H    -0.876499  -4.585697  2.534121
H    -0.529466  -5.042751  0.098132
H    1.185196  -0.008549  1.102810
H    0.445740  -3.723641  -2.202646
H    1.841200  0.249292  -1.264440
H    1.458237  -1.562152  -2.901426
N    -2.513140  -0.545822  5.824551
C    -3.757069  -1.289903  5.597135
H    -2.413012  -0.078946  6.726191
H    -4.214416  -1.012772  4.640941
H    -4.456769  -1.025138  6.394745
H    -3.586053  -2.373242  5.637039
Sr    1.102490  1.556425  4.311091
