37
Energy: -110552.463989 eV PBE+vdW (tier 2 basis)
C    0.452579  0.701601  0.381321
C    0.128444  0.339918  1.793473
O    0.996893  0.494241  2.714342
H    0.665894  1.779064  0.335422
H    -0.356807  0.468878  -0.317929
H    1.366734  0.181810  0.067119
N    -1.087147  -0.132872  2.071543
C    -1.617336  -0.424611  3.406106
C    -1.037245  -1.762887  3.907011
O    0.063600  -1.734600  4.558182
H    -1.752543  -0.305372  1.307923
H    -1.215089  0.332535  4.095385
C    -3.166612  -0.265237  3.384305
C    -3.879335  -0.999001  2.290599
C    -4.061783  -0.553455  0.987105
C    -4.514414  -2.293007  2.370415
N    -4.733653  -1.506335  0.264608
C    -5.028369  -2.583414  1.073386
C    -4.760320  -3.210329  3.416649
C    -5.723567  -3.761854  0.786709
C    -5.453450  -4.379540  3.132460
C    -5.919124  -4.656618  1.830245
H    -3.354979  0.814904  3.302447
H    -3.548851  -0.563734  4.370349
H    -3.840668  0.415259  0.546572
H    -5.046362  -1.395248  -0.692882
H    -4.459695  -2.992199  4.443232
H    -6.113091  -3.964689  -0.210204
H    -5.669043  -5.085229  3.933534
H    -6.464598  -5.580633  1.645749
N    -1.656099  -2.888771  3.633201
C    -1.212161  -4.216142  4.053014
H    -2.544656  -2.839902  3.114437
H    -0.499357  -4.632449  3.328970
H    -2.091340  -4.865990  4.098410
H    -0.739082  -4.161557  5.038120
Sr    1.907289  -0.394846  4.592268
