37
Energy: -110552.458329 eV PBE+vdW (tier 2 basis)
C    -0.087238  2.758376  2.034794
C    -0.196666  1.483177  2.809729
O    0.862258  0.932812  3.281379
H    0.539837  2.585472  1.149279
H    -1.059176  3.142497  1.710095
H    0.414760  3.520482  2.645104
N    -1.393212  0.951304  2.975444
C    -1.755534  -0.332385  3.559771
C    -3.061011  -0.706327  2.782870
O    -3.669106  0.203297  2.215012
H    -2.223689  1.343186  2.489664
H    -0.950544  -1.058508  3.374666
C    -2.076781  -0.231008  5.079703
C    -0.967179  0.320448  5.915688
C    -0.922382  1.573805  6.488799
C    0.270931  -0.316587  6.263236
N    0.278499  1.765669  7.140404
C    1.039106  0.630652  7.032612
C    0.822770  -1.595604  6.022393
C    2.324229  0.333451  7.514840
C    2.100265  -1.895905  6.510780
C    2.847582  -0.937353  7.241578
H    -2.357808  -1.234287  5.432889
H    -2.971347  0.395772  5.197150
H    -1.675277  2.356122  6.488558
H    0.502416  2.574012  7.712292
H    0.252135  -2.355563  5.488041
H    2.886978  1.049290  8.115049
H    2.515646  -2.892320  6.361089
H    3.826851  -1.207547  7.635252
N    -3.449082  -1.990100  2.830756
C    -4.679014  -2.479085  2.206598
H    -2.853023  -2.667008  3.294391
H    -5.317257  -2.961714  2.956029
H    -4.444164  -3.197596  1.412137
H    -5.207250  -1.624703  1.775506
Sr    2.550477  0.144780  4.518426
