37
Energy: -110551.959496 eV PBE+vdW (tier 2 basis)
C    -0.121527  1.616500  0.456710
C    -0.215539  0.963312  1.794603
O    0.688464  1.140673  2.671981
H    -0.105365  2.706891  0.594758
H    -0.947392  1.354181  -0.212365
H    0.829944  1.341263  -0.017367
N    -1.274726  0.189001  2.071110
C    -1.537256  -0.364154  3.408496
C    -0.554331  -1.513229  3.707132
O    0.412366  -1.271042  4.505289
H    -2.005140  0.111391  1.366920
H    -1.262913  0.417908  4.130800
C    -3.045939  -0.635697  3.657178
C    -3.379151  -0.652221  5.114722
C    -3.955588  0.400686  5.803844
C    -3.168865  -1.710101  6.069981
N    -4.098675  0.061481  7.123283
C    -3.633202  -1.222970  7.326274
C    -2.681866  -3.029515  6.004848
C    -3.601082  -1.991782  8.492421
C    -2.649547  -3.798436  7.160628
C    -3.097648  -3.282737  8.393284
H    -3.371197  -1.559006  3.159700
H    -3.591612  0.189085  3.173362
H    -4.305668  1.360675  5.436937
H    -4.559708  0.631466  7.822184
H    -2.367769  -3.470754  5.059379
H    -3.970924  -1.602335  9.440387
H    -2.291385  -4.826106  7.115944
H    -3.066655  -3.914635  9.279368
N    -0.639586  -2.706273  3.138160
C    -1.604450  -3.234027  2.171787
H    0.068072  -3.363953  3.466696
H    -1.091482  -3.977576  1.553202
H    -1.978722  -2.445773  1.514337
H    -2.446411  -3.721264  2.680407
Sr    1.801517  0.536135  4.575274
