37
Energy: -110551.80088 eV PBE+vdW (tier 2 basis)
C    -1.180507  0.645600  -0.604946
C    -0.649919  0.348882  0.760088
O    0.216725  1.110248  1.298129
H    -0.363767  1.067660  -1.202946
H    -1.585693  -0.237847  -1.107973
H    -1.970079  1.411466  -0.554584
N    -1.093976  -0.726889  1.445612
C    -2.508449  -1.083644  1.512320
C    -3.210245  -0.047543  2.429581
O    -2.580813  0.994139  2.839238
H    -0.556119  -0.935254  2.288522
H    -2.943593  -0.967495  0.508597
C    -2.695763  -2.565622  1.943973
C    -4.100773  -3.057878  1.803886
C    -4.893450  -3.600509  2.807447
C    -4.869899  -3.130183  0.584608
N    -6.097268  -3.982741  2.280632
C    -6.124101  -3.709840  0.924294
C    -4.620116  -2.792758  -0.759242
C    -7.128769  -3.933561  -0.020072
C    -5.616771  -3.012877  -1.701036
C    -6.857787  -3.571047  -1.333821
H    -2.343476  -2.695998  2.978798
H    -2.017878  -3.148026  1.299958
H    -4.664483  -3.770547  3.854955
H    -6.835507  -4.446198  2.797353
H    -3.648637  -2.411250  -1.079771
H    -8.080925  -4.385288  0.255696
H    -5.434517  -2.770918  -2.747005
H    -7.613685  -3.737247  -2.099574
N    -4.464956  -0.285879  2.738987
C    -5.317284  0.562070  3.567946
H    -4.818877  -1.213187  2.442466
H    -6.353404  0.442605  3.236747
H    -5.021075  1.609026  3.459474
H    -5.245128  0.271428  4.624396
Sr    -0.721719  2.311674  3.039315
