37
Energy: -110551.793472 eV PBE+vdW (tier 2 basis)
C    -3.113799  -1.879581  -0.465836
C    -2.073597  -1.341666  0.462157
O    -0.839211  -1.401909  0.158515
H    -3.380599  -1.124657  -1.222265
H    -4.028157  -2.185364  0.052631
H    -2.688399  -2.736224  -1.001238
N    -2.433660  -0.767061  1.630063
C    -3.550723  0.168756  1.744611
C    -3.151210  1.470415  0.987453
O    -2.019248  1.548086  0.387218
H    -1.652367  -0.575453  2.259239
H    -4.423272  -0.259185  1.231963
C    -3.921046  0.377830  3.242055
C    -5.113195  1.248782  3.494003
C    -6.442004  0.849589  3.480304
C    -5.107278  2.642600  3.877485
N    -7.241159  1.910066  3.809328
C    -6.466313  3.025853  4.059359
C    -4.096882  3.599943  4.094027
C    -6.837973  4.321257  4.431825
C    -4.463260  4.886454  4.467038
C    -5.818641  5.243514  4.629530
H    -3.044064  0.787508  3.768585
H    -4.086421  -0.629913  3.649188
H    -6.872975  -0.128232  3.289379
H    -8.249994  1.868413  3.897687
H    -3.041663  3.337135  3.997853
H    -7.882617  4.595902  4.573227
H    -3.693611  5.633377  4.657408
H    -6.069147  6.259751  4.929278
N    -4.024262  2.450489  0.994907
C    -3.846234  3.786378  0.436015
H    -4.832742  2.309650  1.618973
H    -4.688168  4.018248  -0.226572
H    -2.911304  3.835566  -0.125989
H    -3.830330  4.513261  1.259061
Sr    -0.021904  0.705969  -0.340502
