37
Energy: -110552.167436 eV PBE+vdW (tier 2 basis)
C    -0.174073  -0.657468  0.175935
C    -0.223682  -0.348431  1.634424
O    0.848773  -0.154832  2.300698
H    -1.169466  -0.791454  -0.260426
H    0.422520  -1.565132  0.012980
H    0.341460  0.161889  -0.343818
N    -1.414096  -0.269403  2.228478
C    -1.605894  0.203714  3.604187
C    -1.027480  -0.791120  4.626693
O    0.066747  -0.476402  5.210588
H    -2.250790  -0.279575  1.625856
H    -0.984133  1.105003  3.723331
C    -3.079906  0.646658  3.849284
C    -3.600128  1.464708  2.712735
C    -3.621059  2.842991  2.607333
C    -4.121859  0.947069  1.471969
N    -4.111562  3.201037  1.378091
C    -4.422700  2.070708  0.649965
C    -4.374784  -0.347543  0.969040
C    -4.940771  1.936557  -0.640192
C    -4.882309  -0.482285  -0.319579
C    -5.156076  0.647449  -1.115098
H    -3.091212  1.214192  4.789365
H    -3.725632  -0.225646  4.007495
H    -3.347163  3.599457  3.335784
H    -4.282070  4.153406  1.077348
H    -4.246522  -1.237096  1.591568
H    -5.175986  2.806878  -1.251945
H    -5.101772  -1.474175  -0.712105
H    -5.563628  0.508284  -2.114978
N    -1.608616  -1.943199  4.927947
C    -2.797274  -2.588013  4.363420
H    -1.131939  -2.459270  5.668244
H    -3.687768  -2.366862  4.964710
H    -2.630269  -3.670330  4.372193
H    -2.956778  -2.275104  3.328985
Sr    2.041868  0.102995  4.205381
