37
Energy: -110552.358794 eV PBE+vdW (tier 2 basis)
C    0.546157  0.658121  0.600210
C    -0.173812  0.171326  1.819614
O    0.253260  0.499936  2.983255
H    1.572667  0.266161  0.616027
H    0.064894  0.346616  -0.331966
H    0.616390  1.753885  0.619280
N    -1.239632  -0.587685  1.651807
C    -2.015444  -1.355066  2.620591
C    -2.554665  -2.532891  1.736685
O    -2.571182  -2.376197  0.513819
H    -1.521680  -0.901304  0.699084
H    -1.353899  -1.726959  3.415951
C    -3.216771  -0.574036  3.237364
C    -2.908993  0.252667  4.449190
C    -3.074752  -0.149966  5.760281
C    -2.431044  1.606105  4.515483
N    -2.690520  0.849158  6.629521
C    -2.292719  1.946897  5.909287
C    -2.110453  2.585256  3.546908
C    -1.793363  3.190665  6.331083
C    -1.614910  3.823055  3.965465
C    -1.444266  4.118981  5.343345
H    -3.983470  -1.311522  3.511006
H    -3.668572  0.041423  2.446830
H    -3.463686  -1.086361  6.148841
H    -2.806117  0.814432  7.637595
H    -2.251903  2.379608  2.486061
H    -1.707406  3.442122  7.388687
H    -1.385090  4.590509  3.226693
H    -1.080979  5.102589  5.638909
N    -2.993757  -3.621901  2.385741
C    -3.565262  -4.784615  1.705153
H    -2.870131  -3.675680  3.391056
H    -3.660397  -4.547420  0.642392
H    -4.554681  -5.013803  2.117554
H    -2.911129  -5.657014  1.823177
Sr    0.401318  1.883908  4.737022
