37
Energy: -110552.114962 eV PBE+vdW (tier 2 basis)
C    0.767055  -2.914350  -0.637718
C    0.379511  -2.604779  0.771325
O    0.340761  -3.528176  1.645725
H    1.100385  -2.032792  -1.196040
H    -0.126670  -3.315652  -1.141667
H    1.541234  -3.687881  -0.664216
N    0.095053  -1.328086  1.073286
C    -0.765994  -0.819832  2.151227
C    -0.107427  -0.739504  3.520159
O    0.489971  -1.740325  4.037699
H    0.127245  -0.700852  0.272484
H    -0.993254  0.201170  1.829397
C    -2.144809  -1.576627  2.245084
C    -2.682770  -1.892269  0.893664
C    -2.954765  -3.154373  0.396154
C    -2.938359  -0.960688  -0.175433
N    -3.363325  -3.056311  -0.908964
C    -3.367181  -1.727181  -1.295083
C    -2.854893  0.439069  -0.306991
C    -3.707309  -1.146002  -2.518524
C    -3.184617  1.020980  -1.525205
C    -3.604430  0.236723  -2.617784
H    -2.817164  -0.916874  2.816290
H    -2.035285  -2.497593  2.835649
H    -2.910761  -4.119859  0.889790
H    -3.717724  -3.824355  -1.466507
H    -2.586200  1.077057  0.537619
H    -4.047371  -1.747367  -3.360955
H    -3.138593  2.103245  -1.636703
H    -3.865638  0.725571  -3.554869
N    -0.238043  0.375396  4.226079
C    -0.876101  1.639047  3.835935
H    0.159661  0.330516  5.163916
H    -0.394068  2.067465  2.948851
H    -0.753214  2.344356  4.662207
H    -1.949870  1.505844  3.657035
Sr    0.926308  -3.950665  3.779697
