37
Energy: -110552.492378 eV PBE+vdW (tier 2 basis)
C    -1.919514  1.529540  5.552067
C    -1.378941  0.976883  4.274745
O    -0.168085  0.580248  4.197856
H    -1.805525  0.771876  6.339825
H    -1.324573  2.400196  5.858488
H    -2.973147  1.818173  5.476610
N    -2.193241  0.899789  3.222451
C    -1.868925  0.271974  1.935118
C    -0.973419  1.221711  1.114714
O    0.294218  1.126159  1.238362
H    -3.153699  1.251173  3.326458
H    -1.237306  -0.604665  2.146035
C    -3.161675  -0.233872  1.237332
C    -4.257338  0.777289  1.079892
C    -4.634350  1.423992  -0.090334
C    -5.150668  1.247959  2.111478
N    -5.670544  2.283670  0.172985
C    -6.012164  2.207309  1.507362
C    -5.354611  0.917705  3.469744
C    -7.011618  2.874981  2.221069
C    -6.350326  1.578410  4.179012
C    -7.158919  2.556098  3.564681
H    -3.521051  -1.087284  1.832539
H    -2.869031  -0.647836  0.262424
H    -4.284772  1.274011  -1.108197
H    -6.164396  2.828041  -0.524701
H    -4.804520  0.102799  3.946201
H    -7.662440  3.604885  1.741034
H    -6.535602  1.315237  5.219503
H    -7.933452  3.050252  4.148784
N    -1.547415  2.116279  0.338923
C    -0.848805  3.096923  -0.487631
H    -2.580153  2.100823  0.321336
H    -1.374131  3.192846  -1.443593
H    0.177145  2.766107  -0.667919
H    -0.837765  4.075993  0.009234
Sr    1.701762  0.497325  2.928117
