37
Energy: -110552.270331 eV PBE+vdW (tier 2 basis)
C    -3.884834  -1.142795  0.738712
C    -3.219525  -1.421345  2.056626
O    -3.577279  -2.277657  2.856425
H    -3.704512  -0.126623  0.368305
H    -4.961038  -1.319248  0.833109
H    -3.500633  -1.854015  -0.007193
N    -2.115142  -0.625481  2.383560
C    -1.294307  -1.085637  3.487574
C    -2.054851  -0.955449  4.809876
O    -1.760268  -1.713481  5.792399
H    -1.682964  -0.058298  1.659674
H    -1.105056  -2.166886  3.384898
C    0.072162  -0.340565  3.518244
C    1.093581  -1.025176  4.377358
C    1.978163  -2.001082  3.962278
C    1.302579  -0.881194  5.791566
N    2.683157  -2.501287  5.035651
C    2.293105  -1.852610  6.179136
C    0.755036  -0.039541  6.788286
C    2.659838  -2.051845  7.520676
C    1.127052  -0.230960  8.121764
C    2.054412  -1.241646  8.487561
H    -0.069994  0.704832  3.827685
H    0.446185  -0.311270  2.484930
H    2.161370  -2.384503  2.962999
H    3.438442  -3.176427  4.967299
H    0.049022  0.747319  6.522794
H    3.410245  -2.790859  7.803007
H    0.725736  0.424522  8.894440
H    2.338328  -1.354709  9.533152
N    -2.961845  -0.004059  4.916434
C    -3.815390  0.210563  6.079908
H    -3.169453  0.492680  4.050184
H    -4.468186  -0.657165  6.240789
H    -4.433248  1.094340  5.901799
H    -3.209103  0.381554  6.977618
Sr    -0.369320  -2.586849  7.325873
