37
Energy: -110552.748703 eV PBE+vdW (tier 2 basis)
C    -2.307598  -0.668051  -0.305010
C    -2.739207  -1.007800  1.080802
O    -2.565197  -2.158354  1.568104
H    -3.010845  -1.168207  -0.990694
H    -2.343298  0.403796  -0.524159
H    -1.312927  -1.074580  -0.516961
N    -3.386055  -0.076426  1.843140
C    -2.905082  1.275659  2.104763
C    -1.359451  1.284127  2.104551
O    -0.713794  0.243585  2.413191
H    -3.813253  -0.493698  2.675470
H    -3.269072  1.986925  1.349016
C    -3.472911  1.735457  3.510456
C    -3.571976  0.618425  4.507336
C    -4.726749  -0.093073  4.788026
C    -2.509862  -0.065422  5.206636
N    -4.437659  -1.187509  5.567730
C    -3.090094  -1.225640  5.822080
C    -1.135981  0.193151  5.420198
C    -2.314590  -2.181982  6.497219
C    -0.367920  -0.743577  6.113402
C    -0.945226  -1.936432  6.616906
H    -4.471947  2.154641  3.336754
H    -2.848975  2.560194  3.879791
H    -5.749112  0.109146  4.481333
H    -5.126528  -1.838820  5.930931
H    -0.679115  1.112719  5.058053
H    -2.765406  -3.068038  6.944010
H    0.686365  -0.543076  6.302814
H    -0.321235  -2.645745  7.159187
N    -0.771170  2.430347  1.785835
C    0.671623  2.671387  1.771411
H    -1.371811  3.206259  1.515976
H    0.929309  3.447931  2.501812
H    0.978989  3.005323  0.773466
H    1.190355  1.743230  2.020813
Sr    -1.051008  -1.903285  3.428425
