37
Energy: -110552.74541 eV PBE+vdW (tier 2 basis)
C    0.827230  -0.405117  1.068565
C    0.010838  -0.119386  2.284629
O    0.473107  0.559029  3.243749
H    0.290256  -0.985895  0.311459
H    1.734689  -0.948689  1.364496
H    1.156193  0.546028  0.628796
N    -1.257947  -0.605156  2.341691
C    -2.067310  -0.273958  3.504117
C    -1.779971  -1.192115  4.711147
O    -1.124380  -0.694083  5.674751
H    -1.620146  -1.139758  1.557810
H    -1.600966  0.661624  3.811376
C    -3.544897  0.173608  3.358553
C    -3.794184  0.967113  4.615359
C    -4.544113  0.604095  5.714727
C    -2.995868  2.091110  5.033011
N    -4.239940  1.414080  6.785395
C    -3.269709  2.312681  6.420949
C    -2.063470  2.931752  4.381327
C    -2.564603  3.257380  7.175751
C    -1.370023  3.890134  5.131975
C    -1.597040  4.026455  6.522745
H    -4.255032  -0.655391  3.260418
H    -3.633449  0.792382  2.453061
H    -5.276055  -0.190582  5.819703
H    -4.688916  1.366483  7.693820
H    -1.918549  2.879329  3.300429
H    -2.772700  3.409168  8.234766
H    -0.691585  4.582139  4.631045
H    -1.056338  4.789490  7.081145
N    -2.175326  -2.458509  4.744588
C    -2.866532  -3.237633  3.720614
H    -1.895626  -2.961204  5.587844
H    -3.729105  -3.747060  4.165833
H    -2.190772  -3.992666  3.298824
H    -3.227852  -2.592632  2.916494
Sr    0.085096  1.343752  5.501039
