37
Energy: -110552.36862 eV PBE+vdW (tier 2 basis)
C    0.299840  -0.255726  0.350541
C    -0.240096  -0.521555  1.726181
O    0.243859  -1.316541  2.527033
H    0.643259  -1.197561  -0.090443
H    1.177899  0.400423  0.437315
H    -0.425645  0.223503  -0.316852
N    -1.381330  0.187256  2.106133
C    -1.737003  0.114357  3.506504
C    -2.219078  -1.294100  3.882534
O    -2.004175  -1.737733  5.058022
H    -1.682139  0.988224  1.557800
H    -0.821019  0.242057  4.106946
C    -2.760166  1.211480  3.899892
C    -3.168023  1.108923  5.337552
C    -4.428174  0.827047  5.818881
C    -2.303821  1.143642  6.485530
N    -4.392779  0.645315  7.185611
C    -3.108508  0.813053  7.633492
C    -0.926889  1.408439  6.678751
C    -2.553513  0.662769  8.914552
C    -0.376638  1.272056  7.958048
C    -1.178051  0.881525  9.060881
H    -3.649627  1.142897  3.258101
H    -2.292645  2.187665  3.696771
H    -5.365876  0.734409  5.279730
H    -5.208671  0.499848  7.771695
H    -0.299659  1.736098  5.849512
H    -3.171983  0.414353  9.777587
H    0.676403  1.501492  8.120041
H    -0.726877  0.800518  10.049158
N    -2.892670  -1.979391  2.980623
C    -3.389931  -3.342088  3.139825
H    -2.927874  -1.555519  2.053622
H    -3.614393  -3.530853  4.192833
H    -2.639383  -4.064753  2.792624
H    -4.302057  -3.460680  2.546865
Sr    -1.126570  -1.403847  7.117111
