37
Energy: -110552.301596 eV PBE+vdW (tier 2 basis)
C    -1.736767  3.864675  4.086589
C    -1.402071  2.633269  3.312099
O    -0.657971  1.734540  3.823640
H    -2.352316  4.572054  3.522295
H    -2.274249  3.566945  4.998091
H    -0.812643  4.363125  4.406780
N    -1.905306  2.498003  2.083284
C    -1.919968  1.269059  1.277902
C    -0.541359  0.967616  0.660107
O    0.336389  0.362666  1.358007
H    -2.652574  3.152022  1.817214
H    -2.121292  0.425083  1.957459
C    -3.103086  1.374459  0.274110
C    -4.350017  1.826450  0.960032
C    -4.995427  3.039493  0.771064
C    -5.079956  1.118744  1.978834
N    -6.075050  3.114656  1.612400
C    -6.160998  1.958760  2.365930
C    -4.948337  -0.144932  2.584038
C    -7.092035  1.581206  3.337255
C    -5.871827  -0.523278  3.549961
C    -6.927955  0.332676  3.924355
H    -3.227974  0.390454  -0.201921
H    -2.868574  2.094872  -0.527141
H    -4.791473  3.832125  0.057053
H    -6.751427  3.868855  1.621407
H    -4.168789  -0.843040  2.271749
H    -7.921141  2.230574  3.615932
H    -5.798642  -1.505970  4.013867
H    -7.640121  0.000568  4.678053
N    -0.307667  1.317739  -0.590971
C    0.937099  1.085502  -1.323237
H    -1.062929  1.779931  -1.091593
H    1.511945  0.302823  -0.822869
H    1.529601  2.008516  -1.366662
H    0.695205  0.768695  -2.343075
Sr    0.845702  0.081066  3.567961
