37
Energy: -110552.367068 eV PBE+vdW (tier 2 basis)
C    0.933503  -0.444549  0.891485
C    0.462644  -0.451051  2.311496
O    1.281969  -0.752612  3.252057
H    1.282531  -1.452172  0.626563
H    0.151951  -0.144540  0.186646
H    1.790350  0.234037  0.788580
N    -0.800209  -0.153989  2.554460
C    -1.529397  -0.222300  3.813633
C    -2.985204  -0.545607  3.350137
O    -3.272074  -0.307867  2.174430
H    -1.479573  -0.029704  1.778768
H    -1.105004  -1.023068  4.434614
C    -1.530172  1.133616  4.577713
C    -0.170987  1.655757  4.914896
C    0.463600  2.727658  4.323739
C    0.748580  1.140535  5.888510
N    1.730528  2.888211  4.846184
C    1.946020  1.940231  5.812329
C    0.695917  0.091688  6.834905
C    3.065910  1.686077  6.620891
C    1.809153  -0.157059  7.646976
C    2.985943  0.626582  7.534453
H    -2.124546  1.008045  5.494087
H    -2.065196  1.869816  3.962546
H    0.096704  3.407391  3.560704
H    2.349067  3.664333  4.632448
H    -0.211003  -0.501374  6.956815
H    3.957897  2.311605  6.571531
H    1.762035  -0.939529  8.404139
H    3.826266  0.430507  8.199558
N    -3.866423  -1.027877  4.244811
C    -3.669031  -1.355358  5.649740
H    -4.803085  -1.148497  3.863348
H    -4.337071  -2.180530  5.918196
H    -3.893379  -0.504439  6.309344
H    -2.642950  -1.696222  5.833051
Sr    2.702302  -0.810278  4.978422
