28
Energy: -170630.382827 eV PBE+vdW (tier 2 basis)
N    0.245088  -0.241516  -0.879760
C    -0.200593  0.231981  0.469527
C    1.009884  0.393102  1.420421
O    2.197206  0.297819  1.049074
H    0.088452  -1.250648  -0.989735
H    -0.301078  0.218242  -1.617999
H    -0.560599  1.265822  0.323330
C    -1.393157  -0.584939  1.055482
C    -1.136611  -2.024407  1.545290
C    -2.459051  -2.666725  2.034810
N    -2.300324  -4.068504  2.429555
C    -2.851121  -4.680304  3.514279
N    -3.131077  -3.995740  4.625880
N    -3.094882  -5.990353  3.455099
H    -2.177402  -0.574917  0.282543
H    -1.824156  0.021231  1.870326
H    -0.396289  -2.045571  2.359223
H    -0.727857  -2.647925  0.732606
H    -3.215900  -2.612966  1.234089
H    -2.871099  -2.103561  2.881076
H    -1.992127  -4.706413  1.699088
H    -3.674805  -4.419336  5.372818
H    -3.296270  -6.529025  4.293769
H    -3.167514  -6.488465  2.573203
H    -2.686066  -3.112618  4.842474
O    0.813678  0.686978  2.672334
H    -0.123266  0.816025  2.924263
Cd    2.516938  0.143731  -1.099065
