28
Energy: -170630.529709 eV PBE+vdW (tier 2 basis)
N    0.977048  0.511572  -0.005321
C    0.158778  0.295211  1.233308
C    1.064058  -0.193026  2.387325
O    2.139572  -0.795874  2.204945
H    0.457943  0.217585  -0.841333
H    1.188146  1.509555  -0.135826
H    -0.259022  1.271899  1.529144
C    -0.997600  -0.711203  0.946408
C    -2.038246  -0.895053  2.072994
C    -3.251036  -1.720486  1.581617
N    -4.204304  -1.950692  2.665637
C    -5.549545  -2.088237  2.529433
N    -6.305623  -2.094396  3.630974
N    -6.112043  -2.192650  1.324042
H    -0.565269  -1.687223  0.671550
H    -1.510325  -0.320339  0.053040
H    -2.403453  0.083511  2.422355
H    -1.582483  -1.414218  2.930477
H    -2.905389  -2.682849  1.166374
H    -3.771074  -1.174125  0.782192
H    -3.826473  -2.219127  3.571275
H    -7.276093  -2.396511  3.603796
H    -7.121280  -2.132864  1.217547
H    -5.599143  -2.535197  0.519790
H    -5.959012  -1.763445  4.526040
O    0.683104  -0.029745  3.621401
H    -0.116943  0.523213  3.735890
Cd    2.967398  -0.651993  0.189196
