28
Energy: -170631.446466 eV PBE+vdW (tier 2 basis)
N    2.698408  -0.291230  1.251263
C    2.212373  -0.595469  2.665637
C    2.719548  -2.009289  3.048059
O    3.556963  -2.575074  2.277707
H    2.676349  0.720178  1.053946
H    2.122750  -0.764111  0.536660
H    2.765383  0.093829  3.325367
C    0.697342  -0.404127  2.834026
C    0.214766  1.058093  2.720772
C    -1.285120  1.176990  3.078060
N    -1.747887  2.559172  2.967495
C    -2.710144  3.141620  3.726531
N    -2.868953  4.466164  3.657690
N    -3.472243  2.412762  4.546257
H    0.464898  -0.794771  3.835575
H    0.160963  -1.053357  2.122542
H    0.361137  1.441169  1.696872
H    0.793785  1.702599  3.399527
H    -1.439735  0.849372  4.115526
H    -1.880001  0.519649  2.421618
H    -1.454973  3.088093  2.149756
H    -2.158245  5.074180  3.263811
H    -3.700065  4.918385  4.028452
H    -3.643578  1.427448  4.381735
H    -4.077310  2.864811  5.226128
O    2.320388  -2.515115  4.136553
H    3.668538  -0.624333  1.117810
Cd    3.666663  -4.286641  3.790627
