28
Energy: -170630.954250 eV PBE+vdW (tier 2 basis)
N    -0.144556  1.841657  1.619999
C    0.029639  0.422504  2.072924
C    1.362811  -0.132115  1.531288
O    2.277340  0.567447  1.053398
H    -0.770001  1.885224  0.804288
H    -0.591299  2.402709  2.354647
H    0.174320  0.456029  3.167202
C    -1.231041  -0.435432  1.736207
C    -1.462666  -1.657044  2.652725
C    -2.758110  -2.411233  2.248743
N    -2.934272  -3.653562  2.995417
C    -3.982581  -4.010407  3.783710
N    -4.187936  -5.306814  4.023719
N    -4.793339  -3.090811  4.312472
H    -1.185635  -0.744708  0.680625
H    -2.096206  0.238944  1.831661
H    -1.537132  -1.339555  3.703739
H    -0.612128  -2.348173  2.587815
H    -2.716745  -2.670561  1.178837
H    -3.649193  -1.784865  2.380416
H    -2.280974  -4.404016  2.781412
H    -3.780551  -6.034472  3.444093
H    -5.660806  -3.361632  4.767096
H    -4.520126  -2.120917  4.406923
H    -4.833053  -5.615381  4.746301
O    1.483743  -1.422653  1.658364
H    2.368141  -1.739369  1.356497
Cd    1.884353  2.738208  0.971482
