28
Energy: -170630.945663 eV PBE+vdW (tier 2 basis)
N    0.415757  2.468695  1.708952
C    0.855200  1.232301  0.984325
C    0.126993  1.116165  -0.373167
O    -0.560111  2.019383  -0.893060
H    -0.238735  2.232645  2.465457
H    1.213814  2.939614  2.148842
H    1.910590  1.391114  0.699063
C    0.741918  -0.059415  1.842107
C    1.714646  -0.093361  3.037935
C    1.630608  -1.358116  3.915703
N    2.327725  -2.513900  3.341440
C    2.219202  -3.786002  3.812417
N    2.897412  -4.758837  3.194306
N    1.430492  -4.069171  4.848522
H    0.931676  -0.906875  1.170521
H    -0.300445  -0.168540  2.185259
H    1.517019  0.746967  3.720074
H    2.752051  0.045318  2.691764
H    0.579260  -1.636865  4.083918
H    2.068917  -1.109065  4.897515
H    3.179195  -2.318807  2.819022
H    2.975871  -5.688623  3.597840
H    1.247065  -5.032364  5.116275
H    1.123403  -3.359625  5.503736
H    3.343587  -4.618155  2.293857
O    0.341517  -0.016259  -0.973370
H    -0.076338  -0.052931  -1.866534
Cd    -0.688286  3.887708  0.248286
