28
Energy: -170630.707861 eV PBE+vdW (tier 2 basis)
N    0.092223  1.516767  2.512764
C    0.291556  0.085923  2.110472
C    0.975932  0.032549  0.728209
O    1.573597  0.992447  0.201587
H    -0.860917  1.828314  2.283597
H    0.195774  1.623910  3.528308
H    1.048470  -0.329277  2.799653
C    -1.028444  -0.740135  2.232613
C    -0.799777  -2.249235  2.488116
C    -2.076738  -3.110931  2.504251
N    -2.811438  -3.074374  3.769906
C    -4.076522  -3.551566  3.939367
N    -4.646010  -3.443934  5.143139
N    -4.747531  -4.087833  2.920359
H    -1.635254  -0.587978  1.327489
H    -1.596661  -0.314127  3.073937
H    -0.239162  -2.396700  3.425094
H    -0.168771  -2.666103  1.694021
H    -1.757544  -4.147467  2.292024
H    -2.759284  -2.807030  1.696582
H    -2.250572  -3.035869  4.618691
H    -4.249325  -2.868484  5.878498
H    -5.731916  -4.323901  3.012140
H    -4.279559  -4.448209  2.096767
H    -5.512487  -3.927313  5.364403
O    0.924157  -1.136750  0.159639
H    1.422862  -1.157903  -0.691809
Cd    1.559339  2.875212  1.347183
