28
Energy: -170630.525380 eV PBE+vdW (tier 2 basis)
N    1.471845  -0.760215  -0.714954
C    0.289427  -0.119822  -0.050410
C    0.729621  0.575040  1.258457
O    1.735716  0.232829  1.909698
H    1.211090  -1.660504  -1.134861
H    1.820719  -0.175315  -1.485541
H    -0.089660  0.661409  -0.730104
C    -0.823730  -1.180905  0.210454
C    -2.181271  -0.637561  0.708276
C    -3.262208  -1.745084  0.694500
N    -4.529271  -1.251248  1.229942
C    -5.769848  -1.655135  0.848774
N    -6.827752  -0.966202  1.286065
N    -5.934378  -2.701666  0.037438
H    -0.441651  -1.938822  0.913687
H    -0.979537  -1.684941  -0.756722
H    -2.523675  0.188801  0.065732
H    -2.083915  -0.252521  1.735273
H    -2.914861  -2.615051  1.277919
H    -3.436489  -2.078008  -0.338234
H    -4.492498  -0.701133  2.085075
H    -6.740644  -0.033967  1.678778
H    -6.843488  -2.900011  -0.372087
H    -5.244543  -3.441082  -0.031639
H    -7.770491  -1.338817  1.206566
O    0.002164  1.531740  1.758668
H    -0.728512  1.837967  1.183050
Cd    3.162840  -1.028775  0.841200
