28
Energy: -170630.500055 eV PBE+vdW (tier 2 basis)
N    2.191082  0.199042  1.972480
C    1.793796  -1.081568  1.304737
C    0.684705  -0.828705  0.254938
O    0.321769  0.310619  -0.101171
H    1.738275  0.297372  2.889098
H    3.202935  0.211367  2.146946
H    2.664229  -1.387468  0.697627
C    1.508986  -2.245427  2.302361
C    0.209138  -2.211122  3.131162
C    0.155197  -3.427080  4.084005
N    -1.113944  -3.495227  4.807690
C    -1.634364  -4.616398  5.371914
N    -2.886345  -4.577458  5.838292
N    -0.923803  -5.743146  5.438017
H    2.388363  -2.303145  2.962506
H    1.557089  -3.181276  1.720292
H    -0.675012  -2.228960  2.476027
H    0.147515  -1.287596  3.730933
H    1.001282  -3.377585  4.791515
H    0.260791  -4.355865  3.503013
H    -1.555497  -2.620003  5.077358
H    -3.252965  -5.317984  6.430751
H    -1.362200  -6.617319  5.715582
H    0.089436  -5.744209  5.408986
H    -3.536112  -3.841811  5.579130
O    0.112556  -1.833853  -0.339828
H    0.451349  -2.715915  -0.084876
Cd    1.503752  1.976717  0.655512
