28
Energy: -170630.522865 eV PBE+vdW (tier 2 basis)
N    2.435426  -0.589066  2.133108
C    0.985514  -0.579593  1.759469
C    0.661640  0.616254  0.821904
O    1.427804  1.582005  0.639258
H    2.553203  -0.670256  3.148694
H    2.922485  -1.391223  1.716630
H    0.798495  -1.486471  1.159509
C    0.049055  -0.556549  3.004015
C    -0.097149  -1.917307  3.719327
C    -1.047945  -1.813500  4.936620
N    -1.138825  -3.068294  5.684254
C    -2.269304  -3.687817  6.119165
N    -2.194265  -4.480242  7.189016
N    -3.434551  -3.519129  5.488329
H    -0.943064  -0.207264  2.680749
H    0.408793  0.221126  3.699321
H    0.883876  -2.282214  4.064738
H    -0.480023  -2.674183  3.018519
H    -2.055303  -1.512329  4.623784
H    -0.693522  -1.027318  5.624112
H    -0.280844  -3.392246  6.124956
H    -2.941986  -5.129295  7.419952
H    -4.300354  -3.854964  5.901197
H    -3.485529  -3.222066  4.521807
H    -1.427065  -4.423029  7.851698
O    -0.474461  0.651465  0.192303
H    -1.046389  -0.136407  0.297476
Cd    3.448286  1.379911  1.400088
