28
Energy: -170631.180558 eV PBE+vdW (tier 2 basis)
N    -0.170497  0.511807  0.316166
C    0.219092  -0.105690  1.656758
C    1.762795  -0.054330  1.769057
O    2.330730  -0.662632  2.721597
H    -0.069723  -0.158627  -0.462305
H    -1.151330  0.832569  0.323223
H    -0.135047  0.606352  2.421481
C    -0.472914  -1.470053  1.852448
C    -0.470936  -1.966409  3.315462
C    -1.596093  -2.951909  3.685572
N    -1.415561  -4.301253  3.138529
C    -2.392374  -5.247997  3.112438
N    -2.125878  -6.434858  2.557940
N    -3.606996  -4.991768  3.599872
H    -0.035051  -2.215605  1.171585
H    -1.518568  -1.328767  1.530187
H    -0.609877  -1.109259  3.991019
H    0.506994  -2.392544  3.580216
H    -2.564618  -2.567108  3.333158
H    -1.635422  -2.993862  4.787409
H    -0.465107  -4.663812  3.122517
H    -1.301655  -6.589559  1.987679
H    -4.374101  -5.642469  3.454466
H    -3.772776  -4.251769  4.272255
H    -2.756789  -7.223835  2.667595
O    2.390814  0.666884  0.929634
H    0.434951  1.321183  0.094242
Cd    4.309023  0.241977  2.068731
