28
Energy: -170630.385567 eV PBE+vdW (tier 2 basis)
N    1.080478  -1.177430  -0.117318
C    0.405754  -0.959400  1.204707
C    1.470045  -0.810773  2.318953
O    2.607236  -1.318320  2.246410
H    0.542114  -1.829619  -0.699614
H    1.139617  -0.299208  -0.648978
H    -0.144073  -0.005558  1.145055
C    -0.586713  -2.126933  1.506458
C    -1.427201  -1.976254  2.793969
C    -2.419175  -3.132871  3.075657
N    -3.736822  -2.964761  2.458709
C    -4.906227  -3.406307  2.993834
N    -6.057012  -2.991556  2.453223
N    -4.914195  -4.222173  4.047943
H    -0.020108  -3.071787  1.547685
H    -1.246930  -2.185488  0.626459
H    -1.981775  -1.024711  2.792296
H    -0.759288  -1.957507  3.666888
H    -2.576827  -3.167395  4.161456
H    -1.972910  -4.097884  2.780251
H    -3.791917  -2.639143  1.498184
H    -6.108503  -2.171652  1.857248
H    -5.775576  -4.407059  4.555331
H    -4.120811  -4.805503  4.288630
H    -6.940266  -3.437013  2.688341
O    1.181897  -0.176810  3.416956
H    0.312856  0.275381  3.424075
Cd    3.230336  -1.955262  0.258193
