28
Energy: -170630.953722 eV PBE+vdW (tier 2 basis)
N    0.154864  1.826073  1.874443
C    0.186049  0.352506  2.154447
C    1.223823  -0.325894  1.239562
O    2.107109  0.281136  0.601882
H    -0.628484  2.058175  1.249085
H    -0.004042  2.353803  2.740888
H    0.605015  0.235329  3.169581
C    -1.248018  -0.262350  2.111637
C    -1.450869  -1.520502  2.985409
C    -2.954753  -1.887752  3.078132
N    -3.182482  -3.013866  3.980868
C    -3.925749  -4.129639  3.753963
N    -4.380977  -4.815165  4.804873
N    -4.194810  -4.544155  2.514247
H    -1.530566  -0.457373  1.066058
H    -1.926942  0.521661  2.482526
H    -1.074221  -1.323052  4.001289
H    -0.884544  -2.374260  2.593077
H    -3.367287  -2.126765  2.090592
H    -3.528066  -1.024651  3.454572
H    -2.912436  -2.869689  4.951759
H    -4.426101  -4.411392  5.735516
H    -4.868825  -5.286198  2.348617
H    -3.659477  -4.236161  1.712509
H    -4.778395  -5.744760  4.698155
O    1.136335  -1.625126  1.223309
H    1.852208  -2.033866  0.681302
Cd    2.096639  2.478928  0.811701
