28
Energy: -170631.198284 eV PBE+vdW (tier 2 basis)
N    1.332111  -1.755366  0.387412
C    0.814126  -0.493604  1.069970
C    2.026217  0.357454  1.516276
O    3.163745  0.083896  1.016628
H    0.595961  -2.188515  -0.192490
H    1.655991  -2.464436  1.061896
H    0.372542  0.107041  0.256114
C    -0.296692  -0.762421  2.095932
C    0.023434  -1.600138  3.349393
C    -1.250937  -1.747363  4.207895
N    -1.024056  -2.581189  5.388827
C    -1.811626  -2.594914  6.493933
N    -1.419836  -3.306775  7.555623
N    -2.944405  -1.891156  6.537109
H    -1.131684  -1.220712  1.540597
H    -0.658485  0.232773  2.394106
H    0.814266  -1.124425  3.948077
H    0.378052  -2.607936  3.072701
H    -2.060947  -2.172301  3.589061
H    -1.575300  -0.753274  4.549595
H    -0.380585  -3.362833  5.297734
H    -2.053702  -3.498247  8.326416
H    -0.470336  -3.650852  7.653045
H    -3.453678  -1.779817  7.409360
H    -3.428036  -1.595035  5.697524
O    1.819444  1.349908  2.273639
H    2.137120  -1.536036  -0.224222
Cd    3.963296  1.989271  1.976846
