28
Energy: -170630.499916 eV PBE+vdW (tier 2 basis)
N    1.176319  -1.413102  1.279574
C    0.192193  -0.481366  0.639438
C    0.714243  0.978903  0.665423
O    1.658731  1.366506  1.382060
H    0.714239  -2.024303  1.962160
H    1.609644  -2.031531  0.583474
H    0.125625  -0.759811  -0.426031
C    -1.217419  -0.565311  1.301371
C    -1.996803  -1.849317  0.944984
C    -3.334623  -2.035506  1.704776
N    -4.462605  -1.218633  1.245613
C    -5.598138  -1.691573  0.663729
N    -6.717780  -0.968804  0.753779
N    -5.600953  -2.848538  -0.000035
H    -1.791888  0.320370  0.991705
H    -1.095995  -0.468378  2.393934
H    -1.394889  -2.739989  1.186622
H    -2.176679  -1.886102  -0.140102
H    -3.193697  -1.835619  2.777882
H    -3.628981  -3.090353  1.636614
H    -4.545753  -0.284923  1.637552
H    -6.842041  -0.250995  1.461189
H    -4.750122  -3.296950  -0.315581
H    -6.473193  -3.282969  -0.288278
H    -7.531469  -1.181711  0.182465
O    0.137636  1.881745  -0.070114
H    -0.560382  1.555967  -0.675081
Cd    2.838783  -0.180707  2.335880
