28
Energy: -170630.511320 eV PBE+vdW (tier 2 basis)
N    0.133889  -0.282278  0.129901
C    0.023146  0.089372  1.576577
C    1.411439  0.459420  2.153345
O    2.431994  0.604161  1.450386
H    0.142522  -1.301917  0.006379
H    -0.680124  0.064894  -0.391162
H    -0.533224  1.043170  1.600913
C    -0.795423  -0.930630  2.425049
C    -0.162827  -2.296313  2.760579
C    -1.154590  -3.149507  3.584159
N    -0.568107  -4.425698  3.992516
C    -0.988470  -5.180354  5.041450
N    -0.247822  -6.228878  5.414260
N    -2.102974  -4.870840  5.705464
H    -1.752699  -1.067095  1.898402
H    -1.080718  -0.411508  3.355723
H    0.766574  -2.170327  3.336523
H    0.099315  -2.845659  1.840821
H    -2.072846  -3.317784  2.994785
H    -1.439285  -2.603860  4.496505
H    0.069025  -4.884478  3.346436
H    -0.609115  -6.928981  6.057100
H    -2.330992  -5.334779  6.580894
H    -2.844581  -4.320300  5.287925
H    0.715632  -6.342750  5.115238
O    1.546720  0.683318  3.427474
H    0.722742  0.617019  3.951568
Cd    2.129795  0.544581  -0.706207
