28
Energy: -170630.457350 eV PBE+vdW (tier 2 basis)
N    0.655635  -0.783810  -0.168786
C    0.142129  -0.511634  1.215758
C    1.326280  -0.265129  2.181817
O    2.477935  -0.699940  1.978692
H    0.114684  -1.532820  -0.616488
H    0.551032  0.044843  -0.768386
H    -0.442011  0.422511  1.173434
C    -0.768662  -1.686889  1.695452
C    -1.490684  -1.463721  3.042706
C    -2.440953  -2.598723  3.480054
N    -3.746286  -2.568374  2.812039
C    -4.658279  -3.579236  2.879971
N    -5.813413  -3.445347  2.222113
N    -4.394590  -4.696471  3.557540
H    -0.163916  -2.606546  1.749854
H    -1.515204  -1.832841  0.899060
H    -2.047427  -0.511653  3.029941
H    -0.754539  -1.385730  3.855412
H    -2.573525  -2.501605  4.571251
H    -1.976103  -3.577539  3.289968
H    -4.146371  -1.647931  2.641597
H    -5.964627  -2.709266  1.540275
H    -5.015454  -5.499315  3.498093
H    -3.694668  -4.731603  4.289979
H    -6.587676  -4.086103  2.375437
O    1.136870  0.384583  3.292117
H    0.248735  0.783533  3.399185
Cd    2.898963  -1.347614  -0.055006
