28
Energy: -170631.271740 eV PBE+vdW (tier 2 basis)
N    2.317731  -0.570650  0.561933
C    1.895985  -0.696761  2.023342
C    2.096185  -2.176132  2.438086
O    2.721840  -2.937094  1.633304
H    3.150836  -1.152239  0.366461
H    2.539430  0.406931  0.318589
H    2.648900  -0.134153  2.600166
C    0.491054  -0.093929  2.237001
C    0.149624  0.197856  3.712486
C    -1.248130  0.796370  3.954099
N    -1.328468  2.230354  3.643625
C    -2.492574  2.927575  3.550787
N    -2.441787  4.231644  3.261123
N    -3.669771  2.321128  3.708711
H    -0.264600  -0.761989  1.794355
H    0.456569  0.845417  1.660047
H    0.915214  0.852113  4.159888
H    0.186578  -0.736199  4.288467
H    -1.501206  0.627495  5.013992
H    -1.997298  0.269336  3.344794
H    -0.515110  2.789484  3.891734
H    -1.589469  4.680930  2.944469
H    -3.262810  4.824654  3.343073
H    -3.758374  1.434922  4.191601
H    -4.537896  2.808887  3.506442
O    1.687373  -2.558094  3.573482
H    1.575809  -0.889826  -0.081236
Cd    2.599367  -4.594033  3.187178
