28
Energy: -170630.250504 eV PBE+vdW (tier 2 basis)
N    1.071476  0.230965  -0.513107
C    0.072756  0.340200  0.602027
C    0.803471  0.333640  1.965726
O    1.920027  -0.195136  2.140490
H    0.708103  -0.358291  -1.271417
H    1.259088  1.152286  -0.929827
H    -0.429556  1.316815  0.502142
C    -0.979020  -0.811226  0.504874
C    -2.160655  -0.732287  1.494697
C    -3.185706  -1.893738  1.370321
N    -4.169255  -1.787480  0.290350
C    -5.511638  -1.630239  0.451723
N    -6.329056  -2.037858  -0.522765
N    -6.012561  -1.068509  1.552648
H    -0.460460  -1.776722  0.626280
H    -1.361994  -0.770633  -0.527326
H    -2.686295  0.229472  1.386215
H    -1.788508  -0.793410  2.528245
H    -3.730978  -1.974273  2.318724
H    -2.656349  -2.851037  1.251229
H    -3.891349  -2.128311  -0.625458
H    -6.036907  -2.706577  -1.228797
H    -5.447565  -0.523092  2.191137
H    -7.008973  -1.102948  1.749431
H    -7.311302  -1.775273  -0.532635
O    0.232267  0.851923  3.012518
H    -0.606639  1.325748  2.836355
Cd    3.050579  -0.620009  0.330200
