28
Energy: -170631.081588 eV PBE+vdW (tier 2 basis)
N    0.377457  -0.686660  0.191950
C    0.639877  0.037815  1.509759
C    2.164789  0.261042  1.643869
O    2.880848  0.109072  0.602409
H    -0.603195  -0.565474  -0.106359
H    0.560886  -1.699536  0.255830
H    0.241054  1.055330  1.359157
C    -0.105064  -0.596713  2.697477
C    0.381748  -1.972867  3.190559
C    -0.604589  -2.719049  4.110386
N    -0.801372  -2.072593  5.412772
C    -1.827246  -2.359418  6.258972
N    -1.943042  -1.658691  7.391417
N    -2.724348  -3.298512  5.955698
H    -1.168266  -0.645770  2.408714
H    -0.060656  0.143290  3.508411
H    1.357077  -1.873881  3.691948
H    0.550897  -2.665334  2.349671
H    -0.222616  -3.744821  4.246250
H    -1.585631  -2.791485  3.617833
H    0.019028  -1.664231  5.854125
H    -2.578417  -1.948156  8.129850
H    -1.434605  -0.794417  7.544023
H    -3.569671  -3.408205  6.509413
H    -2.525913  -4.041295  5.295376
O    2.625289  0.670265  2.748791
H    0.990327  -0.319858  -0.556533
Cd    4.650062  0.925875  1.763787
