28
Energy: -170630.654295 eV PBE+vdW (tier 2 basis)
N    -0.210416  1.605009  1.899760
C    0.464160  0.420808  2.523902
C    1.950702  0.357440  2.102570
O    2.560804  1.264752  1.499260
H    -0.815085  1.308364  1.123570
H    -0.815355  2.082235  2.576569
H    0.514676  0.617531  3.609653
C    -0.283360  -0.916335  2.276680
C    -1.606816  -1.064234  3.055420
C    -2.183874  -2.484960  2.892597
N    -3.393304  -2.663174  3.697086
C    -4.323606  -3.635213  3.515873
N    -5.450468  -3.585072  4.234769
N    -4.134565  -4.607984  2.623916
H    0.402886  -1.719993  2.575981
H    -0.443608  -1.042038  1.192680
H    -2.358516  -0.333241  2.720274
H    -1.417369  -0.873360  4.124409
H    -1.419582  -3.226132  3.188000
H    -2.442452  -2.670775  1.839216
H    -3.451641  -2.153307  4.575331
H    -5.732449  -2.749581  4.737780
H    -4.886682  -5.248327  2.384667
H    -3.212759  -4.855987  2.284109
H    -6.093207  -4.372149  4.266628
O    2.543612  -0.729989  2.492800
H    3.506724  -0.736314  2.277701
Cd    1.384550  3.054024  1.041799
