28
Energy: -170630.492157 eV PBE+vdW (tier 2 basis)
N    2.081094  0.789327  2.645794
C    1.585191  -0.581437  2.296802
C    1.603381  -0.802562  0.761867
O    1.709272  0.119521  -0.071580
H    1.445719  1.254008  3.304091
H    2.997259  0.746646  3.108035
H    2.305150  -1.304870  2.715686
C    0.159972  -0.856544  2.867086
C    0.136682  -1.098085  4.391752
C    -1.276969  -1.214727  5.015747
N    -1.980465  -2.483687  4.802566
C    -2.302796  -3.382307  5.772298
N    -3.340490  -4.199752  5.575012
N    -1.592334  -3.463369  6.898359
H    -0.254275  -1.730200  2.342282
H    -0.494699  -0.011908  2.591688
H    0.622105  -0.260348  4.917619
H    0.726189  -1.995029  4.634821
H    -1.925464  -0.407730  4.642211
H    -1.193490  -1.050448  6.097435
H    -2.519659  -2.574108  3.946130
H    -3.500004  -5.005171  6.174763
H    -1.925876  -4.008873  7.688150
H    -0.665932  -3.065145  6.986624
H    -4.065214  -3.997842  4.892953
O    1.473975  -2.003524  0.283005
H    1.454762  -2.725782  0.944368
Cd    2.270913  2.060943  0.710436
