28
Energy: -170631.399512 eV PBE+vdW (tier 2 basis)
N    2.298823  -0.082886  2.938191
C    1.111393  -1.008936  3.186657
C    1.584495  -2.465713  2.945129
O    0.724133  -3.391011  2.997999
H    3.164166  -0.473428  3.347627
H    2.481311  0.046084  1.930426
H    0.906649  -0.946921  4.268253
C    -0.132531  -0.616514  2.374757
C    -0.768442  0.733927  2.768775
C    -2.090567  0.968605  1.992045
N    -2.659778  2.296521  2.214783
C    -3.893201  2.591442  2.699517
N    -4.441174  3.767859  2.390272
N    -4.553398  1.728397  3.477272
H    -0.854276  -1.431009  2.535078
H    0.108966  -0.635394  1.299074
H    -0.089219  1.572158  2.543309
H    -0.966354  0.764550  3.851146
H    -2.839525  0.212290  2.258298
H    -1.908730  0.857457  0.911569
H    -2.176576  3.074111  1.771563
H    -4.118155  4.323618  1.604440
H    -5.532100  1.878345  3.703878
H    -4.080572  0.993518  3.987594
H    -5.250938  4.122228  2.891693
O    2.823755  -2.670717  2.752866
H    2.141205  0.848380  3.351117
Cd    2.359642  -4.907961  2.685668
