28
Energy: -170630.286552 eV PBE+vdW (tier 2 basis)
N    1.959437  -0.919151  1.019437
C    0.541936  -0.533863  1.317906
C    0.401056  1.008091  1.460925
O    1.361434  1.802221  1.398208
H    2.361130  -1.461057  1.793081
H    2.011416  -1.515541  0.186020
H    -0.049697  -0.784663  0.420288
C    -0.040055  -1.290319  2.550073
C    -0.311327  -2.790222  2.292695
C    -1.310949  -3.455335  3.272208
N    -0.790797  -3.821224  4.593920
C    -0.810187  -5.071414  5.133904
N    -0.829298  -5.198609  6.463010
N    -0.791207  -6.156832  4.358809
H    -0.989691  -0.803420  2.821081
H    0.625524  -1.130006  3.414390
H    0.624661  -3.368557  2.276707
H    -0.765824  -2.899895  1.295448
H    -1.703775  -4.363129  2.799304
H    -2.184284  -2.799680  3.418716
H    -0.694344  -3.072214  5.274168
H    -0.648870  -6.093654  6.910267
H    -0.977094  -7.077947  4.745668
H    -0.513285  -6.125411  3.385833
H    -1.128330  -4.444509  7.073366
O    -0.770852  1.538729  1.637889
H    -1.528449  0.918495  1.637447
Cd    3.257721  0.991117  0.746230
