28
Energy: -170631.071305 eV PBE+vdW (tier 2 basis)
N    1.779717  -1.024748  0.324867
C    0.845526  -0.445613  1.382292
C    1.694125  -0.017587  2.603363
O    1.093397  0.313494  3.667395
H    1.317332  -1.055183  -0.597308
H    2.635623  -0.450958  0.236276
H    0.495785  0.512757  0.962005
C    -0.387200  -1.322314  1.661948
C    -0.152882  -2.744446  2.203327
C    -1.430539  -3.422806  2.755762
N    -2.437077  -3.806554  1.759503
C    -2.890680  -5.067229  1.530713
N    -4.113508  -5.232282  1.020851
N    -2.128036  -6.131682  1.790935
H    -0.976171  -1.349139  0.731198
H    -0.986787  -0.741446  2.379251
H    0.552044  -2.713355  3.049519
H    0.292841  -3.397618  1.435936
H    -1.914684  -2.754349  3.484353
H    -1.142782  -4.319280  3.317801
H    -3.058213  -3.071485  1.433292
H    -4.820017  -4.504867  1.066449
H    -2.519008  -7.069045  1.777716
H    -1.127178  -6.062579  1.922898
H    -4.414283  -6.128768  0.648630
O    2.954478  0.073966  2.456534
H    2.086015  -1.982243  0.553994
Cd    3.054162  0.995357  4.536502
