28
Energy: -170630.522315 eV PBE+vdW (tier 2 basis)
N    1.442531  -1.119216  -0.841764
C    0.273155  -0.426956  -0.202840
C    0.702321  0.229764  1.128767
O    1.699236  -0.132216  1.784211
H    1.161612  -2.030231  -1.223957
H    1.800145  -0.573907  -1.636817
H    -0.039371  0.382576  -0.883023
C    -0.906387  -1.428662  0.005980
C    -2.278279  -0.802173  0.341704
C    -3.414207  -1.854930  0.234340
N    -4.742911  -1.259483  0.372804
C    -5.739600  -1.650439  1.211982
N    -7.001540  -1.379372  0.875630
N    -5.470676  -2.285659  2.355448
H    -0.623720  -2.168958  0.771402
H    -1.002754  -1.971806  -0.947891
H    -2.494642  0.011311  -0.369639
H    -2.289243  -0.372580  1.354100
H    -3.295423  -2.643190  0.987672
H    -3.365293  -2.351522  -0.748022
H    -5.040670  -0.650859  -0.386651
H    -7.271372  -1.154676  -0.077391
H    -4.563732  -2.231845  2.801651
H    -6.215708  -2.711457  2.899700
H    -7.757160  -1.455302  1.551726
O    -0.024973  1.178136  1.644717
H    -0.751695  1.500010  1.072862
Cd    3.131358  -1.380362  0.712303
