28
Energy: -170631.236372 eV PBE+vdW (tier 2 basis)
N    1.035681  -1.703101  0.393207
C    0.920726  -0.408606  1.191716
C    2.345972  0.094077  1.521012
O    3.318088  -0.396194  0.862448
H    1.249165  -2.516614  0.989284
H    1.796551  -1.635078  -0.304336
H    0.553009  0.338529  0.467312
C    -0.102152  -0.479689  2.335770
C    0.124622  -1.480709  3.485156
C    -1.012832  -1.344574  4.521217
N    -0.887084  -2.317997  5.606267
C    -1.907449  -2.750834  6.389255
N    -1.689751  -3.770120  7.226206
N    -3.116427  -2.191005  6.311079
H    -1.083272  -0.661467  1.867210
H    -0.156251  0.544232  2.734770
H    1.092741  -1.287143  3.973832
H    0.137148  -2.521251  3.122451
H    -1.980470  -1.516102  4.027085
H    -1.017621  -0.316608  4.923056
H    0.048032  -2.536926  5.939213
H    -2.353490  -4.002506  7.959727
H    -0.884679  -4.380495  7.132397
H    -3.915308  -2.614889  6.774414
H    -3.252296  -1.250528  5.958870
O    2.475589  1.040898  2.350430
H    0.156343  -1.905081  -0.108290
Cd    4.661419  1.181778  1.808239
