28
Energy: -170630.705426 eV PBE+vdW (tier 2 basis)
N    0.169647  1.013438  0.274848
C    -0.287842  0.542730  1.622990
C    0.919535  0.447415  2.574588
O    2.023859  0.989793  2.368843
H    0.301577  0.216890  -0.362762
H    -0.543611  1.612551  -0.157695
H    -0.896761  1.361224  2.047519
C    -1.171230  -0.743736  1.521171
C    -2.216832  -0.882938  2.649549
C    -3.357068  -1.895790  2.344133
N    -3.067629  -3.303692  2.612639
C    -3.599532  -4.052950  3.614813
N    -3.589998  -5.384029  3.495242
N    -4.112085  -3.481999  4.705258
H    -0.522674  -1.629583  1.450349
H    -1.713268  -0.662193  0.566181
H    -2.716032  0.087828  2.793678
H    -1.735177  -1.134340  3.603431
H    -3.666611  -1.814500  1.291925
H    -4.237345  -1.612628  2.935308
H    -2.606450  -3.833380  1.878134
H    -3.464867  -5.843380  2.598392
H    -4.659475  -4.020947  5.370254
H    -3.951880  -2.510026  4.937440
H    -3.829669  -5.986509  4.278257
O    0.674765  -0.217800  3.666828
H    1.443484  -0.203448  4.285211
Cd    2.199174  2.093996  0.465477
