28
Energy: -170630.481382 eV PBE+vdW (tier 2 basis)
N    1.187890  -1.402014  0.863182
C    0.192501  -0.309205  0.616797
C    0.733716  1.053755  1.121370
O    1.694477  1.170552  1.907290
H    0.740325  -2.218172  1.294677
H    1.602925  -1.731236  -0.016750
H    0.082211  -0.208210  -0.476216
C    -1.193160  -0.616133  1.264398
C    -1.988039  -1.711110  0.517094
C    -3.284695  -2.196917  1.205945
N    -4.454518  -1.347536  0.969627
C    -5.734893  -1.796847  0.876965
N    -6.680900  -0.954843  0.447292
N    -6.046822  -3.054843  1.187858
H    -1.764757  0.323251  1.299041
H    -1.032569  -0.895717  2.319471
H    -1.365822  -2.613220  0.407560
H    -2.220058  -1.383246  -0.507343
H    -3.117302  -2.329927  2.288859
H    -3.517844  -3.185358  0.788544
H    -4.355263  -0.341122  1.063182
H    -6.456648  -0.105394  -0.060660
H    -5.472616  -3.619233  1.803652
H    -6.957331  -3.438698  0.948790
H    -7.668216  -1.177551  0.544666
O    0.154783  2.155442  0.745638
H    -0.550614  2.057063  0.073520
Cd    2.884236  -0.611533  2.246550
