28
Energy: -170630.688064 eV PBE+vdW (tier 2 basis)
N    0.376993  0.153417  -0.024904
C    -0.176041  0.252483  1.366006
C    0.938974  0.672440  2.339306
O    2.160658  0.564694  2.114468
H    -0.041972  -0.639652  -0.524893
H    0.150242  0.993364  -0.572334
H    -0.921069  1.063608  1.381258
C    -0.824085  -1.103423  1.786350
C    -1.731427  -1.138510  3.039053
C    -3.173900  -0.641489  2.815244
N    -3.970990  -0.856668  4.023356
C    -5.289198  -1.176644  4.077696
N    -5.796531  -1.604810  5.237375
N    -6.062735  -1.084752  2.993887
H    -0.020594  -1.842987  1.929840
H    -1.408235  -1.448339  0.918050
H    -1.267131  -0.590268  3.871213
H    -1.777934  -2.190064  3.355218
H    -3.641071  -1.209685  1.997788
H    -3.193631  0.427778  2.538452
H    -3.523337  -0.671917  4.918090
H    -5.206708  -1.939094  5.993434
H    -7.003363  -1.470053  2.995200
H    -5.834922  -0.465910  2.224574
H    -6.800714  -1.663102  5.386249
O    0.480326  1.141142  3.464886
H    1.204360  1.396674  4.085138
Cd    2.676040  -0.044233  0.059001
