28
Energy: -170630.670751 eV PBE+vdW (tier 2 basis)
N    -0.349992  2.300149  2.621877
C    1.052163  2.094789  2.133443
C    1.116045  2.284521  0.606695
O    0.256120  2.898734  -0.060156
H    -0.855211  1.407954  2.690679
H    -0.342255  2.702159  3.566793
H    1.629464  2.961564  2.505416
C    1.761937  0.835742  2.697954
C    1.264032  -0.560851  2.276647
C    2.179974  -1.638308  2.896382
N    1.766630  -2.991428  2.524838
C    2.123009  -4.125380  3.182413
N    1.553509  -5.280765  2.822107
N    3.003213  -4.089660  4.182853
H    1.732692  0.934224  3.793877
H    2.821092  0.949524  2.422597
H    1.280203  -0.658719  1.179854
H    0.230651  -0.744848  2.611152
H    2.151915  -1.563929  3.993853
H    3.220822  -1.456235  2.573832
H    1.359201  -3.124335  1.602545
H    1.907408  -6.172255  3.159244
H    3.157663  -4.905111  4.769730
H    3.665064  -3.330055  4.293032
H    0.715435  -5.313709  2.250185
O    2.201994  1.813283  0.068751
H    2.278697  2.045622  -0.887305
Cd    -1.445478  3.661326  1.111713
