28
Energy: -170630.975665 eV PBE+vdW (tier 2 basis)
N    1.861718  -0.106593  0.375374
C    0.628511  -0.339069  1.196733
C    1.026057  -0.600817  2.663373
O    2.149383  -0.356403  3.146051
H    2.126594  -0.964052  -0.127582
H    1.686298  0.605288  -0.343407
H    0.086850  0.622790  1.229730
C    -0.285124  -1.430918  0.555715
C    -1.789943  -1.292977  0.877364
C    -2.615846  -2.372028  0.139085
N    -4.038502  -2.233781  0.441725
C    -5.069137  -2.518366  -0.395691
N    -6.300113  -2.128372  -0.050960
N    -4.860131  -3.158719  -1.547667
H    0.086575  -2.427641  0.838301
H    -0.156388  -1.338878  -0.533635
H    -2.151164  -0.299415  0.572321
H    -1.953664  -1.384513  1.959973
H    -2.264038  -3.377196  0.428014
H    -2.488451  -2.269015  -0.947892
H    -4.294120  -2.046242  1.408663
H    -6.463536  -1.429213  0.666933
H    -5.601318  -3.234464  -2.239175
H    -4.056744  -3.761097  -1.686998
H    -7.122293  -2.495029  -0.523609
O    0.054157  -1.068299  3.393329
H    0.321269  -1.174044  4.337353
Cd    3.637101  0.466063  1.738579
