28
Energy: -170631.286344 eV PBE+vdW (tier 2 basis)
N    -0.271578  0.196411  0.002108
C    0.044550  0.089837  1.491385
C    1.551596  0.384850  1.674861
O    2.192199  0.838115  0.672674
H    -1.281978  0.335027  -0.155976
H    0.008533  -0.653393  -0.513356
H    -0.478146  0.936494  1.966365
C    -0.470128  -1.250633  2.057416
C    -0.719725  -1.251209  3.579163
C    -1.401690  -2.559117  4.029738
N    -1.729745  -2.514865  5.454924
C    -1.971987  -3.592646  6.240908
N    -2.114150  -3.410454  7.557987
N    -2.043423  -4.819014  5.719369
H    0.219608  -2.060151  1.772710
H    -1.425434  -1.460401  1.547420
H    -1.368457  -0.398386  3.836573
H    0.224044  -1.121458  4.126273
H    -0.730633  -3.413972  3.858659
H    -2.318118  -2.722998  3.435381
H    -1.990212  -1.613522  5.847080
H    -2.480270  -4.145264  8.156815
H    -1.834615  -2.549074  8.015867
H    -2.079239  -5.637559  6.320183
H    -2.247052  -4.975314  4.739324
O    2.075762  0.215006  2.813526
H    0.236651  0.987138  -0.429724
Cd    4.028634  1.037553  1.987349
