28
Energy: -170630.976456 eV PBE+vdW (tier 2 basis)
N    0.293495  1.824529  1.974035
C    0.298089  0.356821  2.285327
C    1.405857  -0.341192  1.472337
O    2.342928  0.251420  0.900864
H    -0.433137  2.043674  1.279498
H    0.062112  2.369560  2.812956
H    0.630750  0.260287  3.333960
C    -1.126451  -0.262246  2.132258
C    -1.407371  -1.483867  3.035282
C    -2.886662  -1.920627  2.924020
N    -3.153749  -3.063839  3.794686
C    -4.074880  -4.037540  3.576389
N    -4.060420  -5.119973  4.360349
N    -4.966178  -3.928494  2.589562
H    -1.305706  -0.505953  1.074283
H    -1.839473  0.532804  2.401338
H    -1.188105  -1.218108  4.081801
H    -0.760586  -2.328666  2.767238
H    -3.114701  -2.218989  1.890832
H    -3.548993  -1.079041  3.190012
H    -2.734561  -3.052036  4.721922
H    -3.261604  -5.354663  4.941380
H    -5.552994  -4.717413  2.331952
H    -5.235024  -3.028888  2.207643
H    -4.841782  -5.770217  4.378247
O    1.311389  -1.639698  1.468544
H    2.064134  -2.061971  0.990543
Cd    2.321626  2.451325  1.067744
