28
Energy: -170630.705932 eV PBE+vdW (tier 2 basis)
N    -0.095640  1.237965  0.323583
C    -0.264246  0.660069  1.698150
C    1.116521  0.477089  2.356144
O    2.165148  1.026317  1.961344
H    -0.129755  0.496678  -0.388717
H    -0.867455  1.879687  0.107659
H    -0.744316  1.445903  2.308930
C    -1.187385  -0.599087  1.688505
C    -1.899137  -0.874986  3.035728
C    -3.173827  -1.742958  2.951299
N    -2.928387  -3.187260  2.943360
C    -3.784462  -4.121457  3.433201
N    -3.357932  -5.383916  3.556547
N    -5.022065  -3.790588  3.800298
H    -0.611170  -1.468302  1.336639
H    -1.959072  -0.398018  0.929143
H    -2.233868  0.084795  3.457562
H    -1.207404  -1.304672  3.771355
H    -3.776953  -1.452419  2.073125
H    -3.774137  -1.523898  3.845038
H    -2.140140  -3.546784  2.413075
H    -2.371370  -5.621538  3.556118
H    -5.603440  -4.442119  4.320576
H    -5.481762  -2.952606  3.462671
H    -4.006751  -6.143537  3.745176
O    1.094897  -0.271783  3.420613
H    1.976057  -0.308358  3.863249
Cd    1.960052  2.277784  0.158629
