28
Energy: -170630.669764 eV PBE+vdW (tier 2 basis)
N    0.700591  0.907726  0.342325
C    0.169734  0.527394  1.693170
C    1.267428  -0.199485  2.493574
O    2.479304  -0.190069  2.198982
H    0.407273  0.222218  -0.366644
H    0.313813  1.811332  0.045012
H    0.014387  1.471079  2.245502
C    -1.187845  -0.233604  1.574749
C    -2.128785  -0.092092  2.792130
C    -3.533206  -0.665251  2.470459
N    -4.470621  -0.446758  3.569927
C    -5.314565  -1.347308  4.140698
N    -6.381518  -0.889663  4.799338
N    -5.088651  -2.659937  4.058490
H    -0.994244  -1.292395  1.345602
H    -1.700798  0.191718  0.697709
H    -2.234010  0.973708  3.049055
H    -1.716949  -0.596065  3.675276
H    -3.482369  -1.737261  2.245452
H    -3.939829  -0.176532  1.569745
H    -4.653596  0.524583  3.813449
H    -6.728835  0.056460  4.674860
H    -5.792270  -3.328613  4.358631
H    -4.181168  -3.039224  3.820199
H    -6.939800  -1.499187  5.391264
O    0.825775  -0.800043  3.561270
H    1.559164  -1.200736  4.085545
Cd    3.008592  0.923005  0.367231
