28
Energy: -170630.395832 eV PBE+vdW (tier 2 basis)
N    0.837569  -0.378998  -0.075637
C    0.334858  -0.212342  1.329944
C    1.342302  -0.810207  2.341478
O    2.251225  -1.603286  2.026482
H    0.117598  -0.804368  -0.671769
H    1.052837  0.534212  -0.495402
H    0.296327  0.871268  1.530484
C    -1.100172  -0.818105  1.478345
C    -1.846984  -0.418641  2.773211
C    -3.381116  -0.587024  2.743030
N    -3.836327  -1.968481  2.921131
C    -5.114963  -2.382377  2.690974
N    -5.414703  -3.670675  2.878395
N    -6.043408  -1.531570  2.254231
H    -1.052709  -1.912732  1.370376
H    -1.668639  -0.429049  0.619511
H    -1.690856  0.655312  2.963841
H    -1.447223  -0.958577  3.645993
H    -3.783139  -0.208454  1.791569
H    -3.785497  0.049901  3.548981
H    -3.323409  -2.531896  3.596178
H    -4.699199  -4.377765  3.010213
H    -6.955408  -1.866510  1.954598
H    -5.959337  -0.528887  2.377417
H    -6.378474  -3.993939  2.890117
O    1.243938  -0.511349  3.604369
H    0.578523  0.173580  3.821614
Cd    2.725961  -1.715698  -0.095543
