28
Energy: -170630.587783 eV PBE+vdW (tier 2 basis)
N    0.906225  -0.830988  -0.295873
C    0.255056  -0.045756  0.802033
C    1.261476  0.250457  1.948374
O    2.378793  -0.293456  2.050226
H    0.362926  -1.672276  -0.517944
H    0.963022  -0.282712  -1.161863
H    -0.009576  0.940137  0.383497
C    -1.018008  -0.745661  1.359966
C    -2.255595  -0.649700  0.440797
C    -3.510122  -1.230762  1.126019
N    -4.695034  -1.061465  0.284197
C    -5.851876  -1.762888  0.402037
N    -6.792737  -1.608420  -0.535129
N    -6.041121  -2.609735  1.414998
H    -1.259169  -0.290310  2.332365
H    -0.771910  -1.795805  1.591000
H    -2.091945  -1.178248  -0.510951
H    -2.436337  0.408866  0.193309
H    -3.660098  -0.733504  2.100972
H    -3.374854  -2.306219  1.315277
H    -4.742203  -0.228804  -0.297948
H    -6.596218  -1.172376  -1.430656
H    -6.838605  -3.239901  1.422761
H    -5.525048  -2.534815  2.283901
H    -7.736328  -1.962369  -0.400849
O    0.946527  1.100949  2.878599
H    0.090304  1.563257  2.766846
Cd    3.056454  -1.456498  0.353038
