28
Energy: -170630.539002 eV PBE+vdW (tier 2 basis)
N    1.446192  -0.653165  -0.802683
C    0.334833  -0.190551  0.092151
C    0.869679  0.041387  1.523886
O    1.874003  -0.538138  1.981070
H    1.110047  -1.362599  -1.464949
H    1.805155  0.123634  -1.373149
H    -0.017728  0.780966  -0.292415
C    -0.834942  -1.222166  0.077779
C    -2.131520  -0.793936  0.799854
C    -3.283227  -1.786360  0.510592
N    -4.488324  -1.425622  1.254670
C    -5.769377  -1.629953  0.848979
N    -6.757973  -1.063476  1.546753
N    -6.040359  -2.360020  -0.234559
H    -0.475592  -2.180042  0.488112
H    -1.063443  -1.390494  -0.986745
H    -2.445009  0.207711  0.466090
H    -1.965700  -0.753745  1.887690
H    -2.968045  -2.811876  0.769269
H    -3.526792  -1.767348  -0.560892
H    -4.375026  -1.174104  2.234033
H    -6.591488  -0.306943  2.203125
H    -6.978710  -2.375954  -0.625481
H    -5.404277  -3.071874  -0.575248
H    -7.725744  -1.347528  1.417666
O    0.227881  0.833509  2.333400
H    -0.501667  1.340702  1.921663
Cd    3.171153  -1.481012  0.498341
