28
Energy: -170630.181940 eV PBE+vdW (tier 2 basis)
N    2.445094  -0.513297  0.810631
C    1.187221  -1.206890  0.371603
C    0.337998  -0.276580  -0.525652
O    0.499846  0.957956  -0.595033
H    2.565076  -0.585841  1.827988
H    3.271492  -0.959983  0.393473
H    1.492898  -2.058355  -0.259040
C    0.387576  -1.739319  1.608138
C    -0.721374  -2.766815  1.286048
C    -1.159946  -3.651721  2.488126
N    -2.110319  -3.052054  3.425538
C    -3.383822  -3.478738  3.649014
N    -4.062393  -4.143808  2.713221
N    -3.955651  -3.207729  4.824833
H    -0.014358  -0.886527  2.177474
H    1.138926  -2.236180  2.242166
H    -0.343328  -3.478745  0.533507
H    -1.610477  -2.272751  0.866740
H    -0.276058  -3.974906  3.058083
H    -1.608484  -4.570908  2.091550
H    -1.727492  -2.461940  4.158635
H    -4.938620  -4.608502  2.934806
H    -4.953473  -3.339019  4.969264
H    -3.411096  -2.969834  5.648120
H    -3.783784  -4.152615  1.740324
O    -0.628655  -0.778030  -1.238204
H    -0.687355  -1.755291  -1.224498
Cd    2.375560  1.715419  0.206144
