28
Energy: -170630.481084 eV PBE+vdW (tier 2 basis)
N    0.241532  -0.244143  -0.641427
C    -0.027266  -0.065022  0.822143
C    1.147782  0.674607  1.513122
O    2.276739  0.813724  1.002820
H    0.069874  -1.213102  -0.931686
H    -0.381884  0.343089  -1.208161
H    -0.901428  0.601703  0.913783
C    -0.316152  -1.420476  1.538482
C    -1.710893  -1.998943  1.208311
C    -1.995152  -3.426854  1.730238
N    -2.423752  -3.489980  3.129397
C    -3.317690  -4.384688  3.629820
N    -3.739998  -5.417660  2.900763
N    -3.785118  -4.199135  4.868858
H    -0.208460  -1.260508  2.621594
H    0.481193  -2.134662  1.271412
H    -1.838137  -2.061618  0.116169
H    -2.499868  -1.318305  1.561887
H    -1.119278  -4.078014  1.566110
H    -2.818046  -3.829556  1.125321
H    -1.896513  -2.970981  3.825321
H    -4.534402  -5.975860  3.202275
H    -4.294589  -4.932389  5.355324
H    -3.721452  -3.302931  5.340718
H    -3.202779  -5.788745  2.125359
O    0.986632  1.165349  2.706112
H    0.077930  1.113880  3.067304
Cd    2.449178  0.329218  -1.104368
