28
Energy: -170631.212066 eV PBE+vdW (tier 2 basis)
N    0.687516  -0.605948  0.197132
C    0.170628  0.579485  1.006768
C    1.393280  1.363462  1.545324
O    2.544096  1.063863  1.096565
H    -0.046694  -0.985429  -0.419253
H    1.017159  -1.373186  0.803450
H    -0.292712  1.258663  0.271005
C    -0.863944  0.178577  2.072025
C    -2.204170  -0.311189  1.481356
C    -3.405937  -0.264042  2.463194
N    -3.497576  -1.355589  3.434306
C    -4.492595  -2.279516  3.499405
N    -4.733432  -2.888616  4.663218
N    -5.213153  -2.594022  2.421041
H    -1.033890  1.091924  2.661557
H    -0.422712  -0.558104  2.762699
H    -2.117440  -1.330100  1.072154
H    -2.486202  0.348436  0.644947
H    -4.332892  -0.250797  1.876971
H    -3.391779  0.685506  3.018869
H    -2.945012  -1.266562  4.282148
H    -5.332188  -3.707951  4.716069
H    -4.423507  -2.500813  5.548393
H    -6.060680  -3.148007  2.502544
H    -4.923959  -2.348869  1.482835
O    1.187149  2.311258  2.357746
H    1.490126  -0.327616  -0.392691
Cd    3.378519  2.816180  2.302223
