28
Energy: -170631.408758 eV PBE+vdW (tier 2 basis)
N    1.850180  -0.716180  0.231217
C    1.066249  -0.561110  1.531458
C    1.934381  0.265789  2.513594
O    1.526932  0.404156  3.702990
H    1.233267  -0.974959  -0.552892
H    2.330765  0.165993  -0.014922
H    0.211371  0.091626  1.287890
C    0.576449  -1.901672  2.100198
C    -0.509525  -2.602671  1.255849
C    -1.060606  -3.849760  1.985012
N    -2.089961  -4.516521  1.189432
C    -3.159239  -5.194617  1.677280
N    -4.128680  -5.559363  0.833789
N    -3.257393  -5.474876  2.979466
H    0.175646  -1.665660  3.096847
H    1.437749  -2.568793  2.269174
H    -0.104552  -2.919350  0.279996
H    -1.341602  -1.910009  1.057932
H    -1.513973  -3.544226  2.938330
H    -0.236225  -4.547833  2.208720
H    -1.912415  -4.634030  0.195048
H    -4.222860  -5.147869  -0.089089
H    -4.124856  -5.837395  3.365150
H    -2.439538  -5.548518  3.573440
H    -4.829548  -6.245482  1.099699
O    2.989653  0.814333  2.065841
H    2.582298  -1.439948  0.307718
Cd    3.270036  1.765944  4.125837
