28
Energy: -170630.945498 eV PBE+vdW (tier 2 basis)
N    1.589278  0.451702  1.956861
C    1.196222  -0.919282  1.495232
C    0.998356  -0.938750  -0.036778
O    1.306680  -0.007314  -0.809236
H    0.798861  0.918069  2.419843
H    2.345899  0.404244  2.647795
H    2.073688  -1.572076  1.650459
C    -0.021633  -1.499941  2.269319
C    0.285596  -1.858002  3.736466
C    -0.938458  -2.341144  4.555159
N    -1.405609  -3.703327  4.282672
C    -1.345138  -4.755020  5.141748
N    -2.192495  -5.774363  4.971285
N    -0.452502  -4.785150  6.132182
H    -0.345392  -2.394142  1.720411
H    -0.855245  -0.779641  2.207727
H    0.665109  -0.976763  4.277181
H    1.080877  -2.618020  3.776914
H    -1.790831  -1.662954  4.396797
H    -0.697667  -2.271083  5.623238
H    -2.040839  -3.827312  3.499323
H    -2.069234  -6.652456  5.468644
H    -0.512428  -5.482132  6.869056
H    0.355628  -4.176095  6.153973
H    -3.047635  -5.680482  4.431801
O    0.519166  -2.064249  -0.474659
H    0.457435  -2.090173  -1.459188
Cd    2.205313  1.748854  0.141779
