28
Energy: -170630.934066 eV PBE+vdW (tier 2 basis)
N    -0.443755  2.445746  2.344843
C    1.021108  2.193671  2.158908
C    1.404945  2.351538  0.676489
O    0.715085  2.965583  -0.165100
H    -0.979802  1.569353  2.325342
H    -0.618077  2.870867  3.263319
H    1.535100  3.051480  2.630863
C    1.562229  0.926940  2.877707
C    1.154709  -0.465683  2.360679
C    1.835864  -1.551000  3.223855
N    1.517048  -2.901670  2.761864
C    2.248320  -4.014140  3.031318
N    1.927334  -5.156926  2.414545
N    3.279556  -3.969517  3.874869
H    1.285044  1.036608  3.937424
H    2.657863  1.024265  2.851676
H    1.458867  -0.600281  1.312456
H    0.061828  -0.606774  2.410124
H    1.532091  -1.427615  4.278439
H    2.927987  -1.424998  3.173311
H    0.590654  -3.064336  2.375335
H    2.318805  -6.046499  2.713199
H    3.917015  -4.756768  3.959422
H    3.375668  -3.241167  4.572985
H    1.327017  -5.178284  1.596241
O    2.569980  1.852632  0.385316
H    2.848365  2.063228  -0.537662
Cd    -1.171851  3.793747  0.615235
