28
Energy: -170631.407471 eV PBE+vdW (tier 2 basis)
N    3.141669  0.031240  2.208482
C    2.131473  -0.703768  3.085080
C    2.470766  -2.215881  3.038357
O    3.540485  -2.574069  2.453564
H    3.153427  1.040876  2.415997
H    2.932950  -0.081642  1.203915
H    2.350059  -0.389340  4.118919
C    0.674912  -0.382054  2.716118
C    0.245506  1.077729  2.976480
C    -1.271917  1.264489  2.712791
N    -1.700309  2.659877  2.790416
C    -2.636288  3.189134  3.618969
N    -3.248560  4.318572  3.258822
N    -2.942717  2.601525  4.779178
H    0.062759  -1.066887  3.321362
H    0.490854  -0.661770  1.665579
H    0.791368  1.773730  2.318945
H    0.477665  1.367699  4.012681
H    -1.867231  0.670218  3.417336
H    -1.520868  0.892447  1.706713
H    -1.425444  3.259155  2.015979
H    -3.257754  4.644293  2.297286
H    -3.790248  4.861936  3.925110
H    -2.317992  1.947664  5.232956
H    -3.749957  2.903451  5.316541
O    1.692786  -3.021824  3.625218
H    4.096308  -0.337495  2.355129
Cd    3.076298  -4.718306  3.096078
