28
Energy: -170630.511557 eV PBE+vdW (tier 2 basis)
N    0.067968  -0.157785  -0.834937
C    -0.262623  0.357605  0.533072
C    1.028935  0.596833  1.353477
O    2.175370  0.541482  0.863994
H    -0.052198  -1.176630  -0.886412
H    -0.570142  0.244704  -1.531495
H    -0.669318  1.373452  0.382917
C    -1.363114  -0.467888  1.262132
C    -1.014042  -1.884402  1.764107
C    -2.225860  -2.501385  2.497857
N    -1.923287  -3.832247  3.023665
C    -2.846592  -4.778795  3.338387
N    -4.151617  -4.509382  3.289986
N    -2.421103  -6.001068  3.672894
H    -2.224259  -0.502869  0.577181
H    -1.722167  0.149941  2.102703
H    -0.153251  -1.846499  2.451329
H    -0.734116  -2.549960  0.932242
H    -3.071677  -2.594857  1.800831
H    -2.538987  -1.828772  3.316391
H    -0.990138  -3.989137  3.396534
H    -4.838988  -5.253379  3.375554
H    -3.049058  -6.684496  4.088025
H    -1.472338  -6.311502  3.488960
H    -4.510801  -3.563802  3.352869
O    0.949133  0.918170  2.610997
H    0.039560  1.011717  2.960399
Cd    2.285708  0.317949  -1.298659
