28
Energy: -170631.266992 eV PBE+vdW (tier 2 basis)
N    0.939061  -0.632955  0.369287
C    0.278338  0.543624  1.081486
C    1.393209  1.423957  1.695427
O    2.598306  1.183296  1.370178
H    0.285688  -1.085690  -0.287863
H    1.267259  -1.352367  1.032226
H    -0.159518  1.162658  0.280128
C    -0.823838  0.112372  2.065449
C    -2.038461  -0.543681  1.370886
C    -3.372591  -0.501872  2.155054
N    -3.511826  -1.528190  3.189353
C    -4.672291  -2.163344  3.501990
N    -4.627275  -3.219628  4.319730
N    -5.836906  -1.759542  2.992004
H    -1.136342  1.039717  2.568036
H    -0.389854  -0.531322  2.847446
H    -1.832327  -1.587477  1.087243
H    -2.246889  0.002432  0.436856
H    -4.173820  -0.669641  1.424413
H    -3.520972  0.503152  2.583923
H    -2.765234  -1.633102  3.870067
H    -5.471822  -3.596072  4.740987
H    -3.766729  -3.726411  4.496393
H    -6.668672  -2.337143  3.077646
H    -5.982249  -0.812514  2.660957
O    1.052594  2.385363  2.444616
H    1.768011  -0.322079  -0.165176
Cd    3.204151  3.028460  2.572261
