28
Energy: -170630.688061 eV PBE+vdW (tier 2 basis)
N    2.653418  -0.543352  1.852945
C    1.156118  -0.579036  1.914687
C    0.549620  0.725322  1.354115
O    1.193013  1.748741  1.046477
H    3.061582  -0.775901  2.765746
H    3.018221  -1.230915  1.183958
H    0.810021  -1.362355  1.220426
C    0.632439  -0.854221  3.352336
C    0.716448  -2.320397  3.846476
C    -0.545851  -3.154092  3.525594
N    -0.471674  -4.522093  4.038591
C    -1.270503  -5.095162  4.976026
N    -1.352768  -6.426856  5.019235
N    -1.963022  -4.350512  5.841613
H    -0.407394  -0.503864  3.403826
H    1.189131  -0.203430  4.046309
H    0.858580  -2.297052  4.935653
H    1.608009  -2.829152  3.446036
H    -0.710230  -3.219224  2.437620
H    -1.442436  -2.674948  3.939704
H    0.156564  -5.160090  3.556113
H    -1.762535  -6.905677  5.817043
H    -2.678105  -4.769330  6.429720
H    -1.701360  -3.398153  6.063808
H    -1.080761  -7.010617  4.233972
O    -0.741664  0.651033  1.225180
H    -1.137035  1.477050  0.857843
Cd    3.371174  1.566279  1.204947
