28
Energy: -170630.432644 eV PBE+vdW (tier 2 basis)
N    0.593319  0.522708  -0.162865
C    0.213852  0.071355  1.215152
C    1.416900  -0.622924  1.916745
O    2.555101  -0.705237  1.412423
H    0.167633  -0.080719  -0.876445
H    0.252223  1.473403  -0.343073
H    0.046183  0.987375  1.808606
C    -1.081649  -0.792017  1.232873
C    -2.345065  -0.015897  0.788990
C    -3.694908  -0.572788  1.291129
N    -4.210545  -1.726085  0.550313
C    -5.530343  -2.033789  0.429337
N    -5.887480  -3.008524  -0.414142
N    -6.457255  -1.368773  1.117860
H    -1.235761  -1.142094  2.265775
H    -0.915198  -1.701894  0.633446
H    -2.386215  0.094955  -0.304970
H    -2.292851  1.003589  1.201776
H    -4.431779  0.235072  1.183854
H    -3.622930  -0.806504  2.368557
H    -3.566799  -2.465358  0.284674
H    -5.267268  -3.344407  -1.143584
H    -6.241310  -0.854024  1.963933
H    -7.444442  -1.477336  0.900549
H    -6.828072  -3.394411  -0.405893
O    1.281574  -1.121537  3.108137
H    0.396508  -1.025339  3.514480
Cd    2.900578  0.377203  -0.430639
