28
Energy: -170630.707385 eV PBE+vdW (tier 2 basis)
N    0.297284  1.591967  2.858361
C    0.514263  0.139754  2.557305
C    1.858193  -0.076314  1.829458
O    2.591065  0.827499  1.380819
H    -0.627356  1.897989  2.534462
H    0.331576  1.775362  3.867643
H    0.630878  -0.389708  3.517300
C    -0.655169  -0.471706  1.736612
C    -1.959978  -0.773824  2.516550
C    -2.042354  -2.219099  3.047625
N    -3.351199  -2.476068  3.647846
C    -4.014463  -3.660620  3.653852
N    -5.304033  -3.670622  4.004964
N    -3.401239  -4.791482  3.300242
H    -0.287663  -1.389013  1.257378
H    -0.880934  0.214177  0.904061
H    -2.801989  -0.612758  1.829701
H    -2.101749  -0.060271  3.345279
H    -1.240755  -2.420614  3.780550
H    -1.912035  -2.920260  2.210361
H    -3.776710  -1.728233  4.190227
H    -5.865594  -2.824729  4.019381
H    -3.932249  -5.645479  3.152627
H    -2.394547  -4.895017  3.352165
H    -5.788531  -4.539663  4.214465
O    2.165265  -1.335593  1.726235
H    3.026748  -1.480583  1.267667
Cd    1.934274  2.872909  1.822866
