28
Energy: -170630.559020 eV PBE+vdW (tier 2 basis)
N    0.722051  1.094994  1.010196
C    0.537685  0.189115  2.188246
C    1.858685  -0.553842  2.532163
O    2.855910  -0.578728  1.785365
H    0.015493  0.910716  0.289776
H    0.618413  2.080624  1.277731
H    0.327118  0.830294  3.061170
C    -0.622157  -0.829163  1.981489
C    -2.033807  -0.231599  2.165832
C    -3.125670  -1.310405  1.999682
N    -4.456642  -0.758685  2.249394
C    -5.540472  -1.464069  2.665016
N    -5.513824  -2.797202  2.710533
N    -6.631040  -0.795083  3.050830
H    -0.485845  -1.654757  2.695964
H    -0.510429  -1.293379  0.986855
H    -2.210760  0.578337  1.439096
H    -2.120340  0.213275  3.168634
H    -2.956981  -2.123782  2.721273
H    -3.073203  -1.745425  0.986265
H    -4.640975  0.191948  1.938772
H    -4.878351  -3.342332  2.139323
H    -7.522653  -1.266743  3.178504
H    -6.605498  0.194242  3.277499
H    -6.261059  -3.314960  3.165384
O    1.956977  -1.207434  3.651020
H    1.190445  -1.139578  4.256863
Cd    2.840926  0.770619  0.087121
