28
Energy: -170630.453744 eV PBE+vdW (tier 2 basis)
N    1.823452  -1.096136  0.444404
C    0.397256  -0.681144  0.664875
C    0.325804  0.837350  0.957020
O    1.282288  1.491617  1.419315
H    2.011488  -2.002019  0.889447
H    2.018334  -1.221459  -0.557321
H    -0.147015  -0.856275  -0.277857
C    -0.240898  -1.527684  1.812377
C    -1.753563  -1.311210  2.038495
C    -2.393527  -2.198793  3.127085
N    -2.687910  -3.564140  2.679625
C    -3.056571  -4.575205  3.516228
N    -3.147763  -4.378250  4.831405
N    -3.291500  -5.783392  2.996419
H    0.303800  -1.325842  2.748864
H    -0.056688  -2.580585  1.547167
H    -2.308268  -1.441999  1.094145
H    -1.940240  -0.280347  2.371596
H    -3.324077  -1.696450  3.442429
H    -1.734924  -2.255709  4.006467
H    -3.018182  -3.665341  1.722024
H    -3.291628  -5.159858  5.465401
H    -3.728228  -6.520029  3.544310
H    -3.039184  -6.019313  2.042344
H    -3.268901  -3.455090  5.232264
O    -0.784701  1.486144  0.765809
H    -1.499867  0.976333  0.332194
Cd    3.233211  0.538824  1.282470
