28
Energy: -170631.276417 eV PBE+vdW (tier 2 basis)
N    -0.432216  1.212271  2.066545
C    0.491362  0.019233  2.299869
C    1.835481  0.315934  1.592342
O    2.706806  -0.600185  1.545147
H    -0.871738  1.183669  1.132977
H    -1.187104  1.249786  2.767634
H    0.723729  0.031032  3.377846
C    -0.152528  -1.322027  1.901579
C    -1.399060  -1.687742  2.733945
C    -2.105456  -3.005605  2.326199
N    -1.532571  -4.205789  2.936902
C    -2.245852  -5.280817  3.362320
N    -1.637015  -6.199708  4.118234
N    -3.536075  -5.415543  3.049938
H    0.642916  -2.071935  2.021572
H    -0.395747  -1.305754  0.826336
H    -2.172100  -0.911553  2.617812
H    -1.155163  -1.724743  3.806600
H    -2.124669  -3.101737  1.227733
H    -3.145598  -2.936711  2.667935
H    -0.525912  -4.336670  2.902450
H    -0.774325  -6.002065  4.613860
H    -4.110819  -6.114809  3.512086
H    -3.943851  -4.967625  2.237073
H    -2.058969  -7.109156  4.283784
O    2.026442  1.486613  1.133772
H    0.099199  2.098323  2.117231
Cd    4.134833  0.841312  0.558280
