28
Energy: -170631.276760 eV PBE+vdW (tier 2 basis)
N    0.998034  -1.719191  -0.080648
C    0.461787  -0.671551  0.892186
C    1.589655  -0.343354  1.902690
O    2.747752  -0.820760  1.681100
H    0.452123  -1.737774  -0.955173
H    0.975402  -2.668812  0.323548
H    0.335248  0.247601  0.296047
C    -0.873571  -1.085650  1.534241
C    -2.027368  -1.242980  0.520024
C    -3.391930  -1.633038  1.125245
N    -4.096175  -0.507542  1.746322
C    -5.178902  -0.640645  2.559644
N    -5.731225  0.458818  3.080584
N    -5.663749  -1.845484  2.864238
H    -1.109734  -0.305174  2.271282
H    -0.732114  -2.016896  2.106661
H    -1.802432  -2.045059  -0.200072
H    -2.140157  -0.324488  -0.079132
H    -3.258849  -2.419386  1.882816
H    -4.001341  -2.055699  0.308671
H    -4.033149  0.386426  1.264046
H    -6.636700  0.429396  3.540557
H    -5.273668  1.362938  3.037836
H    -6.383629  -1.951486  3.573679
H    -5.487502  -2.658934  2.285989
O    1.328873  0.426234  2.871318
H    1.984589  -1.523474  -0.321849
Cd    3.497733  0.334967  3.493149
