28
Energy: -170630.708176 eV PBE+vdW (tier 2 basis)
N    0.900940  1.003341  1.786649
C    1.223061  -0.345478  2.357232
C    2.202140  -1.081145  1.417355
O    2.871788  -0.525321  0.523357
H    0.009300  0.976272  1.274613
H    0.782609  1.693651  2.537149
H    1.812854  -0.163930  3.273271
C    -0.067437  -1.151395  2.720926
C    0.124298  -2.145990  3.886591
C    -1.068966  -3.115695  4.111088
N    -2.242500  -2.577564  4.798595
C    -2.611720  -2.851575  6.078248
N    -3.884975  -2.658467  6.435014
N    -1.725206  -3.292803  6.970960
H    -0.430595  -1.671093  1.821445
H    -0.834483  -0.412634  2.999477
H    0.338224  -1.596910  4.816095
H    0.992625  -2.787812  3.690624
H    -0.702373  -3.975860  4.687219
H    -1.409636  -3.522192  3.148246
H    -2.969536  -2.165035  4.221014
H    -4.172989  -2.699710  7.409079
H    -2.024373  -3.654080  7.872171
H    -0.726794  -3.257031  6.809739
H    -4.631117  -2.583240  5.750424
O    2.313669  -2.353306  1.665252
H    2.985988  -2.786746  1.087274
Cd    2.537202  1.637746  0.282891
