17
Energy: -168062.860798 eV PBE+vdW (tier 2 basis)
N    -0.761073  0.553886  0.578359
C    -0.029890  -0.145140  1.527296
C    1.611114  -0.231084  1.237586
O    2.117370  0.497082  0.367681
H    -1.046104  0.104472  -0.288653
H    -0.665661  1.564501  0.520068
H    -0.014901  0.424629  2.472871
C    -0.627509  -1.568220  1.735321
C    -0.336382  -2.254951  3.037157
O    0.807084  -2.298277  3.602011
O    -1.336039  -2.852232  3.585203
H    -0.310591  -2.257893  0.933111
H    -1.718732  -1.483547  1.658265
O    2.289986  -1.002921  1.985013
H    1.519826  -1.813905  3.033332
H    -1.095092  -3.334955  4.411531
Cd    4.242980  -0.147122  0.826085
