17
Energy: -168062.995858 eV PBE+vdW (tier 2 basis)
N    -1.698873  0.632707  1.792465
C    -0.790564  -0.481028  2.242594
C    0.606867  -0.396491  1.608097
O    1.573378  -0.940610  2.031866
H    -2.642082  0.506258  2.180476
H    -1.364028  1.532277  2.159492
H    -0.611019  -0.377197  3.324841
C    -1.401532  -1.891709  2.046505
C    -1.704328  -2.376981  0.635985
O    -1.758585  -1.653019  -0.385841
O    -1.960904  -3.639323  0.443580
H    -2.339930  -1.965238  2.624125
H    -0.712889  -2.606351  2.524584
O    0.627571  0.381645  0.430709
H    1.544435  0.388986  0.070613
H    -1.889546  -4.206730  1.239280
Cd    -1.523970  0.489804  -0.455371
