17
Energy: -168063.029815 eV PBE+vdW (tier 2 basis)
N    -0.047114  -0.173673  0.053579
C    0.250651  0.049967  1.526849
C    1.759673  -0.095124  1.728570
O    2.203220  0.228876  2.867153
H    -1.024030  -0.446455  -0.128751
H    0.135418  0.684851  -0.490426
H    -0.107088  1.052613  1.788383
C    -0.435782  -0.987089  2.460490
C    0.218105  -2.361176  2.744430
O    1.426127  -2.597331  2.865851
O    -0.596201  -3.368896  2.965999
H    -1.477895  -1.129127  2.138611
H    -0.498329  -0.503652  3.450355
O    2.383139  -0.778400  0.861064
H    0.600284  -0.897687  -0.312361
H    -1.547856  -3.155686  2.896027
Cd    3.476175  -1.602673  2.716965
