17
Energy: -168063.324444 eV PBE+vdW (tier 2 basis)
N    0.017993  -1.390440  0.189847
C    -0.178147  -0.186130  1.094282
C    1.163795  0.526497  1.254410
O    1.122997  1.659550  1.818147
H    -0.002000  -1.112382  -0.804261
H    -0.707805  -2.111088  0.320685
H    -0.940917  0.454298  0.637119
C    -0.630089  -0.568352  2.528500
C    0.401424  -1.036018  3.570326
O    -0.051711  -2.091566  4.207524
O    1.478446  -0.502327  3.886167
H    -1.434836  -1.314746  2.492888
H    -1.078042  0.343420  2.957193
O    2.204798  -0.178804  1.096781
H    0.954954  -1.798426  0.366728
H    0.537603  -2.345331  4.953980
Cd    2.932534  1.019843  2.940684
