17
Energy: -168063.367193 eV PBE+vdW (tier 2 basis)
N    -0.683120  -0.166952  0.291764
C    -0.160313  0.005474  1.698088
C    1.381923  -0.146693  1.551008
O    1.847182  -0.607154  0.531935
H    -0.728587  0.732951  -0.206408
H    0.025684  -0.750302  -0.211485
H    -0.408593  1.016692  2.043449
C    -0.687958  -1.058319  2.670338
C    -2.206497  -1.112525  2.857512
O    -2.645244  -1.424344  4.008937
O    -2.984633  -0.902107  1.867356
H    -0.227789  -0.896476  3.652470
H    -0.396350  -2.073732  2.348213
O    2.008366  0.256019  2.642106
H    2.979751  0.143634  2.542801
H    -1.625949  -0.588500  0.282417
Cd    -4.720621  -1.372735  3.296673
