17
Energy: -168062.766574 eV PBE+vdW (tier 2 basis)
N    -0.044650  -0.708530  0.205812
C    0.261072  -0.279421  1.599925
C    1.764438  -0.427803  1.946417
O    2.519142  -1.206919  1.335434
H    -1.050733  -1.103145  0.249161
H    -0.056697  0.101446  -0.426698
H    -0.000976  0.787995  1.689694
C    -0.549188  -1.115763  2.626527
C    -2.021297  -1.254213  2.237654
O    -2.381309  -1.341858  1.062875
O    -2.812941  -1.314020  3.281997
H    -0.465242  -0.680847  3.629997
H    -0.151239  -2.142696  2.700614
O    2.266058  0.229483  2.949576
H    1.657211  0.863646  3.382892
H    -3.746401  -1.465067  3.009758
Cd    1.583033  -2.095820  -0.450729
