17
Energy: -168062.692237 eV PBE+vdW (tier 2 basis)
N    0.005563  -0.253833  0.118464
C    0.319656  -0.365479  1.497370
C    1.543456  -1.254713  1.724773
O    1.966625  -1.574816  2.880792
H    -0.260278  -1.077072  -0.415679
H    -0.375758  0.623050  -0.223146
H    0.635127  0.628171  1.863727
C    -0.943298  -0.815817  2.329768
C    -0.881787  -0.698632  3.858833
O    -1.986403  -0.521274  4.452244
O    0.212825  -0.794041  4.507524
H    -1.209206  -1.861734  2.101950
H    -1.787342  -0.202074  1.994290
O    2.169337  -1.660774  0.677594
H    2.967647  -2.198419  0.895819
H    1.338391  -1.229361  3.646711
Cd    -1.183393  -0.455295  6.492429
