17
Energy: -168063.018817 eV PBE+vdW (tier 2 basis)
N    -0.355853  0.280303  0.218349
C    0.004715  -0.245423  1.596412
C    1.522037  -0.196205  1.767310
O    1.946069  -0.046365  2.947139
H    0.313553  -0.097136  -0.477858
H    -1.314866  0.028891  -0.068164
H    -0.505906  0.374415  2.341389
C    -0.405087  -1.749389  1.708604
C    0.360599  -2.618252  2.736054
O    1.580371  -2.827625  2.700218
O    -0.328337  -3.261890  3.646270
H    -0.208097  -2.245954  0.743895
H    -1.485069  -1.803796  1.898382
O    2.209622  -0.593569  0.776997
H    -0.287636  1.310477  0.183983
H    -1.293441  -3.107735  3.620801
Cd    3.470326  -1.611750  2.414218
