17
Energy: -168061.795387 eV PBE+vdW (tier 2 basis)
N    0.537077  0.513663  0.852599
C    0.113004  -0.233811  1.947033
C    1.257490  -1.184262  2.370717
O    2.016654  -1.719662  1.629568
H    -0.120552  1.068931  0.310521
H    1.520266  0.747854  0.732743
H    -0.103171  0.474070  2.873762
C    -1.211228  -0.989564  1.636412
C    -2.034219  -1.568704  2.773644
O    -1.892134  -1.307454  3.990636
O    -3.007145  -2.385828  2.488911
H    -0.972148  -1.794697  0.923149
H    -1.881731  -0.295546  1.099849
O    1.300029  -1.361729  3.758797
H    2.025023  -1.988696  3.986957
H    -3.117986  -2.590271  1.536626
Cd    -0.332061  -0.129498  4.905010
