17
Energy: -168063.027258 eV PBE+vdW (tier 2 basis)
N    -0.209109  -0.066718  0.171711
C    0.172798  -0.087203  1.639237
C    1.693713  -0.334864  1.781839
O    2.362414  -0.612428  0.740337
H    0.191714  0.739736  -0.327993
H    -1.251385  -0.010095  0.135284
H    -0.020292  0.924129  2.026861
C    -0.638886  -1.127022  2.421446
C    -2.151485  -0.879469  2.495062
O    -2.622064  -0.214903  1.398081
O    -2.829791  -1.264250  3.403502
H    -0.270749  -1.154142  3.454623
H    -0.498558  -2.140049  2.008588
O    2.194612  -0.241809  2.939678
H    0.102207  -0.917835  -0.319778
H    -3.595591  -0.105568  1.473913
Cd    4.210576  -0.748015  2.099044
