17
Energy: -168063.343242 eV PBE+vdW (tier 2 basis)
N    -0.500200  0.333812  0.300674
C    0.054508  0.032638  1.671025
C    1.589263  -0.118691  1.561800
O    2.179218  0.379265  0.551236
H    -0.553403  -0.637842  -0.165300
H    0.107808  0.966291  -0.237784
H    -0.092648  0.910719  2.319469
C    -0.652868  -1.189856  2.270298
C    -0.682816  -2.376549  1.315624
O    -0.946956  -3.511080  1.925261
O    -0.499038  -2.249276  0.102936
H    -1.696244  -0.929617  2.515181
H    -0.181194  -1.470838  3.220118
O    2.205178  -0.683673  2.515803
H    -1.443025  0.742495  0.354813
H    -1.033143  -4.242438  1.274344
Cd    4.135559  -0.241360  1.489501
