17
Energy: -168063.342645 eV PBE+vdW (tier 2 basis)
N    0.481423  0.415159  -0.700381
C    0.543610  -0.313452  0.634747
C    1.229269  0.568733  1.700039
O    1.740434  0.087251  2.677405
H    1.403096  0.462288  -1.162018
H    0.178599  1.391659  -0.542811
H    -0.501650  -0.449548  0.952980
C    1.244795  -1.669190  0.491335
C    1.197136  -2.474998  1.790195
O    2.243725  -3.117190  2.125834
O    0.108457  -2.531608  2.451297
H    2.297070  -1.557934  0.201264
H    0.739452  -2.292004  -0.264360
O    1.124700  1.868202  1.384035
H    1.521710  2.427748  2.086463
H    -0.177648  -0.029191  -1.357143
Cd    1.162820  -3.873926  3.894116
