17
Energy: -168063.081047 eV PBE+vdW (tier 2 basis)
N    -0.124763  2.254315  1.583798
C    0.340179  0.849078  1.906859
C    1.783059  0.810244  1.274349
O    2.533938  -0.251533  1.368272
H    -0.934739  2.296906  0.951576
H    0.728925  2.656188  1.076916
H    0.433578  0.788268  2.999942
C    -0.658755  -0.217754  1.373088
C    -0.890021  -1.417649  2.275677
O    -2.148141  -1.605374  2.556119
O    -0.010814  -2.197276  2.715231
H    -0.329507  -0.604739  0.394172
H    -1.645961  0.232175  1.209410
O    2.161386  1.822272  0.704994
H    -0.337001  2.818901  2.416678
H    -2.295357  -2.416598  3.096746
Cd    2.118993  -2.062424  2.273175
