17
Energy: -168062.574692 eV PBE+vdW (tier 2 basis)
N    0.091720  -0.006602  0.130820
C    -0.414470  -0.118537  1.481319
C    0.765841  -0.364020  2.409929
O    1.329105  -1.504011  2.575051
H    0.849563  -0.623613  -0.151061
H    0.224367  0.941361  -0.215345
H    -0.823426  0.859682  1.770827
C    -1.602351  -1.108545  1.633530
C    -1.374953  -2.543375  1.187991
O    -2.379905  -3.175648  0.733886
O    -0.232880  -3.119119  1.293400
H    -2.444652  -0.714460  1.050913
H    -1.945337  -1.155918  2.682762
O    1.264460  0.675133  2.983320
H    2.080802  0.482507  3.503104
H    0.817465  -2.248541  2.087503
Cd    -1.308348  -5.042293  0.425053
