17
Energy: -168062.616576 eV PBE+vdW (tier 2 basis)
N    -0.750171  -1.887871  1.594841
C    0.075782  -0.702733  1.460641
C    1.534895  -1.152135  1.541836
O    2.095223  -1.548721  2.610568
H    -1.748783  -1.673487  1.569001
H    -0.557030  -2.616936  0.905712
H    -0.023663  -0.192971  0.480892
C    -0.303547  0.368095  2.508819
C    -0.384676  -0.107595  3.959916
O    -1.265037  0.420152  4.701448
O    0.430197  -0.982407  4.432250
H    -1.283749  0.785467  2.244791
H    0.400510  1.216788  2.487692
O    2.185427  -1.138342  0.432169
H    3.116455  -1.455899  0.519070
H    1.457291  -1.448233  3.431328
Cd    -0.653128  -0.681172  6.501028
