17
Energy: -168063.202576 eV PBE+vdW (tier 2 basis)
N    0.055227  -0.425475  0.086937
C    0.682658  -0.143836  1.441192
C    1.429578  1.218383  1.452495
O    2.136315  1.534778  2.366271
H    0.762508  -0.491580  -0.660323
H    -0.582921  0.339061  -0.182737
H    -0.161146  -0.034273  2.138946
C    1.616094  -1.262701  1.900373
C    0.942234  -2.595169  2.213827
O    1.527252  -3.368462  3.038197
O    -0.153165  -2.916731  1.640186
H    2.142374  -0.915952  2.800158
H    2.405593  -1.477816  1.159389
O    1.123501  1.926916  0.350539
H    1.562693  2.804790  0.387593
H    -0.471986  -1.315030  0.125912
Cd    -0.028810  -4.889902  2.815047
