17
Energy: -168062.837765 eV PBE+vdW (tier 2 basis)
N    -0.377305  -0.429693  -0.034595
C    0.093356  -0.018429  1.348812
C    1.631816  -0.251072  1.428311
O    2.147127  -1.241901  0.910559
H    0.231798  -0.081449  -0.789544
H    -1.332653  -0.086337  -0.216671
H    -0.171794  1.037896  1.487507
C    -0.658715  -0.891597  2.408437
C    -0.038235  -2.274763  2.275185
O    0.816905  -2.629408  3.140867
O    -0.179904  -2.878259  1.150444
H    -1.738182  -0.890873  2.202451
H    -0.492916  -0.490093  3.413878
O    2.368407  0.599305  2.101402
H    1.905619  1.394420  2.436032
H    -0.393446  -1.479678  -0.054280
Cd    1.930123  -3.657067  1.534205
