17
Energy: -168063.34199 eV PBE+vdW (tier 2 basis)
N    0.817169  -0.570660  0.178419
C    0.534346  -0.358105  1.626675
C    1.852232  -0.530542  2.431043
O    2.762741  -1.281450  2.050938
H    -0.052121  -0.679654  -0.355232
H    1.299998  0.242705  -0.221175
H    0.181584  0.674776  1.780839
C    -0.589148  -1.293120  2.158599
C    -0.443704  -2.806852  2.001192
O    0.446093  -3.387646  1.350848
O    -1.337726  -3.574419  2.565131
H    -1.535510  -1.007391  1.667305
H    -0.747262  -1.075238  3.226687
O    2.007972  0.099668  3.562559
H    1.308667  0.748736  3.782832
H    -2.031064  -3.110137  3.077292
Cd    2.122762  -2.475186  0.295104
