17
Energy: -168062.540256 eV PBE+vdW (tier 2 basis)
N    0.252148  -0.056475  0.057636
C    -0.049556  0.034442  1.438034
C    1.174549  -0.191060  2.377591
O    1.357499  0.403020  3.461457
H    0.893752  0.623479  -0.342475
H    0.308366  -0.975113  -0.375721
H    -0.375490  1.077026  1.648403
C    -1.210391  -0.941941  1.775355
C    -2.087630  -0.658591  2.977799
O    -1.934842  0.258238  3.816830
O    -3.131755  -1.416607  3.175217
H    -0.839382  -1.977136  1.863050
H    -1.872763  -0.929755  0.892316
O    2.032021  -1.053608  1.916328
H    2.810778  -1.171089  2.508967
H    -3.270809  -2.112160  2.499479
Cd    -0.299494  1.552331  4.345733
