17
Energy: -168062.061491 eV PBE+vdW (tier 2 basis)
N    -1.155816  0.277719  0.282363
C    -0.456125  0.068528  1.471755
C    1.142442  -0.019908  1.158185
O    1.813781  0.966389  1.507466
H    -1.298749  -0.458945  -0.404507
H    -1.449388  1.213127  0.012070
H    -0.541962  0.955455  2.109390
C    -0.878679  -1.175184  2.316050
C    -1.119175  -2.493204  1.610976
O    -1.903947  -3.318872  1.962874
O    -0.297850  -2.674237  0.490462
H    -1.819676  -0.906027  2.817724
H    -0.146110  -1.354616  3.120187
O    1.645284  -1.036723  0.557018
H    0.954776  -1.796758  0.414840
H    -0.445880  -3.569972  0.112427
Cd    4.001257  1.150253  1.078406
