17
Energy: -168062.400597 eV PBE+vdW (tier 2 basis)
N    0.361366  -0.686465  0.000446
C    -0.177805  -0.210004  1.192458
C    0.849409  0.109764  2.295455
O    0.509083  0.820183  3.258530
H    0.030628  -0.341235  -0.895283
H    1.050425  -1.433296  -0.021018
H    -0.734361  0.719824  1.008608
C    -1.251853  -1.288785  1.814013
C    -1.792645  -0.799262  3.119780
O    -1.215224  -1.132071  4.184077
O    -2.781300  0.065214  3.191553
H    -0.725972  -2.237332  1.967842
H    -2.028336  -1.418591  1.049529
O    2.020695  -0.436796  2.112355
H    2.673426  -0.191689  2.804878
H    -3.253962  0.214287  2.347168
Cd    -0.281574  0.435252  5.365610
