17
Energy: -168063.290227 eV PBE+vdW (tier 2 basis)
N    -0.040140  -1.092358  -0.212983
C    -0.087561  -0.369320  1.120009
C    1.208650  0.410270  1.330418
O    1.120012  1.472932  2.005702
H    0.889307  -1.532065  -0.340565
H    -0.183255  -0.436973  -0.998321
H    -0.961505  0.291039  1.117087
C    -0.146739  -1.414736  2.272392
C    0.289214  -0.960459  3.677131
O    -0.655984  -1.206398  4.550215
O    1.399136  -0.515404  4.015779
H    0.530728  -2.251399  2.031890
H    -1.167052  -1.807902  2.358944
O    2.284670  -0.219178  1.080454
H    -0.765723  -1.822794  -0.289481
H    -0.366698  -0.999441  5.468024
Cd    3.011941  0.777186  3.007306
