17
Energy: -168062.406379 eV PBE+vdW (tier 2 basis)
N    0.577584  -1.234510  0.482378
C    -0.114364  -0.328520  1.356342
C    0.939118  0.229638  2.336866
O    1.213201  -0.178484  3.495694
H    1.017294  -2.060472  0.882527
H    1.089664  -0.833591  -0.300274
H    -0.457695  0.529686  0.760550
C    -1.342498  -1.075025  1.953787
C    -2.257866  -0.270379  2.851819
O    -2.030217  -0.068092  4.073364
O    -3.350349  0.271770  2.397766
H    -1.014178  -1.968012  2.511904
H    -1.897381  -1.456749  1.086150
O    1.676800  1.142752  1.763479
H    2.441792  1.416706  2.318754
H    -3.544097  0.070077  1.459087
Cd    -0.219810  -0.691794  5.047808
