27
Energy: -605742.272982 eV PBE+vdW (tier 2 basis)
C    -0.075383  0.284149  -0.019802
C    -0.054218  -0.002963  1.450744
O    1.019609  -0.023821  2.088427
H    -0.584579  1.236112  -0.230373
H    -0.593004  -0.504225  -0.582517
H    0.957950  0.356983  -0.368253
N    -1.237172  -0.257680  2.098314
C    -1.314673  -0.231123  3.577508
C    -0.609881  -1.393333  4.307724
O    -1.225332  -2.043738  5.278495
H    -0.791686  0.676522  3.934809
C    -2.819370  -0.094885  3.868004
C    -3.405401  0.531432  2.594188
C    -2.580988  -0.137507  1.494978
H    -3.027339  0.498506  4.770467
H    -3.289846  -1.110231  3.956692
H    -3.230151  1.616421  2.611474
H    -4.482534  0.367066  2.486010
H    -2.542803  0.458246  0.578976
H    -2.975206  -1.132763  1.236469
N    0.617838  -1.656841  4.000707
C    1.492605  -2.653448  4.602553
H    0.979006  -0.982622  3.209268
H    1.830137  -3.344272  3.819118
H    0.984740  -3.204126  5.397521
H    2.376876  -2.141494  5.004484
Pb    -3.119088  -2.226089  6.204619
