27
Energy: -605742.48004 eV PBE+vdW (tier 2 basis)
C    -0.184642  0.095188  -0.240869
C    -0.191715  -0.357193  1.172822
O    0.888575  -0.940945  1.604232
H    -0.595104  1.105946  -0.352648
H    -0.800016  -0.582773  -0.853210
H    0.840019  0.058525  -0.622315
N    -1.245253  -0.179861  1.960641
C    -1.221209  -0.280923  3.453111
C    -1.084437  -1.728122  3.957975
O    -1.976797  -2.172570  4.834439
H    -0.314739  0.233392  3.811121
C    -2.494564  0.462738  3.874098
C    -3.453366  0.256239  2.696809
C    -2.539754  0.389238  1.482577
H    -2.255319  1.527175  3.995775
H    -2.887287  0.102977  4.829383
H    -4.264231  0.991400  2.677086
H    -3.910489  -0.743151  2.727421
H    -2.388173  1.442977  1.206433
H    -2.888224  -0.160556  0.601591
N    -0.063681  -2.412288  3.557935
C    0.160898  -3.731883  4.049370
H    0.703332  -1.514137  2.439855
H    0.353602  -3.737467  5.157746
H    1.059175  -4.188081  3.612201
H    -0.676565  -4.434610  3.792058
Pb    -2.087040  -4.007235  5.940361
