27
Energy: -605743.248235 eV PBE+vdW (tier 2 basis)
C    1.068502  -0.460592  0.569328
C    0.491159  -0.140114  1.906271
O    1.244816  0.434805  2.788901
H    0.519564  -1.242970  0.036828
H    2.106284  -0.785515  0.723926
H    1.117590  0.440383  -0.063188
N    -0.787762  -0.394874  2.197204
C    -1.838709  -0.187344  1.186179
C    -1.817422  1.313051  0.818667
O    -1.113789  2.156723  1.495217
H    -1.661465  -0.789174  0.285920
C    -3.126501  -0.610462  1.924572
C    -2.862042  -0.183921  3.374570
C    -1.365703  -0.435020  3.573357
H    -3.226405  -1.700472  1.838663
H    -4.030521  -0.159780  1.502593
H    -3.464709  -0.752836  4.090033
H    -3.105441  0.877744  3.518631
H    -1.150127  -1.432269  3.981916
H    -0.887594  0.286357  4.249472
N    -2.537702  1.759734  -0.190151
C    -3.422411  1.018784  -1.095457
H    -2.485781  2.769707  -0.338791
H    -3.222224  -0.054577  -1.054635
H    -4.470941  1.204156  -0.828461
H    -3.249434  1.372882  -2.117636
Pb    0.566763  2.562594  2.992069
