27
Energy: -605743.995048 eV PBE+vdW (tier 2 basis)
C    0.957126  -1.401861  2.796411
C    0.281007  -0.285482  2.072979
O    0.919373  0.295712  1.115339
H    1.966310  -1.537616  2.400376
H    0.395840  -2.340466  2.675413
H    1.013790  -1.198604  3.875504
N    -0.961204  0.069198  2.401102
C    -1.791686  1.036255  1.633154
C    -1.406818  2.491350  1.969759
O    -0.393458  3.031049  1.395411
H    -1.579623  0.912631  0.560623
C    -3.225702  0.597787  1.971881
C    -3.134163  0.034814  3.398194
C    -1.772885  -0.659461  3.424094
H    -3.510851  -0.196523  1.269159
H    -3.963916  1.398081  1.841390
H    -3.947509  -0.664148  3.618514
H    -3.179106  0.819634  4.166959
H    -1.851244  -1.712878  3.120838
H    -1.278008  -0.614510  4.400934
N    -2.128395  3.183760  2.824110
C    -1.891417  4.571091  3.233460
H    -2.939191  2.719311  3.228563
H    -1.101492  5.004469  2.617406
H    -2.818861  5.141285  3.106500
H    -1.597213  4.596612  4.290308
Pb    1.286298  2.238517  0.140617
