27
Energy: -605743.285353 eV PBE+vdW (tier 2 basis)
C    -1.363711  -0.228043  -0.307520
C    -0.731955  -0.285272  1.041731
O    0.503304  -0.666588  1.136623
H    -0.976888  -1.072272  -0.893741
H    -1.061825  0.686376  -0.843315
H    -2.456278  -0.278442  -0.275334
N    -1.393012  0.081785  2.142630
C    -2.304294  1.236240  2.117372
C    -1.442493  2.482510  1.780200
O    -0.161077  2.418577  1.707442
H    -3.087405  1.125117  1.355514
C    -2.881307  1.258611  3.546147
C    -1.702649  0.790521  4.410182
C    -0.990099  -0.250559  3.541979
H    -3.717252  0.548025  3.588604
H    -3.266998  2.241651  3.837843
H    -2.029953  0.363429  5.363639
H    -1.034085  1.630394  4.644496
H    -1.328467  -1.277500  3.737993
H    0.100476  -0.253118  3.675346
N    -2.076836  3.619542  1.581672
C    -1.473115  4.920046  1.276598
H    -3.094142  3.599951  1.651226
H    -1.807599  5.253798  0.286671
H    -1.796233  5.650699  2.027661
H    -0.385639  4.830879  1.291844
Pb    1.738530  1.134649  1.626493
