27
Energy: -605742.422266 eV PBE+vdW (tier 2 basis)
C    0.142572  -0.131968  0.064710
C    0.050781  -0.354292  1.533967
O    0.973974  -1.128614  2.093292
H    1.058825  0.420457  -0.178803
H    -0.705541  0.426211  -0.338370
H    0.173475  -1.115301  -0.429135
N    -0.947718  0.028667  2.295788
C    -1.816183  1.167982  1.958997
C    -0.891453  2.398802  1.637665
O    0.333739  2.270488  1.657518
H    -2.414285  0.931755  1.066414
C    -2.702533  1.356271  3.214379
C    -2.577996  0.032506  3.979560
C    -1.137628  -0.390466  3.706202
H    -3.737770  1.591618  2.946049
H    -2.314825  2.187545  3.818892
H    -3.274514  -0.720086  3.586956
H    -2.773578  0.145651  5.050961
H    -0.953796  -1.465562  3.801348
H    -0.420571  0.158388  4.338116
N    -1.553156  3.529061  1.353549
C    -0.891369  4.808718  1.098127
H    -2.568125  3.526097  1.397155
H    -0.884295  5.432993  2.001152
H    0.139134  4.617123  0.787079
H    -1.426756  5.335875  0.301330
Pb    2.925590  -1.875919  2.240099
