27
Energy: -605743.630909 eV PBE+vdW (tier 2 basis)
C    -0.381349  -0.376764  -0.227502
C    -0.390513  0.732104  0.772379
O    0.449259  1.713361  0.623240
H    -1.393299  -0.605485  -0.587374
H    0.015480  -1.302939  0.217760
H    0.249358  -0.095511  -1.075156
N    -1.242348  0.714430  1.788808
C    -1.539277  1.866077  2.684340
C    -0.380016  2.289019  3.585420
O    0.779046  1.724047  3.526604
H    -1.772045  2.737379  2.049409
C    -2.802717  1.390315  3.460172
C    -2.709702  -0.136094  3.433366
C    -2.175758  -0.424055  2.039109
H    -3.696082  1.741485  2.928096
H    -2.848720  1.783189  4.478976
H    -3.679265  -0.614493  3.606756
H    -2.012906  -0.504904  4.198754
H    -2.975176  -0.406163  1.283129
H    -1.636303  -1.373625  1.960965
N    -0.547745  3.279949  4.443950
C    -1.709039  4.145792  4.683125
H    0.268766  3.461159  5.030709
H    -1.340194  5.161000  4.865769
H    -2.264196  3.810673  5.568495
H    -2.373942  4.166123  3.815865
Pb    2.262685  1.967930  1.854838
