27
Energy: -605742.293559 eV PBE+vdW (tier 2 basis)
C    -0.357957  -0.166585  -0.139977
C    -0.184769  -0.532446  1.301835
O    0.913300  -0.825215  1.796521
H    0.619129  -0.202718  -0.628496
H    -0.778502  0.843185  -0.250056
H    -1.037191  -0.865001  -0.649913
N    -1.310685  -0.543453  2.109595
C    -1.146623  -0.605306  3.570966
C    -0.843705  -2.049978  4.026400
O    -1.719741  -2.763749  4.693811
H    -0.278657  0.000634  3.873503
C    -2.456305  -0.005242  4.094166
C    -3.489488  -0.316144  2.998378
C    -2.669662  -0.146286  1.715489
H    -2.345270  1.084424  4.186637
H    -2.702241  -0.312387  5.131968
H    -4.381507  0.318853  3.030583
H    -3.860990  -1.378415  3.019296
H    -2.703196  0.914875  1.414552
H    -3.040380  -0.745873  0.875923
N    0.321637  -2.530757  3.712932
C    0.848696  -3.858138  4.005693
H    0.855049  -1.873740  3.064433
H    0.158132  -4.422979  4.635516
H    1.813571  -3.742570  4.515620
H    1.023291  -4.389354  3.060818
Pb    -3.795937  -2.677631  5.175807
