27
Energy: -605743.293729 eV PBE+vdW (tier 2 basis)
C    0.974941  -0.601399  0.577956
C    0.440147  -0.169467  1.898297
O    1.231341  0.409740  2.744064
H    1.128636  0.264864  -0.084590
H    0.341127  -1.335975  0.072544
H    1.969822  -1.036336  0.748881
N    -0.842739  -0.337500  2.230092
C    -1.925032  -0.119507  1.258546
C    -1.807619  1.331558  0.759762
O    -1.026921  2.176302  1.342514
H    -1.847288  -0.815565  0.413182
C    -3.233681  -0.349944  2.080486
C    -2.749064  -0.916621  3.425233
C    -1.371569  -0.283940  3.611475
H    -3.913602  -1.028154  1.555817
H    -3.762611  0.601674  2.224826
H    -2.646961  -2.008472  3.376358
H    -3.429759  -0.679524  4.249609
H    -0.698001  -0.820923  4.287169
H    -1.478273  0.758148  3.972725
N    -2.536085  1.739369  -0.259412
C    -3.520401  0.982692  -1.040763
H    -2.430894  2.727881  -0.496168
H    -3.458148  1.308066  -2.084224
H    -3.318026  -0.090861  -0.995942
H    -4.532667  1.179582  -0.664705
Pb    0.632307  2.568273  2.872636
