21
Energy: -568332.335614 eV PBE+vdW (tier 2 basis)
N    1.783338  -1.868534  0.819478
C    0.635399  -1.043640  1.119918
C    1.189647  -0.012981  2.133990
O    1.203326  -0.117485  3.399847
H    2.221471  -2.368451  1.590353
H    2.451519  -1.538065  0.128317
H    0.347358  -0.492341  0.212474
C    -0.540516  -1.995845  1.508393
C    -1.932337  -1.492534  1.764807
N    -2.364041  -1.062074  3.022098
C    -3.050704  -1.501328  0.967289
C    -3.674747  -0.795271  2.985590
N    -4.102564  -1.066737  1.743919
H    -0.229148  -2.639208  2.351774
H    -0.588371  -2.688466  0.657478
H    -3.184218  -1.809974  -0.063386
H    -4.290473  -0.435125  3.802131
H    -5.071004  -0.983265  1.434940
O    1.886661  1.000725  1.684334
H    1.916993  1.062373  0.707747
Hg    -0.718590  -0.620776  4.251510
