21
Energy: -568333.09465 eV PBE+vdW (tier 2 basis)
N    -1.015161  0.307829  1.309097
C    0.300721  0.035804  2.031203
C    1.345710  0.169121  0.896828
O    0.982998  0.165565  -0.263512
H    -1.230081  1.312753  1.315636
H    -0.833727  0.056862  0.308108
H    0.448117  0.822350  2.782613
C    0.430316  -1.377798  2.679435
C    -0.298171  -1.706155  3.955276
N    -1.695332  -1.849916  4.041617
C    0.196617  -2.056530  5.186271
C    -2.022689  -2.237375  5.279010
N    -0.885383  -2.376719  5.976343
H    1.501663  -1.508850  2.886042
H    0.197877  -2.140820  1.914664
H    1.215315  -2.112039  5.553276
H    -3.020443  -2.430619  5.657018
H    -0.834930  -2.706442  6.940149
O    2.580102  0.254501  1.361049
H    3.219957  0.338061  0.619840
Hg    -2.529730  -0.835728  2.386409
