21
Energy: -568333.192439 eV PBE+vdW (tier 2 basis)
N    -0.311283  1.054256  1.237973
C    0.623340  0.076701  1.920622
C    2.009643  0.412920  1.192418
O    3.146858  -0.158328  1.529916
H    -1.052207  0.606730  0.684497
H    -0.746548  1.726571  1.881303
H    0.703546  0.400345  2.968025
C    0.072200  -1.396228  1.841926
C    0.110714  -2.256549  3.084057
N    1.293031  -2.729382  3.670816
C    -0.921307  -2.835852  3.779256
C    0.985517  -3.542314  4.685551
N    -0.351729  -3.621164  4.756747
H    0.556944  -1.929535  1.007182
H    -0.988039  -1.348801  1.557758
H    -1.995484  -2.772236  3.648647
H    1.682266  -4.056252  5.338581
H    -0.863124  -4.191891  5.429562
O    1.974116  1.275697  0.330877
H    0.361220  1.563582  0.570008
Hg    2.914711  -1.710977  2.857847
