21
Energy: -568332.122906 eV PBE+vdW (tier 2 basis)
N    0.640465  0.135169  0.203893
C    -0.042288  -0.046432  1.397411
C    0.926816  0.025752  2.594131
O    2.089457  -0.268777  2.520625
H    0.219838  0.641909  -0.570460
H    1.624467  -0.117401  0.126705
H    -0.874865  0.661089  1.488380
C    -0.779399  -1.539369  1.540921
C    0.059356  -2.674057  1.920502
N    0.255472  -3.078885  3.235922
C    0.876641  -3.484932  1.127236
C    1.127870  -4.078490  3.243571
N    1.534814  -4.324389  1.970991
H    -1.264635  -1.695679  0.571733
H    -1.547521  -1.351201  2.309184
H    1.085572  -3.442570  0.062721
H    1.428258  -4.670484  4.102705
H    2.164388  -5.077820  1.692109
O    0.266928  0.389524  3.725206
H    0.938958  0.611604  4.409412
Hg    -0.841193  -2.068550  5.043892
