21
Energy: -568332.196863 eV PBE+vdW (tier 2 basis)
N    -0.170458  -0.737685  0.131311
C    -0.110424  -0.030980  1.326976
C    1.308993  0.469017  1.828581
O    2.256198  -0.307496  1.807362
H    -0.445719  -0.262823  -0.723210
H    0.347029  -1.603553  0.010822
H    -0.768561  0.846629  1.256340
C    -0.575613  -0.881675  2.606565
C    0.033294  -2.219397  2.852880
N    1.210286  -2.490815  3.566137
C    -0.510620  -3.444157  2.518569
C    1.361983  -3.812654  3.639314
N    0.330727  -4.406410  3.006907
H    -1.654325  -1.024029  2.461990
H    -0.452829  -0.240236  3.492201
H    -1.407438  -3.682827  1.956212
H    2.152999  -4.346179  4.155379
H    0.171517  -5.412765  2.967470
O    1.367567  1.592955  2.513567
H    0.601636  2.189712  2.387699
Hg    2.900026  -1.049566  3.995822
