21
Energy: -568332.896008 eV PBE+vdW (tier 2 basis)
N    -0.107455  -0.035405  0.361015
C    0.119737  0.187501  1.841733
C    1.602884  0.771717  1.886705
O    2.269354  0.900601  3.024093
H    0.056432  -1.007614  0.067981
H    -1.041754  0.250728  0.041122
H    -0.476838  1.079052  2.094010
C    -0.472787  -0.942707  2.736178
C    0.099945  -2.336415  2.823339
N    1.201937  -2.655310  3.632198
C    -0.401755  -3.532819  2.370330
C    1.371467  -3.979487  3.638788
N    0.403904  -4.524258  2.884303
H    -1.529400  -1.046292  2.445903
H    -0.536187  -0.525241  3.754848
H    -1.275279  -3.760805  1.769906
H    2.142435  -4.531829  4.165162
H    0.273114  -5.525960  2.744453
O    2.006337  1.240020  0.838273
H    0.635601  0.576670  -0.082112
Hg    2.299306  -0.908148  4.017771
