21
Energy: -568333.160106 eV PBE+vdW (tier 2 basis)
N    0.839876  -1.265985  -0.294759
C    0.448683  -0.538399  0.946375
C    1.731461  -0.113059  1.696536
O    2.763610  -0.782448  1.638148
H    0.023669  -1.669981  -0.766017
H    1.321730  -0.658502  -0.967617
H    -0.110140  0.366269  0.655355
C    -0.483708  -1.415358  1.846744
C    0.102356  -2.469623  2.749983
N    1.026390  -3.456382  2.372379
C    -0.258824  -2.750865  4.044894
C    1.228960  -4.273083  3.411169
N    0.447278  -3.868818  4.423502
H    -1.235692  -1.871221  1.180144
H    -1.056475  -0.731083  2.486743
H    -0.967168  -2.265474  4.706715
H    1.900920  -5.123281  3.443064
H    0.379303  -4.333727  5.328043
O    1.704452  0.956668  2.457094
H    0.883516  1.483462  2.385847
Hg    2.191009  -2.905289  0.636101
