21
Energy: -568332.31506 eV PBE+vdW (tier 2 basis)
N    0.494564  0.128227  0.198564
C    0.249950  -0.259481  1.585450
C    1.567278  -0.246988  2.424056
O    2.535505  0.426941  2.084842
H    0.923244  -0.635942  -0.339534
H    -0.418089  0.346995  -0.262491
H    -0.378490  0.525913  2.038529
C    -0.553513  -1.618838  1.626323
C    -1.896109  -1.406867  1.018489
N    -2.061305  -0.663915  -0.118295
C    -3.136103  -1.963346  1.387208
C    -3.339490  -0.755986  -0.455913
N    -4.005782  -1.566467  0.426005
H    -0.682042  -1.979858  2.656484
H    0.028301  -2.381667  1.086119
H    -3.415064  -2.637544  2.190302
H    -3.826746  -0.245832  -1.281325
H    -5.001096  -1.785764  0.395194
O    1.629059  -0.908485  3.554007
H    0.826860  -1.422635  3.766880
Hg    2.194265  1.782280  0.084801
