25
Energy: -243758.880368 eV PBE+vdW (tier 2 basis)
C    -0.205926  0.080871  -0.146705
C    -0.067473  -0.026790  1.337294
O    1.062429  -0.226026  1.877875
H    -0.456112  1.112295  -0.434288
H    0.740945  -0.203420  -0.612431
H    -1.013756  -0.558339  -0.522626
N    -1.148558  0.084657  2.145921
C    -2.310725  0.985563  1.972687
C    -3.135615  0.668098  0.691337
O    -3.154185  1.438226  -0.261875
H    -0.891304  -0.018619  3.126816
H    -2.945637  0.767227  2.840118
C    -1.897655  2.488145  2.003219
C    -0.488215  2.655138  2.535629
O    0.438210  3.007504  1.725633
O    -0.214107  2.313010  3.740409
H    -2.598884  3.036229  2.645342
H    -1.961116  2.893216  0.987694
N    -3.814550  -0.509449  0.696251
C    -3.979244  -1.457938  1.790950
H    -4.371605  -0.651955  -0.141700
H    -4.522560  -2.328007  1.409994
H    -4.562739  -1.037688  2.623833
H    -3.011420  -1.810848  2.168471
Ba    2.149788  1.753297  3.035126
