25
Energy: -243759.726725 eV PBE+vdW (tier 2 basis)
C    0.498406  -0.455691  0.820744
C    -0.073005  -0.168063  2.180505
O    0.315395  -0.838164  3.184624
H    0.342562  -1.516795  0.588014
H    1.581887  -0.279739  0.839883
H    0.053970  0.155929  0.029183
N    -0.981882  0.800183  2.264497
C    -1.777083  1.209286  3.414696
C    -3.041174  1.853193  2.780354
O    -3.011015  2.211234  1.601846
H    -1.318533  1.273744  1.413721
H    -2.047034  0.324990  4.010407
C    -1.050002  2.229943  4.332230
C    0.023108  1.512147  5.124084
O    -0.352458  0.650888  5.994746
O    1.250712  1.662978  4.813451
H    -1.779065  2.655622  5.034042
H    -0.619360  3.038115  3.730681
N    -4.099289  1.993489  3.603254
C    -5.349162  2.623323  3.195734
H    -4.030191  1.629464  4.547383
H    -5.569156  3.490728  3.830623
H    -6.180319  1.909815  3.259533
H    -5.239569  2.953996  2.159098
Ba    1.576255  -0.770612  5.310671
