25
Energy: -243759.605044 eV PBE+vdW (tier 2 basis)
C    -2.682044  1.246261  1.384433
C    -2.233378  0.340590  2.504177
O    -3.056971  -0.036075  3.355777
H    -3.563148  0.804701  0.904222
H    -1.915849  1.437194  0.625176
H    -2.993100  2.204098  1.822140
N    -0.915400  0.004767  2.478869
C    -0.025139  -0.756972  3.378124
C    -0.508209  -2.197673  3.640202
O    -1.695844  -2.470975  3.913451
H    -0.414520  0.423249  1.703711
H    0.899763  -0.829452  2.793309
C    0.379605  -0.021006  4.694822
C    -0.719545  -0.111972  5.745570
O    -1.612507  0.789665  5.777361
O    -0.811120  -1.201399  6.402542
H    0.602065  1.023397  4.445298
H    1.289398  -0.498574  5.080868
N    0.416509  -3.169246  3.581998
C    1.845728  -3.065692  3.302794
H    0.052898  -4.086536  3.828821
H    2.035244  -2.621462  2.316946
H    2.262521  -4.076840  3.293785
H    2.373448  -2.490264  4.074885
Ba    -3.248406  -1.186789  5.608720
