25
Energy: -243759.110908 eV PBE+vdW (tier 2 basis)
C    -0.273689  0.445977  0.214517
C    -0.207030  0.461297  1.708144
O    0.628861  1.190691  2.320937
H    0.584740  0.991291  -0.185227
H    -1.198319  0.929618  -0.132125
H    -0.280412  -0.578496  -0.176025
N    -1.047221  -0.307936  2.442703
C    -2.463042  -0.608531  2.134142
C    -2.636844  -1.436108  0.822366
O    -3.289886  -1.011643  -0.121786
H    -0.886081  -0.188994  3.442304
H    -2.787543  -1.251333  2.962333
C    -3.349859  0.673343  2.104741
C    -2.615714  1.858619  2.697793
O    -2.285714  1.851676  3.936745
O    -2.214703  2.790608  1.916755
H    -4.264619  0.485430  2.680745
H    -3.630980  0.884746  1.067414
N    -2.008435  -2.638071  0.845879
C    -2.067635  -3.583727  -0.260307
H    -1.506253  -2.907439  1.684634
H    -1.057317  -3.871598  -0.577468
H    -2.584630  -3.096926  -1.092545
H    -2.623718  -4.486643  0.023935
Ba    -0.281961  3.297150  3.410398
