25
Energy: -243759.516626 eV PBE+vdW (tier 2 basis)
C    0.612629  0.617046  0.839581
C    -0.050262  0.978852  2.146275
O    0.218715  1.975983  2.800677
H    1.652164  0.958611  0.858420
H    0.102190  1.151903  0.025888
H    0.579237  -0.456775  0.617781
N    -1.020679  0.085654  2.600865
C    -1.915166  0.504907  3.667739
C    -1.282046  0.357358  5.064481
O    -1.802764  0.929733  6.064021
H    -1.348696  -0.634677  1.965109
H    -2.101106  1.585299  3.566205
C    -3.269197  -0.239085  3.563663
C    -4.207565  0.280790  4.639404
O    -4.478703  -0.453329  5.644411
O    -4.549305  1.513058  4.593720
H    -3.141118  -1.322923  3.675536
H    -3.696348  -0.018730  2.575927
N    -0.190214  -0.389101  5.152495
C    0.588885  -0.606023  6.360051
H    0.156766  -0.745973  4.263347
H    1.557461  -0.094990  6.285047
H    0.759318  -1.678775  6.508555
H    0.037877  -0.204216  7.214118
Ba    -4.019068  1.601404  7.019683
