25
Energy: -243759.056003 eV PBE+vdW (tier 2 basis)
C    1.060887  0.005410  0.371844
C    -0.119084  -0.154530  1.304431
O    -1.266452  0.133603  0.981666
H    1.320234  1.071732  0.316534
H    0.763120  -0.310371  -0.633552
H    1.953156  -0.551829  0.682169
N    0.191336  -0.660332  2.553212
C    -0.661906  -0.669030  3.733025
C    -1.351288  -2.005612  4.087791
O    -1.521529  -2.258390  5.322486
H    1.172275  -0.841228  2.733642
H    0.017731  -0.528771  4.585559
C    -1.673321  0.512947  3.819798
C    -2.228280  0.541799  5.230569
O    -3.424091  0.146725  5.440884
O    -1.427067  0.780067  6.202224
H    -2.476446  0.421692  3.086332
H    -1.113439  1.436074  3.622921
N    -1.765683  -2.895489  3.190336
C    -1.796394  -2.847280  1.728760
H    -2.155219  -3.730516  3.623596
H    -2.022287  -1.836709  1.373514
H    -2.586830  -3.525332  1.392421
H    -0.841354  -3.180997  1.302932
Ba    -2.494068  -1.138632  7.363904
