25
Energy: -243759.511391 eV PBE+vdW (tier 2 basis)
C    0.107213  0.572666  0.045821
C    -0.543585  0.574305  1.404001
O    -0.648225  1.602636  2.087329
H    -0.530397  1.144149  -0.642223
H    1.068407  1.095219  0.107212
H    0.260064  -0.429987  -0.369482
N    -1.018749  -0.625473  1.854488
C    -1.899040  -0.777024  3.014543
C    -1.140515  -0.690723  4.371157
O    -1.297912  -1.526404  5.310748
H    -0.869373  -1.447953  1.280336
H    -2.584263  0.086866  3.024903
C    -2.718148  -2.062118  2.818220
C    -3.555815  -2.417601  4.030330
O    -3.492453  -3.608307  4.488691
O    -4.171817  -1.492226  4.658421
H    -2.065824  -2.917489  2.599172
H    -3.381692  -1.911775  1.954130
N    -0.351914  0.366051  4.495816
C    0.427764  0.654004  5.688817
H    -0.366890  1.037209  3.698163
H    0.922612  -0.254512  6.050499
H    1.185486  1.401747  5.438052
H    -0.206164  1.055073  6.492931
Ba    -3.135769  -2.538333  6.692926
