25
Energy: -243759.206579 eV PBE+vdW (tier 2 basis)
C    -0.111209  0.425412  0.055005
C    -0.649671  -0.144751  1.343668
O    -1.823363  -0.475459  1.504202
H    0.982166  0.387498  -0.017741
H    -0.428924  1.474190  -0.024264
H    -0.555209  -0.114473  -0.788135
N    0.252011  -0.297816  2.370843
C    -0.211304  -0.660684  3.702193
C    -1.202144  -1.845226  3.646037
O    -2.277516  -1.855111  4.309126
H    1.202206  0.039638  2.265087
H    0.657121  -1.042297  4.263760
C    -0.755823  0.585572  4.435424
C    -1.378117  0.271975  5.777784
O    -2.525199  0.769907  6.048057
O    -0.843859  -0.609664  6.532914
H    -1.503169  1.090479  3.814377
H    0.087460  1.276540  4.580111
N    -0.841484  -2.966147  3.004507
C    0.346109  -3.257499  2.212002
H    -1.575079  -3.669774  2.998583
H    0.251059  -2.888359  1.182086
H    0.475163  -4.344609  2.185381
H    1.240612  -2.822095  2.668110
Ba    -3.195838  -1.526246  6.616886
