25
Energy: -243759.158585 eV PBE+vdW (tier 2 basis)
C    0.166060  -2.599932  0.534232
C    -0.026821  -1.799310  1.780381
O    -0.022175  -2.320638  2.920604
H    1.033433  -3.254883  0.688912
H    0.338043  -1.978209  -0.349308
H    -0.710533  -3.240756  0.379511
N    -0.144082  -0.430622  1.726976
C    -0.994353  0.461455  0.929075
C    -1.531937  1.473227  1.992501
O    -1.548618  1.162035  3.206257
H    -0.020892  -0.034804  2.661453
H    -0.400641  1.000975  0.174493
C    -2.198944  -0.232758  0.217476
C    -3.032497  -0.950742  1.277092
O    -2.769680  -2.176347  1.522050
O    -3.759414  -0.249066  2.044654
H    -1.835192  -0.931449  -0.543104
H    -2.795641  0.542085  -0.279157
N    -1.959795  2.648777  1.538723
C    -2.604257  3.647233  2.386754
H    -1.901230  2.830716  0.542322
H    -2.569252  4.615915  1.880390
H    -2.071361  3.717088  3.340342
H    -3.650148  3.374150  2.579820
Ba    -2.372075  -1.420138  3.921552
