25
Energy: -243759.225553 eV PBE+vdW (tier 2 basis)
C    0.349245  -1.143782  0.505685
C    -0.045042  -0.454469  1.775795
O    0.779688  -0.331759  2.734361
H    -0.233070  -0.805654  -0.358163
H    0.200105  -2.226190  0.628565
H    1.414634  -0.967242  0.325795
N    -1.288980  0.021368  1.926868
C    -2.532132  -0.453863  1.337180
C    -3.595768  0.521978  1.909010
O    -3.315576  1.216792  2.887209
H    -1.507455  0.601381  2.753849
H    -2.501381  -0.379485  0.242086
C    -2.846326  -1.947543  1.739422
C    -2.050243  -2.328026  2.980632
O    -1.009771  -3.059559  2.837301
O    -2.340009  -1.790766  4.099058
H    -2.575814  -2.622185  0.920752
H    -3.917350  -2.056358  1.950133
N    -4.808027  0.538933  1.313299
C    -5.201852  -0.098961  0.061922
H    -5.460982  1.189343  1.741116
H    -4.672516  0.325236  -0.803701
H    -6.272836  0.069637  -0.083601
H    -5.042337  -1.184487  0.083907
Ba    0.117795  -1.782337  4.701517
