25
Energy: -243758.884887 eV PBE+vdW (tier 2 basis)
C    -0.841397  -2.050826  -0.062696
C    -0.481596  -1.354719  1.211600
O    0.106462  -1.971794  2.154445
H    -0.926835  -1.363311  -0.910400
H    -1.803639  -2.567559  0.067685
H    -0.080110  -2.808753  -0.274400
N    -0.805193  -0.061092  1.385696
C    -1.989629  0.630901  0.841391
C    -1.841936  2.138827  1.167668
O    -1.603123  2.937992  0.274160
H    -0.463086  0.336616  2.260136
H    -1.970228  0.577685  -0.251755
C    -3.327304  -0.015437  1.361629
C    -3.074043  -0.858276  2.596911
O    -3.176871  -2.128517  2.509437
O    -2.607950  -0.306345  3.658016
H    -3.761549  -0.654704  0.586694
H    -4.049373  0.780671  1.587337
N    -1.951743  2.448528  2.489712
C    -1.854563  3.822434  2.964324
H    -2.278534  1.726783  3.133370
H    -1.280076  4.401365  2.234629
H    -1.344007  3.846810  3.933788
H    -2.846355  4.284317  3.070184
Ba    -1.333320  -2.490595  4.158438
