25
Energy: -243758.992190 eV PBE+vdW (tier 2 basis)
C    -0.330688  -1.256957  0.522739
C    -0.252246  0.169133  0.958677
O    0.727771  0.904312  0.614228
H    -0.740667  -1.887503  1.318350
H    -0.985487  -1.336500  -0.357901
H    0.669830  -1.587806  0.229859
N    -1.220627  0.732006  1.714123
C    -2.673853  0.506488  1.669737
C    -3.096684  -0.801012  2.394299
O    -2.269474  -1.545968  2.905120
H    -0.983020  1.686032  1.974672
H    -3.080827  1.337808  2.261006
C    -3.233392  0.633152  0.213970
C    -2.337195  1.540813  -0.620272
O    -1.726680  1.034533  -1.623518
O    -2.096395  2.731177  -0.224485
H    -4.243272  1.064756  0.247904
H    -3.296991  -0.344846  -0.275172
N    -4.436597  -1.015465  2.415498
C    -5.037991  -2.163899  3.081481
H    -5.057489  -0.322389  2.013788
H    -5.734717  -2.674526  2.405777
H    -5.574918  -1.858219  3.989241
H    -4.234083  -2.850792  3.361268
Ba    0.239244  2.544836  -1.230110
