25
Energy: -243759.134869 eV PBE+vdW (tier 2 basis)
C    -0.267909  0.568083  -0.227766
C    -0.083445  0.220356  1.228997
O    0.956432  0.423996  1.845039
H    0.596978  0.203715  -0.793598
H    -0.281363  1.661782  -0.325959
H    -1.188075  0.163491  -0.665773
N    -1.172350  -0.373527  1.847028
C    -1.199240  -0.541275  3.288479
C    -1.459302  -2.004700  3.688067
O    -2.361951  -2.338695  4.512084
H    -2.049629  -0.426853  1.339574
H    -0.169448  -0.308552  3.615044
C    -2.158409  0.487749  3.923245
C    -2.397903  0.256529  5.397906
O    -3.603044  0.230339  5.827345
O    -1.420619  -0.081407  6.149754
H    -3.130829  0.486723  3.415954
H    -1.705184  1.478562  3.775890
N    -0.681162  -2.958826  3.165356
C    0.480697  -2.840484  2.286667
H    -0.950193  -3.898506  3.447298
H    1.156211  -3.674203  2.504851
H    1.016533  -1.902253  2.464069
H    0.186762  -2.888724  1.230121
Ba    -2.972559  -1.876318  6.935330
