25
Energy: -243758.743861 eV PBE+vdW (tier 2 basis)
C    0.365840  -0.275973  0.906464
C    -0.249902  0.543485  1.995001
O    0.176138  1.724395  2.209644
H    0.139413  -1.342462  0.980818
H    0.040070  0.095810  -0.074534
H    1.450478  -0.119859  0.965456
N    -1.213927  0.061961  2.806740
C    -2.420050  -0.746298  2.493371
C    -2.305256  -1.534853  1.165303
O    -1.872368  -2.682622  1.195787
H    -1.380926  0.692410  3.593795
H    -2.507494  -1.527011  3.258205
C    -3.664085  0.204380  2.613424
C    -3.281273  1.622664  2.230886
O    -3.079458  2.471116  3.165223
O    -3.005306  1.905713  1.010525
H    -4.019252  0.212259  3.649756
H    -4.470529  -0.175946  1.974057
N    -2.711867  -0.886080  0.047238
C    -2.662053  -1.509571  -1.265526
H    -2.975342  0.098295  0.123163
H    -2.568030  -2.591597  -1.131821
H    -3.580077  -1.288269  -1.822152
H    -1.799085  -1.155362  -1.849351
Ba    -1.337659  3.689414  1.840529
