25
Energy: -243759.493216 eV PBE+vdW (tier 2 basis)
C    0.045102  0.479436  -0.004378
C    -0.036837  0.006406  1.423131
O    0.972187  -0.191019  2.114702
H    -0.916119  0.464148  -0.530641
H    0.428921  1.508640  -0.004402
H    0.770559  -0.137445  -0.546492
N    -1.290758  -0.198474  1.926910
C    -1.584037  -0.401318  3.347019
C    -1.268015  -1.844705  3.837043
O    -2.071173  -2.532702  4.535376
H    -2.083892  -0.068143  1.308539
H    -0.898215  0.242738  3.922313
C    -3.028656  0.058314  3.597584
C    -3.506720  -0.241696  5.004200
O    -4.629341  -0.832363  5.154850
O    -2.715908  -0.049602  5.988054
H    -3.723870  -0.422816  2.897323
H    -3.072546  1.143940  3.427071
N    -0.060347  -2.284456  3.517222
C    0.449368  -3.591933  3.897633
H    0.553306  -1.600389  3.024635
H    0.767195  -3.605864  4.950337
H    -0.320005  -4.358348  3.751356
H    1.314626  -3.825256  3.270534
Ba    -3.402952  -2.369772  6.659318
