25
Energy: -243759.202793 eV PBE+vdW (tier 2 basis)
C    -1.490803  -1.120028  -0.556715
C    -0.848137  -0.943152  0.786319
O    -0.002454  -1.781299  1.210979
H    -2.389416  -1.745934  -0.448442
H    -0.788658  -1.647126  -1.210529
H    -1.786821  -0.172521  -1.018862
N    -1.184405  0.120806  1.554625
C    -2.567482  0.632163  1.649719
C    -2.706082  2.168626  1.616996
O    -3.774602  2.670926  1.941001
H    -0.671335  0.143818  2.438720
H    -3.111084  0.255332  0.774916
C    -3.242660  0.059284  2.933153
C    -2.724722  -1.343230  3.177224
O    -3.028107  -2.290177  2.371137
O    -1.857145  -1.519187  4.106157
H    -4.328566  0.064312  2.786742
H    -3.006809  0.687994  3.798934
N    -1.613153  2.852898  1.194025
C    -1.605072  4.301966  1.055590
H    -0.790020  2.326129  0.925226
H    -2.564491  4.678056  1.424243
H    -1.486185  4.596058  0.004526
H    -0.792556  4.743015  1.646428
Ba    -0.858235  -3.468728  2.920886
