25
Energy: -243759.102750 eV PBE+vdW (tier 2 basis)
C    -0.200821  -0.744753  0.131747
C    -0.306510  0.090504  1.367316
O    0.674001  0.779553  1.780289
H    -0.806258  -0.309404  -0.676449
H    0.844374  -0.779839  -0.185329
H    -0.574264  -1.761538  0.301663
N    -1.461950  0.130940  2.074555
C    -2.835074  0.105472  1.523453
C    -3.171376  -1.230925  0.790159
O    -3.477859  -1.253117  -0.394613
H    -1.383154  0.743133  2.885958
H    -3.480705  0.154836  2.409498
C    -3.129859  1.331993  0.607228
C    -2.059022  2.393645  0.754980
O    -1.235347  2.578617  -0.207537
O    -1.902043  2.991187  1.878667
H    -4.103887  1.755206  0.883173
H    -3.181780  0.991393  -0.432586
N    -3.092629  -2.326298  1.586366
C    -3.400356  -3.670552  1.117348
H    -2.846310  -2.200544  2.562029
H    -4.308319  -4.056315  1.599215
H    -2.567175  -4.353144  1.327035
H    -3.566653  -3.621231  0.037162
Ba    0.556486  3.284758  1.378105
