25
Energy: -243759.454734 eV PBE+vdW (tier 2 basis)
C    -1.996304  0.356083  -0.100273
C    -1.133529  -0.311336  0.943654
O    -0.340037  -1.216167  0.683451
H    -2.719831  1.066737  0.316104
H    -2.522668  -0.414480  -0.675508
H    -1.343245  0.892501  -0.800928
N    -1.256357  0.160501  2.225071
C    -0.437596  -0.412736  3.275372
C    -0.854378  -1.872791  3.540232
O    -2.052683  -2.157056  3.846787
H    -2.001173  0.794373  2.504540
H    0.602904  -0.406795  2.928911
C    -0.510985  0.444085  4.565303
C    -1.900954  0.388262  5.169947
O    -2.888004  0.832586  4.478149
O    -2.090315  -0.259275  6.249774
H    -0.255061  1.476542  4.291224
H    0.220339  0.083025  5.296310
N    0.058920  -2.835515  3.469678
C    1.434600  -2.731501  2.978574
H    -0.301809  -3.768175  3.657761
H    1.437241  -2.286604  1.975539
H    1.847953  -3.742324  2.923120
H    2.060597  -2.145288  3.662451
Ba    -4.036630  -1.322651  5.102758
