25
Energy: -243759.686859 eV PBE+vdW (tier 2 basis)
C    1.342828  -1.346441  1.813069
C    0.704538  -0.105517  2.370197
O    1.431202  0.846988  2.787336
H    1.957593  -1.077451  0.944308
H    0.614664  -2.106048  1.511605
H    2.014107  -1.770542  2.570825
N    -0.624779  -0.067300  2.400123
C    -1.491691  0.949924  2.980873
C    -2.804133  0.183694  3.289194
O    -3.005806  -0.899957  2.734850
H    -1.180966  -0.886977  2.115077
H    -1.029604  1.341045  3.897598
C    -1.771743  2.133550  2.013868
C    -0.550066  3.026369  1.958409
O    0.183157  3.037986  0.915326
O    -0.206631  3.635366  3.032050
H    -2.617156  2.719816  2.395488
H    -2.025434  1.752396  1.018739
N    -3.688019  0.744650  4.141847
C    -3.595761  1.998180  4.876929
H    -4.543205  0.203259  4.243828
H    -3.972627  1.850488  5.895803
H    -2.556960  2.334774  4.950672
H    -4.185793  2.794221  4.399569
Ba    2.171284  3.177526  2.430417
