25
Energy: -243759.282452 eV PBE+vdW (tier 2 basis)
C    -0.267833  -1.510311  -0.181319
C    0.148183  -0.494954  0.860789
O    1.307657  -0.268499  1.155241
H    -0.757932  -2.375082  0.289594
H    -0.962636  -1.091927  -0.922890
H    0.633741  -1.860748  -0.689815
N    -0.873453  0.229695  1.489239
C    -2.297666  -0.034617  1.428976
C    -3.018054  0.821102  0.358632
O    -4.224404  0.603576  0.050123
H    -0.528974  0.780130  2.273765
H    -2.473041  -1.076929  1.125252
C    -2.928376  0.138973  2.835952
C    -4.413462  -0.161672  2.784684
O    -5.249941  0.791248  2.922279
O    -4.783518  -1.333388  2.427790
H    -2.771847  1.157582  3.212537
H    -2.431045  -0.574827  3.505728
N    -2.285919  1.763055  -0.221967
C    -2.743040  2.671900  -1.260782
H    -1.318478  1.807548  0.101763
H    -2.050214  2.644942  -2.109924
H    -3.736852  2.360746  -1.593505
H    -2.793822  3.698693  -0.876459
Ba    -6.438076  -0.192237  0.961315
