25
Energy: -243759.632804 eV PBE+vdW (tier 2 basis)
C    0.117106  -0.291160  0.181794
C    -0.026840  -0.032352  1.654724
O    1.005929  0.055127  2.386360
H    -0.843751  -0.374353  -0.335908
H    0.685509  -1.219159  0.038939
H    0.697601  0.522089  -0.272854
N    -1.261947  0.093930  2.132167
C    -1.685407  0.240814  3.518464
C    -3.137635  -0.300565  3.523390
O    -3.751659  -0.366405  2.455527
H    -2.079388  -0.039340  1.519787
H    -1.028196  -0.356683  4.164265
C    -1.665769  1.718422  4.002684
C    -0.233859  2.126399  4.276516
O    0.386993  1.524494  5.222253
O    0.362831  2.928532  3.485189
H    -2.242840  1.801122  4.932555
H    -2.122517  2.365757  3.246262
N    -3.688450  -0.637056  4.709330
C    -3.056030  -0.759436  6.016468
H    -4.649656  -0.959757  4.624745
H    -3.726756  -0.360011  6.786595
H    -2.123197  -0.189298  6.060254
H    -2.833213  -1.809114  6.256201
Ba    2.420582  1.532997  3.774528
