33
Energy: -21828.9014707 eV PBE+vdW (tier 2 basis)
C    -0.990130  1.572829  -0.562123
C    -0.452295  1.654085  0.854174
O    0.483780  2.394486  1.146766
H    -0.704062  0.614958  -1.017959
H    -0.541373  2.388189  -1.135400
H    -2.083660  1.654545  -0.614084
N    -1.016469  0.846965  1.813676
C    -2.213120  0.020269  1.761940
C    -2.135202  -1.011633  0.604116
O    -1.142888  -1.718428  0.468400
H    -0.578692  0.964473  2.721723
H    -2.158356  -0.617248  2.658043
C    -3.523896  0.846197  1.884643
C    -3.574275  1.658585  3.154856
C    -3.033819  2.951316  3.218164
C    -4.119427  1.118286  4.325690
C    -3.034651  3.681608  4.402595
C    -4.128789  1.836521  5.520463
C    -3.583737  3.124197  5.561709
O    -3.563736  3.884967  6.700909
H    -4.380330  0.153982  1.876342
H    -3.627424  1.514497  1.015695
H    -2.594674  3.397488  2.325245
H    -4.550953  0.115480  4.308272
H    -2.611943  4.684333  4.444559
H    -4.564916  1.397116  6.420196
H    -3.969223  3.379367  7.423120
N    -3.233368  -1.102493  -0.199926
C    -3.303693  -2.029382  -1.314042
H    -3.990523  -0.444527  -0.067488
H    -4.233719  -2.611771  -1.278688
H    -2.447958  -2.707740  -1.234815
H    -3.248429  -1.504628  -2.279145
