33
Energy: -21829.3185823 eV PBE+vdW (tier 2 basis)
C    0.793661  -2.648132  1.843249
C    0.026899  -2.128983  3.040470
O    -0.290652  -2.866971  3.982704
H    0.244265  -3.490056  1.405055
H    1.761695  -3.032022  2.189280
H    0.968729  -1.889941  1.070576
N    -0.291954  -0.806889  3.016606
C    -0.878185  -0.112096  4.162244
C    -2.425184  -0.275306  4.181411
O    -3.188639  0.651687  3.916118
H    0.038030  -0.241802  2.242294
H    -0.477311  -0.608410  5.060126
C    -0.485571  1.371373  4.155528
C    1.002143  1.595390  4.043038
C    1.570342  2.093701  2.862659
C    1.869415  1.281943  5.098224
C    2.946395  2.267793  2.724960
C    3.246873  1.450268  4.979830
C    3.792049  1.941673  3.787809
O    5.138651  2.127740  3.609682
H    -0.882254  1.819414  5.077247
H    -1.016913  1.871725  3.333761
H    0.917950  2.368638  2.031079
H    1.464188  0.898576  6.036292
H    3.376600  2.661019  1.804815
H    3.901961  1.201891  5.817896
H    5.600069  1.870207  4.423552
N    -2.815808  -1.530264  4.523472
C    -4.204765  -1.943685  4.511993
H    -2.072926  -2.231888  4.600158
H    -4.429975  -2.586700  3.647494
H    -4.828439  -1.045567  4.451172
H    -4.450342  -2.493327  5.430206
