33
Energy: -21829.0444304 eV PBE+vdW (tier 2 basis)
C    0.893676  -0.139320  0.422966
C    0.426281  0.040856  1.855264
O    1.203654  0.046710  2.806108
H    0.091380  -0.053648  -0.320577
H    1.358695  -1.128979  0.330116
H    1.666020  0.608204  0.206262
N    -0.926538  0.196947  2.017781
C    -1.532881  0.295431  3.342325
C    -2.919469  -0.374083  3.304207
O    -3.088258  -1.526886  3.684058
H    -1.532063  0.147457  1.207276
H    -0.927532  -0.327465  4.012842
C    -1.511141  1.747150  3.883031
C    -2.060174  1.861833  5.282670
C    -3.306917  2.446269  5.540482
C    -1.342628  1.349466  6.372278
C    -3.830558  2.519796  6.828799
C    -1.852019  1.411633  7.666821
C    -3.102042  1.995536  7.899675
O    -3.656605  2.086933  9.150104
H    -2.055631  2.419601  3.200031
H    -0.461180  2.071846  3.852511
H    -3.885551  2.867020  4.715669
H    -0.364354  0.894712  6.208571
H    -4.798512  2.981097  7.019918
H    -1.274486  1.006250  8.500511
H    -3.051245  1.679562  9.789825
N    -3.916688  0.387228  2.754962
C    -5.296498  -0.062457  2.717377
H    -3.733375  1.373805  2.615099
H    -5.778544  0.263511  1.787442
H    -5.872966  0.318616  3.574328
H    -5.295348  -1.156238  2.763676
