33
Energy: -21829.1429185 eV PBE+vdW (tier 2 basis)
C    -1.713148  0.733503  -1.294570
C    -0.793003  0.493840  -0.110175
O    0.428735  0.452199  -0.235504
H    -2.370743  1.599835  -1.133489
H    -2.347629  -0.139395  -1.495892
H    -1.083190  0.925234  -2.166990
N    -1.369533  0.337517  1.126424
C    -2.767824  0.296783  1.494280
C    -2.924690  1.052787  2.824761
O    -2.093277  0.934445  3.721613
H    -0.714344  0.241579  1.901031
H    -3.357967  0.785046  0.706148
C    -3.306195  -1.156176  1.691142
C    -3.277036  -1.966394  0.425017
C    -2.124582  -2.665167  0.034998
C    -4.376978  -1.984134  -0.441531
C    -2.061142  -3.343363  -1.178312
C    -4.332453  -2.662468  -1.658634
C    -3.167941  -3.342106  -2.033160
O    -3.056903  -4.026630  -3.214812
H    -4.334886  -1.091487  2.077418
H    -2.697942  -1.628351  2.475700
H    -1.251116  -2.665315  0.687244
H    -5.291720  -1.456908  -0.163135
H    -1.160292  -3.877058  -1.477445
H    -5.204623  -2.667775  -2.316108
H    -3.890817  -3.945154  -3.704239
N    -4.058678  1.800340  2.936050
C    -4.408532  2.525915  4.143862
H    -4.668501  1.867849  2.130424
H    -5.375163  2.189432  4.543308
H    -4.455244  3.607826  3.958557
H    -3.626645  2.326752  4.884018
