33
Energy: -21829.0974564 eV PBE+vdW (tier 2 basis)
C    0.079961  1.538859  -1.033696
C    0.637904  1.474959  0.371287
O    1.773056  1.869101  0.624297
H    -0.979770  1.292966  -1.128682
H    0.666084  0.852433  -1.660202
H    0.239690  2.553590  -1.413960
N    -0.105651  0.875899  1.381634
C    -1.542445  0.621009  1.496999
C    -2.102581  -0.339876  0.418245
O    -3.272974  -0.284634  0.048177
H    0.397288  0.937183  2.264021
H    -1.641354  0.031298  2.424383
C    -2.428425  1.877331  1.714328
C    -2.304336  2.971972  0.688049
C    -3.100584  2.984925  -0.468089
C    -1.363850  3.996952  0.847710
C    -2.951999  3.970515  -1.438241
C    -1.200613  4.990138  -0.117143
C    -1.993749  4.975963  -1.268223
O    -1.883163  5.920177  -2.256567
H    -2.169696  2.279099  2.704903
H    -3.465373  1.520737  1.768437
H    -3.834844  2.192643  -0.613305
H    -0.732857  4.017247  1.737436
H    -3.571629  3.976131  -2.334121
H    -0.454848  5.774981  0.026240
H    -1.188382  6.550563  -2.008232
N    -1.221406  -1.290967  0.006815
C    -1.552160  -2.288912  -0.990054
H    -0.264344  -1.201480  0.331073
H    -1.275390  -3.292991  -0.642669
H    -1.042174  -2.090854  -1.944700
H    -2.633962  -2.251031  -1.155580
