33
Energy: -21828.6309173 eV PBE+vdW (tier 2 basis)
C    -0.689585  0.328570  -0.195136
C    -0.173350  0.205934  1.221375
O    1.001077  0.465082  1.485694
H    0.173770  0.515955  -0.838710
H    -1.391645  1.167498  -0.279960
H    -1.208956  -0.572168  -0.542331
N    -1.008119  -0.174934  2.253146
C    -2.387955  -0.638274  2.421457
C    -2.506433  -2.108964  2.903513
O    -3.298620  -2.367229  3.809433
H    -0.481680  -0.167588  3.124402
H    -2.780647  -0.101289  3.298304
C    -3.392966  -0.399845  1.286060
C    -3.683688  1.041033  0.920192
C    -3.399579  2.122275  1.763837
C    -4.291328  1.319788  -0.310995
C    -3.708080  3.431101  1.399696
C    -4.610081  2.621721  -0.689457
C    -4.317827  3.687166  0.169202
O    -4.598270  4.991557  -0.142775
H    -4.324900  -0.872408  1.636751
H    -3.107141  -0.956089  0.382160
H    -2.914427  1.956854  2.725159
H    -4.519082  0.500270  -0.995204
H    -3.475997  4.265109  2.060451
H    -5.082865  2.810180  -1.655799
H    -5.015624  5.021962  -1.018250
N    -1.750725  -3.093337  2.334516
C    -0.848555  -3.059913  1.193208
H    -1.932249  -3.997748  2.758573
H    0.085909  -2.525911  1.408396
H    -1.318636  -2.605366  0.311209
H    -0.599388  -4.093730  0.930790
