33
Energy: -21829.3752844 eV PBE+vdW (tier 2 basis)
C    -0.017523  1.389153  0.381839
C    -0.558579  1.177744  1.783100
O    -0.987169  2.106929  2.470462
H    0.808232  2.109882  0.428786
H    -0.805844  1.834958  -0.237502
H    0.335981  0.467806  -0.096763
N    -0.543594  -0.110395  2.230128
C    -0.974036  -0.466241  3.562009
C    -0.267102  -1.779601  3.927337
O    0.135889  -2.551286  3.053337
H    -0.133097  -0.871498  1.693002
H    -0.675097  0.341421  4.247653
C    -2.526301  -0.616122  3.641812
C    -3.045514  -0.777601  5.045714
C    -3.445145  -2.027101  5.541977
C    -3.091897  0.317907  5.920141
C    -3.872300  -2.189256  6.857312
C    -3.513635  0.172101  7.241249
C    -3.905249  -1.085062  7.715012
O    -4.331560  -1.293710  9.001017
H    -2.823219  -1.469436  3.015925
H    -2.940873  0.292594  3.184677
H    -3.416249  -2.895920  4.882362
H    -2.796662  1.305199  5.560164
H    -4.187537  -3.161975  7.232799
H    -3.547399  1.040439  7.903091
H    -4.321275  -0.447069  9.475234
N    -0.149117  -2.016028  5.259068
C    0.313870  -3.281679  5.795938
H    -0.599579  -1.362228  5.890540
H    -0.514625  -3.849440  6.245033
H    1.087897  -3.120352  6.557327
H    0.737308  -3.862133  4.970218
