33
Energy: -21828.8602848 eV PBE+vdW (tier 2 basis)
C    -0.732271  -0.114858  -0.062412
C    -0.403012  -0.086064  1.420655
O    0.753868  -0.062436  1.826768
H    0.042610  -0.682935  -0.586589
H    -0.710698  0.917342  -0.439085
H    -1.716660  -0.545894  -0.286573
N    -1.510124  -0.111549  2.239399
C    -1.540024  0.214398  3.655144
C    -1.440759  1.749323  3.858223
O    -1.023810  2.497472  2.982195
H    -2.400041  -0.030838  1.762976
H    -2.531753  -0.110455  4.009243
C    -0.483245  -0.551677  4.496651
C    -0.705627  -2.042953  4.494193
C    -0.036941  -2.877075  3.586987
C    -1.608245  -2.635416  5.385697
C    -0.261329  -4.250865  3.564279
C    -1.845057  -4.009743  5.375911
C    -1.170457  -4.822566  4.459245
O    -1.355160  -6.181399  4.397667
H    -0.534535  -0.176349  5.527433
H    0.508079  -0.304111  4.103866
H    0.674358  -2.435721  2.888409
H    -2.134276  -2.014889  6.114972
H    0.264530  -4.894860  2.860377
H    -2.547059  -4.451725  6.086768
H    -1.999820  -6.438345  5.075706
N    -1.865996  2.244949  5.064923
C    -2.434984  1.551622  6.206467
H    -1.727963  3.247979  5.143475
H    -3.098182  2.238225  6.746334
H    -1.671807  1.186769  6.912505
H    -3.042190  0.695709  5.887602
