33
Energy: -21829.1337744 eV PBE+vdW (tier 2 basis)
C    0.486947  1.749342  3.342924
C    -0.400522  0.634350  2.826792
O    -0.047685  -0.114523  1.914606
H    0.895174  2.303863  2.490600
H    1.331068  1.298818  3.881842
H    -0.027411  2.444714  4.017766
N    -1.605075  0.508535  3.460412
C    -2.541551  -0.563335  3.163576
C    -3.777450  0.040025  2.467900
O    -4.616733  0.668776  3.115007
H    -1.866255  1.182732  4.170859
H    -1.995452  -1.241579  2.498020
C    -2.966941  -1.321475  4.438590
C    -1.790762  -1.869514  5.204361
C    -1.122744  -3.024852  4.780361
C    -1.294533  -1.209993  6.336703
C    -0.002118  -3.504600  5.454710
C    -0.175400  -1.673691  7.023966
C    0.478103  -2.826287  6.580092
O    1.576510  -3.246261  7.286304
H    -3.645494  -2.132496  4.133595
H    -3.562453  -0.642112  5.064475
H    -1.480317  -3.564194  3.901365
H    -1.801462  -0.312834  6.696574
H    0.501662  -4.408551  5.105275
H    0.200412  -1.156480  7.905836
H    1.927929  -4.047764  6.867224
N    -3.881713  -0.122838  1.120105
C    -2.972215  -0.806138  0.208077
H    -4.719617  0.299607  0.730906
H    -3.112381  -0.391250  -0.796712
H    -3.167435  -1.889046  0.158980
H    -1.926089  -0.642948  0.494908
