33
Energy: -21829.366975 eV PBE+vdW (tier 2 basis)
C    -2.563585  -1.421375  0.684844
C    -1.518935  -1.150955  1.746718
O    -0.329333  -1.461286  1.584720
H    -3.573067  -1.102365  0.970792
H    -2.573909  -2.495225  0.460985
H    -2.271010  -0.898984  -0.234698
N    -1.969258  -0.555680  2.880238
C    -1.117696  -0.108029  3.978136
C    -0.703224  -1.260314  4.942790
O    -0.894327  -1.215662  6.159454
H    -2.964196  -0.374965  2.986306
H    -0.180449  0.251158  3.522489
C    -1.791278  1.065240  4.723264
C    -3.280112  0.910730  4.941046
C    -4.193552  1.559360  4.094704
C    -3.798868  0.104599  5.966062
C    -5.571443  1.413420  4.249171
C    -5.172968  -0.047269  6.134086
C    -6.065861  0.603946  5.274806
O    -7.426707  0.488271  5.393559
H    -1.610961  1.981106  4.143955
H    -1.275779  1.171180  5.686064
H    -3.817814  2.207287  3.300051
H    -3.107375  -0.415226  6.628664
H    -6.271134  1.927082  3.591168
H    -5.555496  -0.676423  6.941319
H    -7.625068  -0.088562  6.148374
N    -0.079927  -2.285290  4.317654
C    0.405111  -3.443326  5.043925
H    0.087518  -2.192989  3.309822
H    0.706499  -4.210729  4.323345
H    -0.381700  -3.847992  5.693666
H    1.267230  -3.193234  5.680237
