33
Energy: -21829.0914118 eV PBE+vdW (tier 2 basis)
C    -0.902020  -1.280401  0.364014
C    -0.849537  -0.731690  1.776243
O    0.044876  -1.051218  2.553423
H    -0.571062  -2.323792  0.395742
H    -0.178997  -0.726911  -0.251397
H    -1.882145  -1.219241  -0.119906
N    -1.847592  0.132730  2.192067
C    -2.847868  0.843285  1.392496
C    -3.955857  -0.075584  0.813473
O    -4.614116  0.258085  -0.168541
H    -1.628638  0.534697  3.099765
H    -3.383637  1.476462  2.118775
C    -2.274126  1.797394  0.320441
C    -1.455763  2.908735  0.925183
C    -0.081620  2.763520  1.166224
C    -2.060298  4.112234  1.310409
C    0.665311  3.772486  1.768393
C    -1.327905  5.133644  1.913583
C    0.041138  4.964859  2.146242
O    0.818537  5.930461  2.732551
H    -3.130000  2.197816  -0.236929
H    -1.676841  1.226481  -0.402844
H    0.423334  1.840779  0.877049
H    -3.126383  4.260440  1.128063
H    1.732333  3.650755  1.949538
H    -1.820072  6.066774  2.196908
H    0.261852  6.699137  2.934486
N    -4.169471  -1.217247  1.521358
C    -5.191517  -2.181788  1.168448
H    -3.536484  -1.406082  2.291355
H    -5.890209  -2.339966  2.001411
H    -4.749178  -3.148843  0.889737
H    -5.743377  -1.782923  0.310619
