33
Energy: -21829.07694 eV PBE+vdW (tier 2 basis)
C    0.135433  0.373566  0.513628
C    0.050325  -0.028688  1.978790
O    1.055249  -0.169306  2.671092
H    1.193152  0.437196  0.245684
H    -0.332201  1.353796  0.340878
H    -0.357892  -0.352890  -0.147150
N    -1.202365  -0.209081  2.504113
C    -2.477686  -0.148587  1.818384
C    -3.517219  0.306846  2.857036
O    -3.477112  -0.157547  3.998102
H    -1.246718  -0.471688  3.487910
H    -2.405610  0.569407  0.992587
C    -2.897477  -1.534336  1.237304
C    -4.162039  -1.488045  0.422522
C    -4.136572  -1.102224  -0.926049
C    -5.407794  -1.764986  0.999016
C    -5.303191  -0.987509  -1.676222
C    -6.587155  -1.653914  0.263154
C    -6.538324  -1.262619  -1.079415
O    -7.658937  -1.137506  -1.858000
H    -3.000656  -2.228271  2.083039
H    -2.059467  -1.895822  0.624574
H    -3.178392  -0.889175  -1.404529
H    -5.458841  -2.066907  2.046129
H    -5.274689  -0.695196  -2.725055
H    -7.547505  -1.879713  0.732011
H    -8.436447  -1.379994  -1.330268
N    -4.468856  1.209515  2.493373
C    -4.761316  1.793826  1.194762
H    -5.134438  1.386491  3.241415
H    -5.155039  2.807272  1.340538
H    -5.495650  1.203641  0.627306
H    -3.852709  1.876393  0.590510
