33
Energy: -21829.3564821 eV PBE+vdW (tier 2 basis)
C    -0.215981  -0.404958  -0.748550
C    -0.830352  -0.745228  0.592769
O    -1.639146  -1.675904  0.721863
H    -1.019400  -0.185601  -1.462560
H    0.320495  -1.286505  -1.121513
H    0.475570  0.445339  -0.711423
N    -0.443140  0.034053  1.634513
C    -0.825392  -0.190555  3.025207
C    -2.240383  0.368907  3.366586
O    -2.431592  1.178202  4.275211
H    0.182968  0.817150  1.466016
H    -0.894449  -1.282312  3.158747
C    0.266994  0.359952  3.968737
C    0.874326  1.678815  3.544218
C    0.212920  2.902396  3.748392
C    2.121950  1.710504  2.905948
C    0.773534  4.105043  3.332056
C    2.695788  2.910488  2.480894
C    2.019157  4.114460  2.693895
O    2.523236  5.328834  2.305765
H    1.065534  -0.391622  4.034647
H    -0.186632  0.454405  4.963408
H    -0.761793  2.896328  4.235629
H    2.666822  0.777911  2.746382
H    0.258129  5.050391  3.497733
H    3.673032  2.908287  1.992934
H    3.390672  5.190250  1.893454
N    -3.217737  -0.162637  2.592586
C    -4.613067  0.203091  2.728958
H    -2.931858  -0.858237  1.894434
H    -4.696412  0.938249  3.536275
H    -5.227301  -0.673233  2.980100
H    -4.999490  0.645738  1.799690
