33
Energy: -21829.0462388 eV PBE+vdW (tier 2 basis)
C    0.165579  -0.476920  0.662444
C    -0.089112  -0.751947  2.131689
O    0.743844  -1.307352  2.843720
H    1.230337  -0.640663  0.476232
H    -0.099674  0.545840  0.364216
H    -0.413310  -1.168146  0.035252
N    -1.291552  -0.345235  2.669387
C    -2.487738  0.148601  1.996278
C    -3.080625  1.265348  2.883071
O    -3.987417  1.040065  3.681714
H    -1.402564  -0.622677  3.642855
H    -2.175005  0.569839  1.031941
C    -3.544004  -0.950199  1.734888
C    -3.037096  -2.016420  0.801933
C    -3.187321  -1.888835  -0.587140
C    -2.330162  -3.126517  1.280994
C    -2.645060  -2.817686  -1.470663
C    -1.775432  -4.063903  0.411024
C    -1.927787  -3.909825  -0.970538
O    -1.406655  -4.794551  -1.878440
H    -4.437936  -0.465399  1.316585
H    -3.848694  -1.371777  2.701971
H    -3.742188  -1.038936  -0.989517
H    -2.193943  -3.257294  2.354830
H    -2.770337  -2.713653  -2.547639
H    -1.220544  -4.916060  0.809088
H    -0.937451  -5.494808  -1.397488
N    -2.527231  2.508359  2.759440
C    -1.373319  2.900450  1.966744
H    -2.901591  3.180288  3.422124
H    -0.454465  2.385889  2.284033
H    -1.221766  3.977928  2.088916
H    -1.531455  2.712652  0.895100
