33
Energy: -21829.0335538 eV PBE+vdW (tier 2 basis)
C    -0.338341  -0.194714  -0.065680
C    -0.567494  -0.599767  1.380234
O    -0.383710  -1.745862  1.779552
H    -0.937755  -0.846041  -0.713617
H    -0.588286  0.852457  -0.278765
H    0.715695  -0.366652  -0.317280
N    -0.995064  0.407374  2.204610
C    -1.247677  0.208841  3.616860
C    -2.609664  -0.399300  4.028480
O    -2.695830  -0.901109  5.148989
H    -1.165911  1.327127  1.812967
H    -0.531148  -0.546172  3.968279
C    -1.003909  1.523039  4.401967
C    -1.889084  2.659915  3.955773
C    -3.188749  2.805695  4.462485
C    -1.466873  3.571779  2.975386
C    -4.040267  3.803662  3.993912
C    -2.307015  4.574137  2.493916
C    -3.604500  4.688756  3.000712
O    -4.395188  5.688514  2.498598
H    0.054070  1.795153  4.280816
H    -1.167133  1.296022  5.463088
H    -3.543097  2.122332  5.235026
H    -0.446321  3.510146  2.590881
H    -5.046865  3.900182  4.406989
H    -1.967643  5.281213  1.738157
H    -5.253214  5.667578  2.951549
N    -3.692788  -0.374375  3.196622
C    -3.924368  0.280448  1.917298
H    -4.486414  -0.844952  3.620544
H    -3.438956  -0.242204  1.081551
H    -5.005173  0.278362  1.734468
H    -3.599683  1.328527  1.927136
