33
Energy: -21829.0290951 eV PBE+vdW (tier 2 basis)
C    -0.110700  -0.010651  4.430383
C    -0.566667  -0.578524  3.100875
O    -0.407974  -1.759455  2.796068
H    -0.966343  0.328872  5.031742
H    0.556949  0.852117  4.299299
H    0.418104  -0.798069  4.973082
N    -1.177979  0.290482  2.229002
C    -1.603596  1.651534  2.489298
C    -2.822505  1.853032  3.424468
O    -2.912131  2.923540  4.028423
H    -1.519913  -0.158596  1.382395
H    -0.801325  2.178254  3.024340
C    -1.818640  2.421604  1.158873
C    -2.898843  1.847308  0.277929
C    -4.242561  2.218251  0.449345
C    -2.606724  0.890397  -0.703378
C    -5.258202  1.641851  -0.305698
C    -3.614310  0.300109  -1.467283
C    -4.947049  0.670843  -1.264867
O    -5.984926  0.132457  -1.977522
H    -0.857170  2.430219  0.626023
H    -2.054631  3.459255  1.427972
H    -4.497687  2.971727  1.195744
H    -1.569207  0.604774  -0.888278
H    -6.297938  1.936493  -0.169584
H    -3.360775  -0.442822  -2.226363
H    -5.631431  -0.514656  -2.608564
N    -3.762638  0.877601  3.589044
C    -3.988910  -0.386293  2.893381
H    -4.481252  1.172805  4.243186
H    -5.006269  -0.715447  3.132333
H    -3.292572  -1.174086  3.209096
H    -3.932840  -0.271109  1.804542
