33
Energy: -21829.3075186 eV PBE+vdW (tier 2 basis)
C    -0.173191  1.124109  0.337917
C    -0.308563  0.831301  1.817651
O    0.348270  1.442639  2.667184
H    -0.398288  2.184349  0.168302
H    -0.829386  0.514398  -0.295024
H    0.869212  0.959185  0.038249
N    -1.207398  -0.138687  2.154181
C    -1.447914  -0.529636  3.543345
C    -0.381742  -1.572873  3.972740
O    -0.588766  -2.785001  3.925812
H    -1.637249  -0.690917  1.420491
H    -1.310498  0.381735  4.142006
C    -2.875446  -1.060893  3.725718
C    -3.296934  -1.120691  5.175544
C    -3.131371  -2.284010  5.940684
C    -3.845778  0.004559  5.802852
C    -3.499775  -2.327240  7.282518
C    -4.218684  -0.022521  7.145781
C    -4.045225  -1.193242  7.891022
O    -4.393730  -1.286916  9.215032
H    -2.937261  -2.061729  3.274146
H    -3.554381  -0.395089  3.172428
H    -2.690591  -3.165493  5.475435
H    -3.991051  0.923988  5.232196
H    -3.369894  -3.234202  7.871651
H    -4.649700  0.865724  7.613250
H    -4.754065  -0.433083  9.502383
N    0.787655  -1.002345  4.363334
C    1.966715  -1.784145  4.680733
H    0.883071  -0.001994  4.183423
H    2.460162  -1.383648  5.575379
H    2.689688  -1.788513  3.850568
H    1.650912  -2.814885  4.872212
