33
Energy: -21828.8753713 eV PBE+vdW (tier 2 basis)
C    0.352474  0.237693  0.936306
C    -0.318694  -0.148516  2.235559
O    0.326836  -0.509920  3.217283
H    0.300032  1.325338  0.788376
H    -0.117189  -0.258214  0.079240
H    1.404197  -0.051512  1.010820
N    -1.695243  -0.055489  2.350654
C    -2.778299  0.185632  1.398189
C    -3.015429  -1.034223  0.475599
O    -2.128633  -1.455875  -0.266192
H    -1.991815  -0.375233  3.268350
H    -3.662579  0.338276  2.030267
C    -2.635874  1.467609  0.541649
C    -3.934470  1.812200  -0.144842
C    -4.230132  1.321196  -1.422676
C    -4.913984  2.577659  0.505441
C    -5.461335  1.572825  -2.027109
C    -6.146367  2.842206  -0.085164
C    -6.425663  2.334016  -1.358309
O    -7.652615  2.619239  -1.898231
H    -1.844652  1.325165  -0.203606
H    -2.323219  2.281452  1.211002
H    -3.487926  0.722805  -1.952804
H    -4.706728  2.980938  1.498613
H    -5.669759  1.181517  -3.025376
H    -6.898291  3.445231  0.422074
H    -7.703427  2.227396  -2.784610
N    -4.242051  -1.630779  0.518048
C    -5.454948  -1.185237  1.189695
H    -4.327565  -2.393685  -0.147388
H    -6.222768  -1.953583  1.049122
H    -5.838087  -0.238170  0.782744
H    -5.303241  -1.073479  2.271855
