33
Energy: -21828.9927746 eV PBE+vdW (tier 2 basis)
C    0.059647  0.127936  0.367147
C    -0.015999  0.036800  1.883799
O    0.996472  -0.038278  2.576993
H    1.115215  0.162268  0.085639
H    -0.441071  1.030732  -0.011183
H    -0.408018  -0.739444  -0.119407
N    -1.261051  0.057951  2.451987
C    -2.551003  0.058250  1.802089
C    -3.545625  0.679313  2.802332
O    -3.279674  0.742066  3.999949
H    -1.299501  0.064334  3.471751
H    -2.505947  0.681315  0.895493
C    -3.022971  -1.372139  1.372646
C    -3.266308  -2.311994  2.523003
C    -4.557169  -2.503266  3.035014
C    -2.208331  -2.987917  3.144377
C    -4.794944  -3.331647  4.127128
C    -2.428613  -3.818243  4.241206
C    -3.724410  -3.990856  4.738370
O    -4.005343  -4.795478  5.811960
H    -2.248905  -1.777718  0.705992
H    -3.934357  -1.280334  0.765228
H    -5.399998  -1.988797  2.569414
H    -1.191131  -2.861427  2.772623
H    -5.800870  -3.476205  4.518660
H    -1.588783  -4.333896  4.711891
H    -3.174980  -5.171912  6.144377
N    -4.742125  1.125731  2.319413
C    -5.234294  1.151191  0.954503
H    -5.364329  1.449051  3.054118
H    -5.934167  1.987580  0.841719
H    -5.758214  0.223896  0.672762
H    -4.414869  1.312850  0.244269
