33
Energy: -21828.8419477 eV PBE+vdW (tier 2 basis)
C    1.288010  -0.226052  0.020939
C    1.068456  0.401137  1.388244
O    1.972122  1.007267  1.964427
H    2.109446  -0.949110  0.098087
H    1.608123  0.558612  -0.675620
H    0.406503  -0.732207  -0.391268
N    -0.187289  0.223834  1.900460
C    -0.743718  0.659666  3.188749
C    -1.619121  1.937192  3.042619
O    -2.844250  1.803957  3.063479
H    -0.853769  -0.242169  1.296080
H    -1.515960  -0.085253  3.422760
C    0.247055  0.640220  4.374160
C    -0.470583  0.852641  5.685730
C    -1.149892  -0.197974  6.319522
C    -0.503875  2.110564  6.296623
C    -1.838809  -0.008785  7.512782
C    -1.190156  2.320177  7.492254
C    -1.863437  1.258717  8.103345
O    -2.555689  1.396460  9.279196
H    1.043928  1.377702  4.248186
H    0.739875  -0.343306  4.366311
H    -1.136863  -1.193607  5.871532
H    0.020064  2.947538  5.833630
H    -2.360478  -0.831122  8.000482
H    -1.200044  3.311147  7.951552
H    -2.496645  2.320751  9.568470
N    -1.059644  3.168055  2.871847
C    0.326144  3.600897  2.811985
H    -1.772993  3.889650  2.810731
H    0.641720  4.086714  3.749536
H    0.446324  4.326524  1.996313
H    0.997608  2.760665  2.607706
