33
Energy: -21828.4760766 eV PBE+vdW (tier 2 basis)
C    -0.081967  -0.047514  0.527053
C    -0.403771  -0.285844  1.987478
O    0.422812  -0.750142  2.769688
H    -0.578138  -0.803015  -0.097546
H    0.999922  -0.144533  0.404774
H    -0.393167  0.947132  0.185770
N    -1.667583  0.022873  2.437031
C    -2.816234  0.581184  1.736106
C    -3.144131  -0.282559  0.475532
O    -3.330070  -1.482178  0.669681
H    -1.812544  -0.274259  3.396674
H    -3.677498  0.278156  2.350289
C    -2.880159  2.147907  1.773357
C    -1.639977  2.977121  1.521744
C    -1.588356  3.916784  0.480833
C    -0.524961  2.906013  2.372728
C    -0.464838  4.706776  0.250349
C    0.611244  3.679325  2.150912
C    0.652872  4.576016  1.078208
O    1.742842  5.359098  0.805452
H    -3.229420  2.381130  2.791861
H    -3.693086  2.480721  1.112468
H    -2.457441  4.054004  -0.163217
H    -0.533086  2.229852  3.225400
H    -0.443872  5.431631  -0.562319
H    1.467068  3.588419  2.823121
H    2.436972  5.165768  1.455649
N    -3.326070  0.231270  -0.777152
C    -2.985002  1.511359  -1.369580
H    -3.626269  -0.500466  -1.414780
H    -3.757512  2.276248  -1.197986
H    -2.888260  1.371436  -2.452036
H    -2.027232  1.890792  -0.999307
