33
Energy: -21829.1772977 eV PBE+vdW (tier 2 basis)
C    -0.020381  0.066057  0.038706
C    0.042429  0.020838  1.558494
O    1.111795  0.029079  2.162734
H    1.004740  0.040673  -0.339565
H    -0.503700  0.989616  -0.311849
H    -0.577832  -0.782569  -0.381596
N    -1.151393  -0.009117  2.230304
C    -2.489549  -0.050148  1.684716
C    -3.422252  0.622774  2.708470
O    -3.208103  0.528597  3.916092
H    -1.100432  0.001923  3.248911
H    -2.521369  0.509188  0.738016
C    -2.978148  -1.510708  1.416682
C    -4.334411  -1.577372  0.766457
C    -4.489375  -1.331066  -0.604357
C    -5.492924  -1.812631  1.521996
C    -5.749802  -1.312709  -1.201748
C    -6.757978  -1.800345  0.942468
C    -6.891158  -1.546585  -0.426926
O    -8.157262  -1.544600  -0.949803
H    -2.979667  -2.042677  2.378115
H    -2.221718  -1.996204  0.783726
H    -3.608147  -1.154958  -1.224742
H    -5.400573  -2.002347  2.592515
H    -5.845017  -1.126362  -2.273735
H    -7.651728  -1.990878  1.535267
H    -8.103881  -1.376667  -1.904138
N    -4.484777  1.281308  2.173102
C    -5.579146  1.782833  2.984470
H    -4.634614  1.189920  1.174368
H    -6.453432  1.116428  2.930938
H    -5.873537  2.786663  2.654014
H    -5.233658  1.831045  4.021899
