33
Energy: -21828.9129001 eV PBE+vdW (tier 2 basis)
C    -0.491787  -1.264911  0.605163
C    -0.437313  -0.754564  2.032746
O    0.589211  -0.827313  2.704982
H    -1.089370  -2.185717  0.558969
H    0.531484  -1.487472  0.291747
H    -0.934882  -0.544087  -0.094351
N    -1.584206  -0.233691  2.583010
C    -2.847941  0.124110  1.956009
C    -3.481073  -1.094165  1.230507
O    -3.586951  -2.172467  1.803753
H    -1.448466  0.066419  3.542995
H    -3.542705  0.296384  2.792757
C    -2.770584  1.457992  1.161367
C    -2.313548  2.610733  2.020414
C    -3.241232  3.387293  2.729290
C    -0.953941  2.904381  2.181745
C    -2.837236  4.419571  3.570771
C    -0.532290  3.933852  3.021147
C    -1.474252  4.695125  3.720753
O    -1.124586  5.720338  4.559486
H    -3.770182  1.691080  0.762341
H    -2.088324  1.343715  0.304719
H    -4.308317  3.183015  2.620088
H    -0.204355  2.315616  1.652118
H    -3.563652  5.021462  4.115020
H    0.533641  4.142752  3.133594
H    -0.157108  5.794948  4.575968
N    -3.935920  -0.873242  -0.036314
C    -4.561825  -1.915753  -0.828013
H    -3.761721  0.025336  -0.467545
H    -5.512555  -1.566060  -1.251241
H    -4.751090  -2.766363  -0.165182
H    -3.907527  -2.247304  -1.647652
