33
Energy: -21829.0098438 eV PBE+vdW (tier 2 basis)
C    -0.218857  -0.511701  0.281945
C    -0.307104  -0.541193  1.797767
O    0.681924  -0.695772  2.506589
H    -0.875982  -1.258978  -0.185133
H    0.816222  -0.720479  0.000003
H    -0.501631  0.477013  -0.107447
N    -1.560117  -0.413848  2.354457
C    -2.776130  -0.026592  1.679750
C    -2.831978  1.500749  1.411066
O    -2.166356  2.305535  2.049598
H    -1.537171  -0.259083  3.360810
H    -2.815641  -0.544458  0.708878
C    -4.011959  -0.508187  2.495431
C    -4.067039  0.000462  3.914294
C    -3.568439  -0.770994  4.971762
C    -4.591736  1.266084  4.218113
C    -3.580331  -0.298424  6.283860
C    -4.614516  1.750423  5.520417
C    -4.102545  0.968049  6.561361
O    -4.147157  1.492106  7.825983
H    -3.986022  -1.606895  2.497482
H    -4.921440  -0.209682  1.954058
H    -3.165636  -1.765071  4.770275
H    -4.987476  1.891911  3.417043
H    -3.185192  -0.918019  7.091602
H    -5.020619  2.734838  5.748369
H    -3.746009  0.858398  8.441841
N    -3.701550  1.860069  0.417117
C    -3.942986  3.242210  0.047301
H    -4.188376  1.129756  -0.088903
H    -3.678331  3.427179  -1.003050
H    -3.309888  3.865874  0.687404
H    -4.994696  3.521633  0.203165
