33
Energy: -21829.2839011 eV PBE+vdW (tier 2 basis)
C    -0.557789  -0.146019  -0.861673
C    -0.214931  -0.354736  0.601605
O    0.943065  -0.298942  1.020737
H    -1.617688  -0.307642  -1.091967
H    0.053556  -0.825011  -1.467915
H    -0.285769  0.879318  -1.143986
N    -1.277210  -0.592251  1.419806
C    -1.142017  -0.817519  2.838526
C    -2.450575  -1.480643  3.300033
O    -3.451142  -1.518138  2.583813
H    -2.229138  -0.673197  1.067185
H    -0.295477  -1.503709  3.007348
C    -0.835709  0.493617  3.630650
C    -1.888507  1.558102  3.480734
C    -1.821437  2.487938  2.432625
C    -2.986265  1.630323  4.346987
C    -2.810213  3.449357  2.245872
C    -3.984754  2.587398  4.175760
C    -3.900869  3.499220  3.118882
O    -4.849264  4.464882  2.895592
H    0.134165  0.852617  3.262304
H    -0.696633  0.237351  4.691877
H    -0.969997  2.461428  1.751412
H    -3.067505  0.924513  5.175546
H    -2.749096  4.170835  1.432145
H    -4.830614  2.626588  4.865743
H    -5.543842  4.379794  3.567719
N    -2.433364  -1.999117  4.555579
C    -3.619405  -2.581224  5.159986
H    -1.582722  -1.940385  5.100666
H    -3.337869  -3.064770  6.100955
H    -4.061610  -3.328434  4.489392
H    -4.383375  -1.816545  5.363063
