33
Energy: -21828.934779 eV PBE+vdW (tier 2 basis)
C    0.175879  0.407944  0.376167
C    0.104309  -0.197467  1.767730
O    1.112859  -0.539257  2.379830
H    1.229062  0.453123  0.087701
H    -0.242628  1.423994  0.347618
H    -0.370685  -0.197072  -0.360707
N    -1.139191  -0.331274  2.337498
C    -2.436977  -0.155972  1.705170
C    -3.441608  0.529590  2.665195
O    -4.577658  0.091507  2.836627
H    -1.121786  -0.854398  3.210560
H    -2.300910  0.546661  0.868109
C    -3.006982  -1.475335  1.120268
C    -2.896633  -2.671642  2.035969
C    -3.913944  -3.003400  2.940845
C    -1.749753  -3.480377  2.015475
C    -3.791198  -4.100855  3.791258
C    -1.610620  -4.576863  2.861982
C    -2.637710  -4.891276  3.756104
O    -2.461595  -5.982377  4.568671
H    -2.450740  -1.683005  0.194415
H    -4.053253  -1.296050  0.843150
H    -4.806561  -2.381255  2.987265
H    -0.940410  -3.248091  1.321241
H    -4.598271  -4.343925  4.486422
H    -0.715560  -5.196812  2.838668
H    -3.247703  -6.081215  5.128927
N    -3.028430  1.664948  3.304934
C    -1.819245  2.454584  3.121598
H    -3.751047  2.048419  3.905819
H    -1.568849  2.570750  2.058585
H    -0.950343  2.023829  3.636119
H    -2.003265  3.456992  3.524326
