33
Energy: -21829.2411845 eV PBE+vdW (tier 2 basis)
C    -2.178980  3.501853  1.481997
C    -2.365739  2.413872  0.441760
O    -1.753992  2.405647  -0.623029
H    -1.891670  3.088629  2.458766
H    -3.105135  4.076278  1.627026
H    -1.396128  4.177393  1.128416
N    -3.256718  1.407768  0.745758
C    -4.078599  1.259915  1.934078
C    -3.395669  0.524162  3.112558
O    -3.956836  0.454344  4.205452
H    -3.377329  0.718942  0.004368
H    -4.331081  2.253954  2.328944
C    -5.415260  0.553340  1.586622
C    -5.234560  -0.795137  0.934515
C    -4.979583  -1.942761  1.699848
C    -5.276212  -0.936939  -0.460977
C    -4.764309  -3.179237  1.096141
C    -5.060075  -2.166409  -1.079893
C    -4.799331  -3.295103  -0.298636
O    -4.596129  -4.483659  -0.948767
H    -5.985481  1.218330  0.923253
H    -5.975284  0.459812  2.525860
H    -4.954877  -1.869583  2.787808
H    -5.497583  -0.066599  -1.082220
H    -4.576011  -4.061513  1.712168
H    -5.098143  -2.266600  -2.163638
H    -4.439714  -5.178659  -0.289789
N    -2.183712  -0.019308  2.837017
C    -1.430053  -0.791705  3.802880
H    -1.840601  0.078790  1.887273
H    -0.410062  -0.399310  3.910508
H    -1.373045  -1.850160  3.509691
H    -1.948097  -0.718348  4.765242
