33
Energy: -21828.9087943 eV PBE+vdW (tier 2 basis)
C    -2.434441  0.659867  0.463205
C    -1.670769  -0.156468  1.490601
O    -0.533263  -0.573818  1.263511
H    -1.767856  1.431040  0.061474
H    -3.342902  1.133165  0.855259
H    -2.715527  -0.001556  -0.367326
N    -2.355817  -0.413170  2.641783
C    -1.900985  -1.200957  3.791739
C    -1.077186  -0.312049  4.767195
O    -1.711243  0.367747  5.579141
H    -3.261595  0.025938  2.744416
H    -2.812226  -1.359583  4.382940
C    -1.371047  -2.606798  3.427990
C    -2.441741  -3.457015  2.789183
C    -2.518364  -3.588378  1.395398
C    -3.412088  -4.106839  3.561865
C    -3.524702  -4.335508  0.788641
C    -4.425963  -4.859341  2.970658
C    -4.486074  -4.973521  1.577763
O    -5.456717  -5.699300  0.934568
H    -1.026064  -3.071235  4.364314
H    -0.512063  -2.539436  2.755796
H    -1.769048  -3.096826  0.773292
H    -3.376434  -4.031839  4.650670
H    -3.575322  -4.438009  -0.294693
H    -5.167878  -5.364332  3.593444
H    -6.045590  -6.089602  1.599708
N    0.283019  -0.269395  4.745365
C    1.262847  -0.909447  3.876328
H    0.639892  0.348271  5.468922
H    2.183434  -0.315617  3.911430
H    0.910002  -0.924653  2.839233
H    1.505236  -1.931743  4.205000
