33
Energy: -21828.9668472 eV PBE+vdW (tier 2 basis)
C    1.349404  -2.427734  1.620615
C    0.518379  -2.248893  2.878993
O    0.124397  -3.198555  3.550425
H    2.295785  -2.912462  1.891989
H    1.567884  -1.489071  1.096363
H    0.820110  -3.105138  0.939440
N    0.212556  -0.952828  3.199369
C    -0.403655  -0.591525  4.467161
C    -1.756292  -1.250373  4.807219
O    -1.995550  -1.501404  5.986211
H    0.693976  -0.208579  2.702873
H    0.240755  -0.921353  5.296757
C    -0.570497  0.946332  4.545630
C    0.718363  1.692333  4.306474
C    0.956120  2.361118  3.097012
C    1.738349  1.701879  5.268299
C    2.162481  3.012103  2.843373
C    2.948193  2.348651  5.032327
C    3.166808  3.004789  3.814435
O    4.335511  3.656960  3.523598
H    -0.975689  1.170313  5.541698
H    -1.325553  1.269632  3.813470
H    0.171594  2.388778  2.337699
H    1.584907  1.195511  6.222597
H    2.335517  3.534612  1.903559
H    3.726586  2.347401  5.798547
H    4.936467  3.577945  4.281509
N    -2.710076  -1.433105  3.845220
C    -2.650355  -1.274087  2.402246
H    -3.531642  -1.894245  4.224060
H    -2.119108  -2.100715  1.906057
H    -2.166988  -0.332377  2.120328
H    -3.677962  -1.246577  2.020606
