33
Energy: -21829.309715 eV PBE+vdW (tier 2 basis)
C    -0.611789  -1.908476  3.077423
C    -0.265092  -0.548354  2.508431
O    0.677730  -0.400513  1.718288
H    0.105182  -2.140539  3.877452
H    -0.497746  -2.664679  2.293821
H    -1.624100  -1.963614  3.496098
N    -1.043348  0.481215  2.938372
C    -0.787452  1.918575  2.768357
C    -1.027080  2.483087  1.346102
O    -1.681985  3.517892  1.211260
H    -1.767882  0.247636  3.605537
H    -1.555503  2.416063  3.371962
C    0.601458  2.360467  3.305148
C    0.831153  1.941062  4.733870
C    1.617202  0.823137  5.036999
C    0.227646  2.625192  5.799878
C    1.796384  0.397667  6.353613
C    0.395117  2.214147  7.118831
C    1.182490  1.092428  7.400048
O    1.318789  0.728114  8.715411
H    0.636948  3.455159  3.207558
H    1.388670  1.949798  2.661048
H    2.104159  0.276588  4.227896
H    -0.382987  3.507007  5.595560
H    2.421281  -0.472643  6.567327
H    -0.069001  2.755546  7.942244
H    1.901124  -0.046474  8.765489
N    -0.438500  1.799280  0.335746
C    -0.533088  2.222382  -1.046689
H    0.119077  0.975776  0.591392
H    0.450067  2.518098  -1.441276
H    -1.206119  3.085041  -1.094738
H    -0.933807  1.415935  -1.676460
