33
Energy: -21828.7492214 eV PBE+vdW (tier 2 basis)
C    -0.108365  0.195051  0.117152
C    -0.086374  -0.028740  1.619098
O    0.963340  -0.119164  2.245883
H    0.743320  -0.325109  -0.332567
H    0.014135  1.271262  -0.068949
H    -1.037087  -0.137171  -0.364628
N    -1.336137  -0.141952  2.189768
C    -1.627329  -0.037666  3.613037
C    -1.549422  1.449256  4.057304
O    -0.950488  2.288079  3.391865
H    -2.106801  0.104320  1.579499
H    -2.682731  -0.334268  3.701400
C    -0.792363  -1.047302  4.480281
C    0.005806  -0.494150  5.638302
C    -0.268973  -0.910009  6.945550
C    1.061750  0.413341  5.447270
C    0.462834  -0.433983  8.034807
C    1.794460  0.902041  6.523511
C    1.496264  0.482449  7.824186
O    2.252377  0.996869  8.848453
H    -0.111245  -1.558595  3.790812
H    -1.483269  -1.808450  4.867841
H    -1.071364  -1.629422  7.122362
H    1.312644  0.728274  4.435239
H    0.231452  -0.779110  9.045212
H    2.611043  1.606260  6.368756
H    1.950678  0.605245  9.683311
N    -2.230324  1.802835  5.188370
C    -2.984917  0.986789  6.120637
H    -2.082369  2.776976  5.436915
H    -3.909469  1.507738  6.404520
H    -2.409079  0.757610  7.028879
H    -3.270809  0.036046  5.659392
