33
Energy: -21829.2429663 eV PBE+vdW (tier 2 basis)
C    0.911508  -1.800800  0.954707
C    0.555158  -1.574129  2.411111
O    1.204706  -2.067491  3.330769
H    1.119515  -2.865343  0.800174
H    1.834110  -1.246592  0.735338
H    0.132201  -1.473643  0.255120
N    -0.520060  -0.752831  2.621930
C    -0.995546  -0.426193  3.946075
C    -2.524229  -0.550054  3.949225
O    -3.189956  -0.257321  2.955560
H    -1.123271  -0.475628  1.853168
H    -0.526492  -1.148001  4.631436
C    -0.597034  1.018734  4.378245
C    0.887848  1.255437  4.317138
C    1.482640  1.801587  3.172059
C    1.726458  0.875046  5.370854
C    2.862132  1.960481  3.071228
C    3.107725  1.028681  5.289228
C    3.681313  1.568401  4.133212
O    5.034520  1.741195  3.989395
H    -0.974223  1.187453  5.398376
H    -1.124006  1.725874  3.720937
H    0.850853  2.107270  2.336905
H    1.296125  0.437833  6.273565
H    3.317993  2.386678  2.178481
H    3.743528  0.721684  6.122484
H    5.476106  1.407743  4.786417
N    -3.066719  -0.947692  5.132662
C    -4.497393  -1.052981  5.351531
H    -2.434847  -1.224106  5.874549
H    -4.797262  -2.093285  5.540277
H    -4.995856  -0.701277  4.442272
H    -4.814546  -0.430731  6.199572
