33
Energy: -21829.06934 eV PBE+vdW (tier 2 basis)
C    0.371519  0.072080  2.106936
C    -0.020629  -1.209091  2.813397
O    0.705025  -1.771325  3.627893
H    1.360104  0.370476  2.464106
H    -0.347574  0.879735  2.301139
H    0.406967  -0.068157  1.017276
N    -1.263139  -1.730655  2.509121
C    -2.206048  -1.263585  1.499662
C    -2.912395  0.060792  1.868970
O    -3.242836  0.862500  1.001306
H    -1.431647  -2.638806  2.935281
H    -1.691456  -1.053784  0.550138
C    -3.242177  -2.391002  1.256748
C    -4.282291  -2.083088  0.212063
C    -5.551013  -1.611610  0.571720
C    -4.001585  -2.238619  -1.149889
C    -6.510644  -1.300180  -0.386006
C    -4.949379  -1.930295  -2.122623
C    -6.209484  -1.456674  -1.741704
O    -7.185972  -1.137496  -2.649178
H    -3.736415  -2.615349  2.215303
H    -2.675492  -3.290488  0.968897
H    -5.792766  -1.476958  1.627301
H    -3.022783  -2.607032  -1.462510
H    -7.494815  -0.931904  -0.100175
H    -4.710679  -2.059633  -3.180491
H    -6.838298  -1.278379  -3.544046
N    -3.164807  0.219951  3.198928
C    -3.821852  1.395201  3.735477
H    -2.737073  -0.447667  3.832026
H    -3.126849  2.018916  4.316594
H    -4.665364  1.112649  4.379549
H    -4.196446  1.980303  2.888693
