33
Energy: -21829.1952465 eV PBE+vdW (tier 2 basis)
C    2.276639  -0.053309  1.049903
C    1.511877  -0.363246  2.322980
O    2.057213  -0.846722  3.317545
H    2.798395  -0.960320  0.721592
H    3.041889  0.701020  1.273890
H    1.641916  0.315184  0.235109
N    0.185015  -0.059136  2.294160
C    -0.690318  -0.285824  3.419430
C    -2.118647  -0.318909  2.859589
O    -2.373435  0.135479  1.743038
H    -0.272996  0.316257  1.466207
H    -0.422997  -1.255246  3.868865
C    -0.519241  0.797972  4.533633
C    -0.787543  2.203425  4.068716
C    -2.069864  2.761438  4.134830
C    0.237360  2.985229  3.515820
C    -2.327503  4.047454  3.664074
C    -0.002026  4.270899  3.039502
C    -1.291636  4.805842  3.109727
O    -1.478906  6.076907  2.628626
H    0.514266  0.699365  4.890958
H    -1.172386  0.544782  5.380151
H    -2.889961  2.180095  4.560087
H    1.248211  2.578714  3.463953
H    -3.335862  4.462537  3.727070
H    0.799691  4.873893  2.615140
H    -2.413825  6.314219  2.733778
N    -3.101918  -0.841113  3.647427
C    -2.996010  -1.465390  4.954173
H    -4.023065  -0.773053  3.225549
H    -3.126538  -0.746932  5.778613
H    -2.022980  -1.954662  5.075239
H    -3.767815  -2.238849  5.046627
