33
Energy: -21829.1297848 eV PBE+vdW (tier 2 basis)
C    0.777589  1.175129  3.176553
C    -0.289820  0.194087  2.737219
O    -0.036860  -0.796746  2.055811
H    1.278629  0.759715  4.062526
H    0.378886  2.163807  3.437332
H    1.523685  1.277428  2.382137
N    -1.560646  0.487791  3.169716
C    -2.642403  -0.486991  3.109773
C    -3.881722  0.157325  2.455632
O    -4.855162  0.508660  3.122258
H    -1.678927  1.273053  3.801017
H    -2.254239  -1.294912  2.473949
C    -2.983853  -1.056787  4.502771
C    -1.765767  -1.588685  5.213388
C    -1.211360  -2.830311  4.878990
C    -1.105791  -0.823541  6.184449
C    -0.043809  -3.290620  5.482499
C    0.064722  -1.265127  6.797622
C    0.602705  -2.504854  6.442537
O    1.757824  -2.899855  7.068418
H    -3.738529  -1.845030  4.367946
H    -3.471652  -0.270569  5.095107
H    -1.693610  -3.450730  4.121918
H    -1.521635  0.143174  6.474889
H    0.370787  -4.261370  5.202057
H    0.567536  -0.664721  7.554809
H    2.017002  -3.768450  6.722108
N    -3.850114  0.325842  1.100572
C    -2.736748  0.140816  0.183536
H    -4.666328  0.821382  0.752268
H    -2.061038  -0.646406  0.533308
H    -2.140468  1.059535  0.066406
H    -3.123886  -0.154038  -0.799522
