33
Energy: -21829.196502 eV PBE+vdW (tier 2 basis)
C    -2.873493  -1.652518  0.412942
C    -3.072872  -0.684202  1.564092
O    -4.177587  -0.213000  1.843377
H    -3.486813  -2.544671  0.592826
H    -1.829877  -1.958708  0.272372
H    -3.240339  -1.185083  -0.509041
N    -1.949646  -0.380897  2.270674
C    -1.954162  0.528583  3.391934
C    -0.503120  0.994050  3.576383
O    0.430407  0.378074  3.059402
H    -1.031741  -0.746458  2.024703
H    -2.608587  1.378214  3.140245
C    -2.533855  -0.127469  4.687235
C    -1.782006  -1.345911  5.149162
C    -2.113661  -2.618434  4.667748
C    -0.706639  -1.245831  6.043519
C    -1.398244  -3.749641  5.057469
C    0.017512  -2.364068  6.444428
C    -0.326679  -3.624433  5.947056
O    0.414393  -4.698022  6.371719
H    -3.576154  -0.381004  4.452984
H    -2.563675  0.626635  5.485703
H    -2.952845  -2.729009  3.979934
H    -0.425387  -0.267086  6.436586
H    -1.677825  -4.733446  4.673654
H    0.850536  -2.278078  7.140744
H    0.069449  -5.500168  5.948571
N    -0.277432  2.093548  4.350543
C    -1.235273  2.973721  4.995687
H    0.710481  2.296746  4.468610
H    -2.170613  3.016858  4.426330
H    -0.823260  3.989332  5.030269
H    -1.470993  2.661374  6.025140
