33
Energy: -21828.9542536 eV PBE+vdW (tier 2 basis)
C    0.346979  -0.605485  0.717950
C    0.021589  0.376717  1.829490
O    0.887170  1.007307  2.428579
H    1.133111  -0.178480  0.085909
H    -0.517794  -0.872226  0.097616
H    0.746678  -1.524345  1.168616
N    -1.314131  0.513788  2.110081
C    -1.816034  1.209016  3.292717
C    -1.205727  2.618077  3.503261
O    -0.801031  2.969412  4.606147
H    -1.949432  -0.144744  1.673912
H    -2.892730  1.365912  3.107435
C    -1.663927  0.367054  4.579631
C    -2.316051  -0.984622  4.452870
C    -1.580549  -2.111584  4.055904
C    -3.688383  -1.153879  4.679822
C    -2.180985  -3.357015  3.885960
C    -4.306896  -2.392791  4.515306
C    -3.552540  -3.500646  4.114365
O    -4.099520  -4.746409  3.936924
H    -2.097094  0.940487  5.408658
H    -0.592646  0.269482  4.796738
H    -0.507073  -2.011941  3.886873
H    -4.289292  -0.301244  5.002249
H    -1.599357  -4.228245  3.587009
H    -5.376797  -2.500982  4.707831
H    -5.045515  -4.704360  4.148697
N    -1.244751  3.498860  2.456589
C    -1.663256  3.300696  1.081823
H    -0.784691  4.374844  2.683416
H    -1.899207  4.279726  0.647222
H    -2.572259  2.689759  1.027634
H    -0.888125  2.822966  0.462385
