33
Energy: -21829.1577443 eV PBE+vdW (tier 2 basis)
C    2.388373  -0.753876  2.444740
C    1.396204  -0.837531  3.589057
O    1.751625  -0.997740  4.754493
H    1.919302  -0.767475  1.453140
H    3.095502  -1.587142  2.526240
H    2.961446  0.176851  2.550154
N    0.083373  -0.686054  3.227951
C    -0.991884  -0.795128  4.186005
C    -2.069940  -1.706354  3.589558
O    -2.243448  -1.765589  2.370493
H    -0.195389  -0.743748  2.252093
H    -0.551476  -1.213511  5.101684
C    -1.626284  0.590827  4.517708
C    -0.640756  1.548157  5.130675
C    0.105374  2.424126  4.335038
C    -0.397309  1.548210  6.510942
C    1.064549  3.268973  4.892076
C    0.552587  2.385751  7.084392
C    1.292528  3.249719  6.271053
O    2.219110  4.056129  6.881508
H    -2.477153  0.435019  5.197812
H    -2.038102  1.001873  3.584365
H    -0.062583  2.446027  3.257636
H    -0.960085  0.869995  7.155388
H    1.634945  3.946973  4.253126
H    0.737776  2.379314  8.157541
H    2.664411  4.586830  6.202213
N    -2.853879  -2.399492  4.461934
C    -2.720552  -2.482541  5.908334
H    -3.585529  -2.940869  4.012644
H    -3.410220  -3.250097  6.274272
H    -2.974535  -1.536115  6.408913
H    -1.704981  -2.774511  6.207821
