33
Energy: -21829.269579 eV PBE+vdW (tier 2 basis)
C    -0.916438  -3.478024  4.032521
C    -1.447717  -2.226214  3.360317
O    -2.512136  -2.214489  2.739078
H    0.051244  -3.334584  4.528499
H    -0.820142  -4.268462  3.277981
H    -1.651025  -3.819900  4.772379
N    -0.667627  -1.115046  3.491030
C    -1.028888  0.151989  2.890752
C    0.282467  0.901311  2.625717
O    1.219200  0.791203  3.424524
H    0.218811  -1.127266  3.988902
H    -1.585944  -0.070983  1.971581
C    -1.955138  0.976577  3.837119
C    -2.509785  2.227565  3.212134
C    -1.894659  3.473405  3.399383
C    -3.631592  2.170074  2.374779
C    -2.368467  4.622415  2.770855
C    -4.119006  3.309953  1.737818
C    -3.485463  4.542317  1.932924
O    -3.915653  5.700161  1.337037
H    -1.382120  1.214238  4.744504
H    -2.771876  0.301202  4.125714
H    -1.020462  3.544853  4.048453
H    -4.133061  1.213741  2.215569
H    -1.889405  5.588524  2.924752
H    -4.998082  3.243457  1.092804
H    -4.702590  5.503201  0.804471
N    0.386247  1.690136  1.523966
C    -0.578030  1.970090  0.472844
H    1.272537  2.186969  1.487171
H    -0.063138  1.986269  -0.496476
H    -1.084582  2.933830  0.625703
H    -1.342478  1.189488  0.434197
