33
Energy: -21829.1614868 eV PBE+vdW (tier 2 basis)
C    -1.737454  -2.191612  0.094104
C    -0.877937  -1.587080  1.190389
O    0.167198  -2.116884  1.562023
H    -2.707669  -2.528422  0.481878
H    -1.197994  -3.051805  -0.310650
H    -1.928910  -1.477035  -0.719095
N    -1.294847  -0.405498  1.752100
C    -2.516064  0.338723  1.534879
C    -2.163561  1.835531  1.562258
O    -1.361868  2.281545  2.379703
H    -0.658883  -0.004363  2.439870
H    -2.932481  0.061695  0.556333
C    -3.597329  0.070489  2.630372
C    -4.063794  -1.358374  2.648540
C    -5.156316  -1.769869  1.871098
C    -3.372376  -2.336564  3.374601
C    -5.543534  -3.104935  1.803016
C    -3.743043  -3.678540  3.313811
C    -4.828919  -4.068397  2.523162
O    -5.242587  -5.370408  2.420238
H    -4.446407  0.746571  2.447437
H    -3.161838  0.356289  3.598432
H    -5.719403  -1.027629  1.301539
H    -2.515684  -2.050543  3.984879
H    -6.395346  -3.416963  1.200258
H    -3.182742  -4.424867  3.880801
H    -4.659182  -5.927084  2.960300
N    -2.837049  2.605956  0.662484
C    -2.685952  4.048113  0.591232
H    -3.453275  2.145124  0.004132
H    -3.644141  4.557035  0.764399
H    -2.287499  4.358241  -0.384466
H    -1.978113  4.342560  1.372945
