33
Energy: -21829.1805693 eV PBE+vdW (tier 2 basis)
C    0.133425  -0.456771  0.398066
C    -0.074818  0.504829  1.558673
O    0.594784  1.527275  1.681067
H    0.353586  -1.478621  0.736912
H    0.975401  -0.089306  -0.194066
H    -0.757488  -0.502723  -0.244997
N    -1.060973  0.192263  2.457445
C    -1.916695  -0.972796  2.486635
C    -3.234898  -0.557453  3.164732
O    -3.244675  0.269880  4.075054
H    -1.217959  0.862608  3.209861
H    -2.123717  -1.306154  1.459054
C    -1.277877  -2.159770  3.277958
C    -2.134867  -3.397379  3.290507
C    -2.218362  -4.231598  2.164708
C    -2.937274  -3.711044  4.394654
C    -3.071951  -5.331321  2.131670
C    -3.794370  -4.810272  4.380696
C    -3.867150  -5.624097  3.244947
O    -4.688589  -6.717383  3.164983
H    -1.085228  -1.809687  4.301439
H    -0.299963  -2.368802  2.821059
H    -1.596269  -4.021280  1.292102
H    -2.898859  -3.076590  5.281353
H    -3.125457  -5.978747  1.257390
H    -4.405733  -5.038065  5.256751
H    -5.162755  -6.816786  4.005898
N    -4.345433  -1.190558  2.700599
C    -5.631988  -1.088442  3.364606
H    -4.208968  -1.947694  2.039840
H    -5.824683  -1.965893  4.000963
H    -6.437431  -0.998496  2.625469
H    -5.616768  -0.193124  3.993971
