33
Energy: -21828.9359013 eV PBE+vdW (tier 2 basis)
C    -0.490009  -0.043389  -1.248519
C    0.161189  -0.392531  0.078829
O    1.366850  -0.608576  0.173672
H    0.294319  -0.027652  -2.009456
H    -0.977379  0.941452  -1.221519
H    -1.251046  -0.782482  -1.535597
N    -0.647326  -0.436374  1.189073
C    -2.100932  -0.411740  1.237734
C    -2.606432  0.405856  2.452980
O    -3.469672  -0.027947  3.213155
H    -0.169668  -0.796376  2.012825
H    -2.449522  0.134187  0.347080
C    -2.730324  -1.829910  1.194892
C    -2.059215  -2.843067  2.091960
C    -2.462650  -3.035620  3.422440
C    -0.986493  -3.609361  1.617008
C    -1.822673  -3.955704  4.247766
C    -0.332480  -4.531450  2.432981
C    -0.750996  -4.706984  3.755271
O    -0.153530  -5.598501  4.609694
H    -2.667636  -2.178919  0.153774
H    -3.793607  -1.733708  1.447417
H    -3.284400  -2.439201  3.816442
H    -0.646899  -3.484710  0.587494
H    -2.142987  -4.102618  5.278532
H    0.502815  -5.114461  2.039012
H    0.570628  -6.041388  4.139493
N    -2.072659  1.650436  2.640605
C    -1.188133  2.426847  1.784125
H    -2.463620  2.114916  3.454075
H    -1.274158  3.480715  2.071985
H    -1.479523  2.352119  0.727832
H    -0.137016  2.122897  1.874688
