33
Energy: -21828.9115545 eV PBE+vdW (tier 2 basis)
C    0.083089  0.328672  0.237383
C    -0.085363  0.472194  1.733590
O    0.834795  0.853714  2.454896
H    -0.841773  0.425370  -0.337583
H    0.523470  -0.656288  0.024684
H    0.792590  1.094259  -0.089978
N    -1.280719  0.098246  2.316470
C    -2.580933  -0.230169  1.741826
C    -2.527107  -1.262723  0.591990
O    -3.135975  -1.092411  -0.462242
H    -1.258449  0.248862  3.321490
H    -3.119797  -0.759270  2.548154
C    -3.455340  1.008342  1.394413
C    -2.807683  2.053314  0.522049
C    -2.978232  2.055251  -0.870836
C    -1.984051  3.038679  1.081425
C    -2.338253  2.989918  -1.678651
C    -1.328508  3.976139  0.284812
C    -1.501121  3.950694  -1.102082
O    -0.884043  4.842310  -1.942218
H    -3.739563  1.466110  2.353803
H    -4.376208  0.637435  0.926352
H    -3.602750  1.288756  -1.327467
H    -1.835927  3.071851  2.161551
H    -2.473033  2.984468  -2.759550
H    -0.682649  4.727541  0.744136
H    -0.336471  5.441579  -1.410497
N    -1.821418  -2.412184  0.813280
C    -1.136354  -2.874634  2.010053
H    -1.845044  -3.036651  0.013363
H    -1.046849  -3.965684  1.953742
H    -1.707571  -2.637067  2.916407
H    -0.129783  -2.446233  2.117818
