33
Energy: -21829.1624679 eV PBE+vdW (tier 2 basis)
C    0.218286  2.235806  4.038857
C    -0.357977  0.987807  3.398765
O    0.346299  0.158601  2.826167
H    -0.542207  2.968807  4.335525
H    0.923346  2.700827  3.340879
H    0.783767  1.936666  4.931630
N    -1.712095  0.838407  3.539540
C    -2.422878  -0.279515  2.965643
C    -3.676662  0.258781  2.268555
O    -4.242326  1.273196  2.681183
H    -2.290617  1.610467  3.858652
H    -1.728084  -0.760137  2.263001
C    -2.851211  -1.321349  4.045543
C    -1.680873  -1.868858  4.816619
C    -0.914175  -2.926079  4.313915
C    -1.283661  -1.290665  6.029350
C    0.209528  -3.391831  4.991098
C    -0.161807  -1.741619  6.719512
C    0.592671  -2.795337  6.197023
O    1.690863  -3.205009  6.909634
H    -3.399183  -2.136757  3.549651
H    -3.562017  -0.828256  4.724712
H    -1.191103  -3.392048  3.366416
H    -1.864190  -0.464276  6.441676
H    0.795648  -4.215937  4.578601
H    0.141555  -1.288115  7.662248
H    2.127882  -3.920783  6.421664
N    -4.163345  -0.458047  1.216908
C    -3.566929  -1.621051  0.578162
H    -5.024977  -0.084524  0.831760
H    -4.138184  -1.847111  -0.328163
H    -3.592053  -2.513057  1.222039
H    -2.526290  -1.434006  0.280235
