33
Energy: -21828.8459933 eV PBE+vdW (tier 2 basis)
C    -0.318019  0.500035  -0.128167
C    -0.298436  0.661494  1.382436
O    0.556104  1.321946  1.964181
H    0.663902  0.138723  -0.456775
H    -0.471691  1.486387  -0.583974
H    -1.093989  -0.183758  -0.494964
N    -1.296262  0.008537  2.056241
C    -1.479794  0.107124  3.498604
C    -0.249229  -0.251040  4.363209
O    0.006004  0.438706  5.343314
H    -1.981203  -0.516149  1.524618
H    -1.666345  1.155877  3.772444
C    -2.712981  -0.743109  3.890531
C    -3.061634  -0.696043  5.355484
C    -2.653090  -1.713475  6.226634
C    -3.776712  0.380366  5.891839
C    -2.942374  -1.667144  7.586808
C    -4.073793  0.444037  7.250806
C    -3.654291  -0.581869  8.104490
O    -3.916148  -0.578478  9.450311
H    -2.540282  -1.788398  3.590093
H    -3.563944  -0.377296  3.292629
H    -2.084157  -2.557730  5.833824
H    -4.105753  1.191094  5.239424
H    -2.619174  -2.459634  8.260214
H    -4.631622  1.293861  7.650109
H    -4.390356  0.238224  9.673027
N    0.472501  -1.386532  4.097814
C    0.444517  -2.280433  2.953539
H    1.266195  -1.470635  4.725779
H    -0.578381  -2.582650  2.700328
H    0.995622  -3.190864  3.217915
H    0.911282  -1.844178  2.056515
