33
Energy: -21829.3707772 eV PBE+vdW (tier 2 basis)
C    0.243040  0.233477  0.030399
C    0.060845  0.427754  1.523884
O    0.874501  1.047527  2.211228
H    1.199973  -0.273871  -0.143922
H    0.303091  1.218528  -0.448932
H    -0.561467  -0.345252  -0.439482
N    -1.066742  -0.126745  2.054358
C    -1.359189  -0.074691  3.467954
C    -2.273254  -1.266950  3.783871
O    -2.991096  -1.768047  2.914751
H    -1.710818  -0.688697  1.501833
H    -0.409395  -0.153994  4.018504
C    -2.036508  1.275642  3.862276
C    -2.243359  1.435826  5.344662
C    -1.158348  1.694179  6.198513
C    -3.506309  1.271487  5.926457
C    -1.321242  1.776182  7.578903
C    -3.687920  1.356344  7.306591
C    -2.592008  1.606189  8.139164
O    -2.700493  1.699342  9.502487
H    -2.993973  1.346869  3.327389
H    -1.379647  2.067746  3.477370
H    -0.164158  1.838986  5.771548
H    -4.366911  1.065551  5.288121
H    -0.476453  1.982732  8.234756
H    -4.684246  1.230935  7.736573
H    -3.631320  1.583693  9.751244
N    -2.235683  -1.692643  5.072757
C    -3.166622  -2.669850  5.604033
H    -1.686024  -1.147072  5.728191
H    -2.636414  -3.424381  6.198941
H    -3.660442  -3.159024  4.758475
H    -3.930768  -2.190631  6.234709
