33
Energy: -21829.0291105 eV PBE+vdW (tier 2 basis)
C    -0.488242  1.155455  3.842961
C    -1.956495  0.934072  3.534813
O    -2.837483  1.627141  4.038755
H    -0.374147  2.174544  4.222392
H    0.166277  1.008934  2.974393
H    -0.161502  0.460260  4.629347
N    -2.284797  -0.085699  2.672688
C    -1.405944  -1.015624  1.971255
C    -2.108699  -1.623740  0.744754
O    -1.519681  -1.739140  -0.325662
H    -3.279390  -0.123951  2.470066
H    -0.552733  -0.469516  1.547191
C    -0.826269  -2.150140  2.878004
C    -1.852205  -3.101130  3.435627
C    -2.687095  -2.738947  4.505933
C    -2.045990  -4.362506  2.855967
C    -3.685484  -3.591957  4.970753
C    -3.036267  -5.229829  3.313480
C    -3.864576  -4.843863  4.373331
O    -4.856969  -5.646410  4.870250
H    -0.263545  -1.671375  3.691264
H    -0.094174  -2.700494  2.270305
H    -2.559302  -1.769246  4.987383
H    -1.415072  -4.669797  2.020439
H    -4.327204  -3.304513  5.802468
H    -3.163419  -6.209597  2.847785
H    -4.858176  -6.484648  4.381182
N    -3.402587  -2.023231  0.941509
C    -4.130773  -2.746708  -0.086616
H    -3.703470  -2.164406  1.902242
H    -3.950143  -3.831676  -0.027596
H    -3.790321  -2.394950  -1.065332
H    -5.205122  -2.556315  0.017669
