33
Energy: -21828.8720073 eV PBE+vdW (tier 2 basis)
C    -2.813580  1.420908  0.824332
C    -2.168173  0.970134  2.124156
O    -1.601616  -0.113069  2.223728
H    -3.213638  0.544658  0.304546
H    -2.034038  1.865677  0.190093
H    -3.612616  2.160819  0.962762
N    -2.302404  1.871582  3.156085
C    -1.547312  1.877483  4.397866
C    -0.107286  2.399368  4.150825
O    0.393597  2.424402  3.032852
H    -2.707462  2.763301  2.898614
H    -2.063207  2.600742  5.049879
C    -1.549673  0.513360  5.139330
C    -2.930515  0.084902  5.567736
C    -3.506379  0.583493  6.745187
C    -3.686941  -0.802682  4.793672
C    -4.790332  0.221021  7.143133
C    -4.973787  -1.177029  5.178504
C    -5.531094  -0.663983  6.353756
O    -6.791432  -0.995738  6.784662
H    -0.905779  0.608744  6.023977
H    -1.097067  -0.234038  4.480065
H    -2.933833  1.266786  7.376997
H    -3.258909  -1.203903  3.874751
H    -5.227999  0.605774  8.063447
H    -5.546410  -1.874398  4.562407
H    -7.180369  -1.619413  6.151132
N    0.583625  2.858483  5.243374
C    0.167691  2.962876  6.630479
H    1.532383  3.138444  5.013560
H    0.711862  3.788525  7.104627
H    0.364702  2.046020  7.208757
H    -0.902163  3.191817  6.706987
