33
Energy: -21829.3146429 eV PBE+vdW (tier 2 basis)
C    -2.200621  -2.605871  0.595666
C    -1.319249  -2.192627  1.755826
O    -0.796055  -3.022897  2.506729
H    -1.625801  -3.269248  -0.062342
H    -2.581147  -1.762038  0.007353
H    -3.048313  -3.184334  0.983477
N    -1.130349  -0.850490  1.913121
C    -0.301062  -0.299708  2.985285
C    -1.147712  -0.188743  4.281818
O    -1.709811  0.853880  4.616184
H    -1.667058  -0.205323  1.344209
H    0.503541  -1.029730  3.151702
C    0.299258  1.051026  2.574977
C    1.437214  1.482958  3.470281
C    2.746069  1.044774  3.221397
C    1.221359  2.306729  4.581443
C    3.807685  1.409595  4.044212
C    2.274417  2.681715  5.414641
C    3.571820  2.233461  5.148961
O    4.648032  2.570013  5.931016
H    -0.498613  1.807752  2.588668
H    0.661227  0.956621  1.540339
H    2.943298  0.404701  2.359012
H    0.209782  2.644718  4.805121
H    4.822405  1.069449  3.841689
H    2.085011  3.326148  6.276260
H    4.339458  3.140476  6.652779
N    -1.218913  -1.359618  4.966881
C    -2.061693  -1.527806  6.134568
H    -0.858283  -2.185073  4.486011
H    -2.308853  -0.534395  6.523008
H    -1.531801  -2.098666  6.907600
H    -2.999244  -2.050449  5.890108
