33
Energy: -21828.7854937 eV PBE+vdW (tier 2 basis)
C    -0.522907  0.169668  -0.539693
C    -0.040151  0.131787  0.897990
O    1.131531  0.329318  1.202578
H    -1.081783  -0.735588  -0.816080
H    0.352698  0.262410  -1.187182
H    -1.179377  1.036171  -0.702238
N    -0.973716  -0.169270  1.866195
C    -2.413035  -0.229919  1.706140
C    -3.024413  1.185644  1.514006
O    -2.390023  2.200162  1.779920
H    -0.611057  -0.032809  2.805392
H    -2.615815  -0.812081  0.794460
C    -3.060839  -1.001831  2.895991
C    -3.614786  -0.180271  4.039160
C    -4.932312  -0.385325  4.463930
C    -2.855907  0.782251  4.725027
C    -5.481911  0.332011  5.526391
C    -3.388171  1.509928  5.783149
C    -4.707346  1.286430  6.190876
O    -5.180900  2.030237  7.239639
H    -2.295059  -1.704562  3.260506
H    -3.871927  -1.630687  2.506863
H    -5.547720  -1.133122  3.959769
H    -1.830741  0.995610  4.423143
H    -6.512691  0.147793  5.836911
H    -2.792565  2.259781  6.301523
H    -6.099120  1.771815  7.417670
N    -4.292716  1.254886  1.005693
C    -5.216971  0.180010  0.695059
H    -4.650603  2.205204  0.980051
H    -5.944935  0.540244  -0.041190
H    -5.768909  -0.176258  1.579006
H    -4.693795  -0.671458  0.242576
