33
Energy: -21829.0461987 eV PBE+vdW (tier 2 basis)
C    -0.620601  1.722453  -0.169322
C    -0.058912  1.078998  1.084879
O    1.110774  1.229530  1.431820
H    0.172132  2.325395  -0.619226
H    -1.480561  2.367481  0.057452
H    -0.951887  0.970524  -0.899409
N    -0.918339  0.324021  1.846945
C    -2.264985  -0.115758  1.507703
C    -3.176153  -0.099326  2.752536
O    -4.179061  0.608780  2.787467
H    -0.471017  -0.079342  2.665717
H    -2.715053  0.641971  0.857517
C    -2.298494  -1.468104  0.725906
C    -1.643587  -2.641333  1.409579
C    -2.408779  -3.615209  2.072240
C    -0.247695  -2.786853  1.430414
C    -1.817014  -4.682977  2.741540
C    0.360284  -3.847766  2.100123
C    -0.423019  -4.799781  2.761551
O    0.112663  -5.864952  3.433944
H    -1.808217  -1.284701  -0.241847
H    -3.351470  -1.697484  0.506765
H    -3.496990  -3.533495  2.064507
H    0.381638  -2.061787  0.913584
H    -2.420422  -5.436022  3.246582
H    1.448598  -3.938084  2.100856
H    1.079865  -5.829026  3.361182
N    -2.773515  -0.888124  3.792398
C    -3.553059  -1.011662  5.011022
H    -2.075800  -1.602400  3.604956
H    -2.887911  -1.062168  5.881724
H    -4.192575  -1.907713  4.998617
H    -4.196249  -0.129931  5.093176
