33
Energy: -21828.6737881 eV PBE+vdW (tier 2 basis)
C    0.246449  0.410168  0.349773
C    -0.029556  0.054317  1.789966
O    0.886680  0.004286  2.610519
H    0.792611  -0.432404  -0.093413
H    0.907450  1.284006  0.344401
H    -0.634762  0.597734  -0.262195
N    -1.303793  -0.267942  2.235430
C    -2.654238  -0.201853  1.697374
C    -2.865590  -1.070577  0.437073
O    -1.948045  -1.468353  -0.269686
H    -1.255531  -0.504210  3.222319
H    -3.268459  -0.674944  2.480330
C    -3.229586  1.248001  1.575819
C    -2.584411  2.156503  0.565788
C    -1.634094  3.106697  0.962836
C    -2.894405  2.068216  -0.797619
C    -0.995240  3.928419  0.039599
C    -2.262356  2.881113  -1.735396
C    -1.304110  3.812276  -1.318629
O    -0.646192  4.638187  -2.191519
H    -3.137743  1.694355  2.575997
H    -4.307018  1.173977  1.370507
H    -1.373708  3.192513  2.018656
H    -3.633099  1.341989  -1.140345
H    -0.251832  4.659265  0.354583
H    -2.513483  2.792220  -2.794539
H    -0.944232  4.441406  -3.093784
N    -4.164606  -1.400288  0.130257
C    -5.394738  -1.178324  0.869491
H    -4.221229  -1.961260  -0.714228
H    -5.868879  -0.212629  0.633118
H    -5.226559  -1.222219  1.953192
H    -6.105896  -1.974342  0.619422
