33
Energy: -21829.2908504 eV PBE+vdW (tier 2 basis)
C    -1.615937  -1.051080  -0.438846
C    -1.156204  -1.183197  1.001408
O    -0.594750  -2.197069  1.421886
H    -2.259314  -1.904698  -0.683754
H    -0.737592  -1.105016  -1.094978
H    -2.156336  -0.119112  -0.643985
N    -1.395579  -0.099401  1.789533
C    -1.032335  -0.043089  3.185015
C    -1.843627  1.111204  3.798982
O    -2.434169  1.930651  3.096078
H    -1.885714  0.725287  1.447902
H    -1.318880  -0.994892  3.662715
C    0.504614  0.134038  3.401435
C    1.073484  1.374700  2.768320
C    1.124508  2.594531  3.458443
C    1.533191  1.353912  1.445551
C    1.608879  3.753305  2.859628
C    2.020139  2.505628  0.829435
C    2.056701  3.711795  1.535937
O    2.526555  4.878541  0.988319
H    0.975995  -0.765146  2.983786
H    0.709008  0.126765  4.482739
H    0.776238  2.641456  4.491773
H    1.517557  0.416559  0.888100
H    1.647532  4.696344  3.403159
H    2.378481  2.465056  -0.201725
H    2.800309  4.704180  0.073893
N    -1.831137  1.162500  5.158629
C    -2.476627  2.219473  5.914124
H    -1.339581  0.433574  5.661767
H    -2.943045  2.900736  5.195337
H    -1.747573  2.779989  6.516247
H    -3.252793  1.816476  6.579147
