33
Energy: -21829.2134033 eV PBE+vdW (tier 2 basis)
C    -1.349184  -1.997391  0.228873
C    -0.702814  -0.883897  1.028863
O    0.312876  -0.307890  0.617904
H    -2.258910  -2.405785  0.685206
H    -0.619165  -2.807390  0.106294
H    -1.588023  -1.618734  -0.772409
N    -1.313993  -0.574184  2.206192
C    -0.863439  0.404988  3.208008
C    -1.034683  1.882691  2.763751
O    -1.757841  2.639514  3.409407
H    -2.171175  -1.067917  2.420813
H    -1.567421  0.313156  4.043626
C    0.558225  0.086255  3.739095
C    0.973416  1.001271  4.862984
C    0.585742  0.743532  6.185384
C    1.728215  2.153611  4.616635
C    0.932057  1.596916  7.227880
C    2.082880  3.021007  5.648366
C    1.682848  2.745505  6.959186
O    2.000585  3.557319  8.018314
H    1.277514  0.142352  2.913163
H    0.549000  -0.958935  4.083564
H    -0.000304  -0.150355  6.408453
H    2.040538  2.382110  3.596952
H    0.630024  1.388321  8.253302
H    2.672453  3.915031  5.433255
H    2.505945  4.316295  7.686583
N    -0.310126  2.246301  1.675053
C    -0.359387  3.587386  1.129344
H    0.166988  1.496265  1.163142
H    -0.816488  4.244739  1.876616
H    -0.961055  3.633048  0.208635
H    0.653704  3.944865  0.901567
