33
Energy: -21828.870057 eV PBE+vdW (tier 2 basis)
C    -0.689913  -1.060662  0.319683
C    -0.530904  -0.298098  1.624563
O    0.480635  -0.378646  2.312627
H    -0.714548  -2.134858  0.544036
H    0.192760  -0.877782  -0.304324
H    -1.592275  -0.797803  -0.246640
N    -1.593830  0.497844  1.967622
C    -1.711731  1.218216  3.234866
C    -0.395084  1.935446  3.640022
O    0.126810  1.757134  4.734564
H    -2.415936  0.470594  1.376613
H    -2.456134  2.012408  3.058353
C    -2.233475  0.322446  4.385349
C    -3.043057  1.072351  5.416349
C    -4.427169  1.231763  5.250779
C    -2.451156  1.646927  6.548451
C    -5.201270  1.936232  6.169396
C    -3.212501  2.352806  7.478693
C    -4.590285  2.501793  7.291936
O    -5.389553  3.185431  8.174635
H    -1.371509  -0.176259  4.845093
H    -2.864707  -0.452788  3.928117
H    -4.918767  0.782064  4.385075
H    -1.375229  1.551268  6.687739
H    -6.276688  2.047204  6.036045
H    -2.730784  2.791144  8.356046
H    -4.836162  3.511756  8.901848
N    0.106893  2.860346  2.765482
C    -0.325779  3.192164  1.421975
H    0.993026  3.242443  3.080386
H    0.036971  2.478576  0.665304
H    0.054885  4.188936  1.168684
H    -1.420152  3.235871  1.358816
