33
Energy: -21828.9026664 eV PBE+vdW (tier 2 basis)
C    1.862939  1.306657  0.556817
C    1.895556  -0.139551  0.107681
O    2.845398  -0.616447  -0.508419
H    1.611889  1.410281  1.620810
H    2.852811  1.732813  0.374695
H    1.120619  1.872963  -0.023730
N    0.811900  -0.936328  0.415910
C    -0.476162  -0.525839  0.947967
C    -0.925322  -1.273851  2.221580
O    -1.343741  -0.624173  3.178904
H    0.890168  -1.851506  -0.017858
H    -0.364343  0.501226  1.308298
C    -1.602772  -0.510838  -0.126583
C    -1.355017  0.551154  -1.165157
C    -1.831371  1.854466  -0.973919
C    -0.565866  0.301416  -2.296890
C    -1.531477  2.874856  -1.874310
C    -0.252761  1.309771  -3.203784
C    -0.735620  2.604855  -2.993413
O    -0.402758  3.562844  -3.914576
H    -2.555887  -0.327574  0.389725
H    -1.679337  -1.502265  -0.598104
H    -2.445132  2.080423  -0.100109
H    -0.173637  -0.701229  -2.471042
H    -1.918324  3.882664  -1.708174
H    0.366684  1.108898  -4.076519
H    -0.800293  4.406637  -3.646866
N    -0.908151  -2.641084  2.263609
C    -0.437664  -3.607958  1.286446
H    -1.205891  -2.998359  3.166422
H    -0.779497  -3.358609  0.273502
H    -0.867731  -4.585543  1.531373
H    0.658734  -3.711291  1.280921
