33
Energy: -21828.9022784 eV PBE+vdW (tier 2 basis)
C    -0.792768  -0.616326  -0.269305
C    -0.988256  -0.477300  1.230978
O    -0.877773  -1.446027  1.982803
H    -0.644005  0.337234  -0.791540
H    -1.681916  -1.106673  -0.688997
H    0.065863  -1.270465  -0.454953
N    -1.300761  0.789958  1.645031
C    -1.755336  1.276094  2.952512
C    -0.705818  2.038248  3.803296
O    -1.041630  3.124223  4.282334
H    -1.351780  1.483089  0.908586
H    -2.456714  2.088026  2.718863
C    -2.548827  0.261125  3.811464
C    -3.869646  -0.123570  3.186005
C    -4.059893  -1.369639  2.573871
C    -4.945415  0.774285  3.193111
C    -5.275103  -1.711425  1.984347
C    -6.166630  0.448029  2.606595
C    -6.334008  -0.799894  1.996494
O    -7.510921  -1.181633  1.402247
H    -2.728167  0.765860  4.772205
H    -1.946146  -0.630500  4.010765
H    -3.235471  -2.082115  2.553316
H    -4.833899  1.748215  3.674479
H    -5.417561  -2.683459  1.513549
H    -6.994091  1.160916  2.630733
H    -8.153599  -0.460679  1.495382
N    0.530252  1.523280  4.045214
C    1.143684  0.275423  3.624016
H    1.095854  2.157982  4.601803
H    1.811861  -0.077067  4.419423
H    1.735679  0.397002  2.702896
H    0.393062  -0.500088  3.441705
