33
Energy: -21828.8680169 eV PBE+vdW (tier 2 basis)
C    -0.152398  -0.182351  -0.014757
C    -0.041339  0.001839  1.487916
O    1.013491  0.306273  2.037024
H    0.217533  0.723895  -0.509053
H    -1.171878  -0.389082  -0.363789
H    0.502272  -1.010178  -0.315430
N    -1.207174  -0.183595  2.190814
C    -1.212952  -0.211599  3.656274
C    -2.395096  -1.045849  4.176581
O    -2.195879  -2.035729  4.872580
H    -1.988197  -0.606306  1.702947
H    -0.325541  -0.769169  3.984583
C    -1.115385  1.208193  4.281054
C    -1.048337  1.169887  5.785828
C    0.155457  0.881557  6.441207
C    -2.187898  1.377938  6.573764
C    0.220881  0.801119  7.830175
C    -2.140634  1.303860  7.963172
C    -0.930372  1.010309  8.596850
O    -0.930032  0.946371  9.967116
H    -1.958829  1.829153  3.953817
H    -0.204056  1.659986  3.867593
H    1.060839  0.717694  5.854594
H    -3.139713  1.607767  6.091415
H    1.170631  0.576598  8.320787
H    -3.030460  1.469701  8.568933
H    -0.034701  0.722617  10.266878
N    -3.676982  -0.695704  3.818015
C    -4.190190  0.525524  3.216519
H    -4.360007  -1.308913  4.255384
H    -5.091880  0.289684  2.636986
H    -3.458783  0.963814  2.530617
H    -4.453648  1.287951  3.967395
