33
Energy: -21828.8833703 eV PBE+vdW (tier 2 basis)
C    0.342560  -0.066852  1.871216
C    -0.548975  0.017331  3.091485
O    -0.093541  0.140719  4.226841
H    0.002203  0.567091  1.044579
H    0.376693  -1.097078  1.490307
H    1.350054  0.227869  2.176007
N    -1.914269  -0.076954  2.919673
C    -2.733353  -0.165256  1.708963
C    -2.291783  -1.336560  0.795322
O    -1.858772  -1.157018  -0.341084
H    -2.410088  0.014487  3.801468
H    -3.741914  -0.417725  2.071581
C    -2.855536  1.161180  0.920905
C    -4.158281  1.282052  0.166348
C    -4.301510  0.804404  -1.145082
C    -5.279425  1.857149  0.778664
C    -5.515046  0.894648  -1.821096
C    -6.502077  1.954085  0.115093
C    -6.622744  1.469961  -1.191244
O    -7.794863  1.536417  -1.901393
H    -2.007096  1.245329  0.230194
H    -2.775826  1.976428  1.652791
H    -3.444659  0.344182  -1.636377
H    -5.196844  2.250849  1.793862
H    -5.618519  0.525265  -2.840662
H    -7.359811  2.415072  0.610201
H    -8.469104  1.963793  -1.349815
N    -2.404716  -2.592611  1.318090
C    -2.874262  -2.996046  2.633265
H    -2.071687  -3.316035  0.688748
H    -3.096704  -4.068377  2.607368
H    -3.803711  -2.476310  2.902664
H    -2.130788  -2.809855  3.421560
