33
Energy: -21829.070579 eV PBE+vdW (tier 2 basis)
C    -1.012214  0.957757  0.751008
C    0.088960  0.403492  1.631086
O    1.169704  0.965101  1.781540
H    -1.942008  1.118251  1.313814
H    -1.250804  0.266569  -0.069787
H    -0.670101  1.907614  0.333081
N    -0.177243  -0.783970  2.285047
C    -1.352160  -1.636645  2.147016
C    -2.622591  -1.059789  2.812213
O    -3.737419  -1.302046  2.361086
H    0.629562  -1.159521  2.777803
H    -1.619393  -1.766682  1.087810
C    -1.004983  -3.027841  2.737720
C    -2.086641  -4.066227  2.598373
C    -2.234424  -4.794050  1.409793
C    -2.985297  -4.320162  3.639097
C    -3.243352  -5.738493  1.255695
C    -4.001746  -5.263232  3.502893
C    -4.135492  -5.974295  2.306676
O    -5.112367  -6.915164  2.108105
H    -0.749062  -2.895985  3.801034
H    -0.091719  -3.371848  2.227255
H    -1.544117  -4.619139  0.582311
H    -2.897978  -3.764878  4.574262
H    -3.353257  -6.301799  0.330148
H    -4.694688  -5.444189  4.327363
H    -5.664115  -6.964360  2.904796
N    -2.392217  -0.322717  3.935792
C    -3.457983  0.301498  4.693993
H    -1.426672  -0.089636  4.143068
H    -3.430722  1.397294  4.604279
H    -3.393333  0.033059  5.757125
H    -4.408622  -0.061762  4.288751
