33
Energy: -21829.1701448 eV PBE+vdW (tier 2 basis)
C    -0.033217  1.647525  1.555262
C    0.189485  0.251153  2.101859
O    1.294876  -0.160279  2.439467
H    -0.830446  2.181767  2.089552
H    -0.318576  1.607157  0.494006
H    0.904323  2.201560  1.646464
N    -0.925718  -0.554349  2.225636
C    -2.273520  -0.281769  1.748482
C    -3.160911  0.515925  2.731824
O    -4.239053  0.972785  2.357199
H    -0.691762  -1.515705  2.461822
H    -2.226495  0.338165  0.841107
C    -2.995546  -1.598247  1.380829
C    -2.341979  -2.339792  0.242535
C    -1.569808  -3.487337  0.464978
C    -2.464076  -1.881061  -1.075800
C    -0.933019  -4.155754  -0.577984
C    -1.834921  -2.536589  -2.131189
C    -1.062305  -3.677736  -1.884292
O    -0.419525  -4.366645  -2.878920
H    -4.031362  -1.329638  1.134617
H    -3.038302  -2.239265  2.275898
H    -1.470061  -3.880230  1.478966
H    -3.068759  -0.997011  -1.286815
H    -0.335211  -5.047430  -0.395079
H    -1.949025  -2.164779  -3.151869
H    -0.591903  -3.927043  -3.726663
N    -2.667151  0.639465  3.991145
C    -3.365964  1.346700  5.045148
H    -1.749851  0.240417  4.163266
H    -4.313982  1.706749  4.630844
H    -2.782208  2.206448  5.402781
H    -3.576029  0.683843  5.895925
