33
Energy: -21828.9096676 eV PBE+vdW (tier 2 basis)
C    0.287478  0.399972  0.088692
C    0.169428  0.625867  1.585717
O    1.067745  1.178523  2.224187
H    0.631071  1.328559  -0.380583
H    -0.645003  0.075301  -0.388927
H    1.055620  -0.364870  -0.087833
N    -0.973328  0.139221  2.148751
C    -1.357027  0.166218  3.563991
C    -2.081543  1.499789  3.905958
O    -3.293354  1.556338  3.678985
H    -1.665083  -0.246841  1.519136
H    -2.194437  -0.540802  3.625762
C    -0.272144  -0.362498  4.529366
C    0.070550  -1.805092  4.247707
C    -0.756374  -2.850384  4.684404
C    1.210236  -2.138437  3.506613
C    -0.465988  -4.180508  4.395161
C    1.515902  -3.466111  3.207838
C    0.676001  -4.492452  3.650462
O    0.921749  -5.817320  3.391756
H    -0.675521  -0.259759  5.548375
H    0.635369  0.243129  4.470468
H    -1.647906  -2.622137  5.272365
H    1.872007  -1.344402  3.158193
H    -1.108222  -4.987799  4.744811
H    2.413533  -3.704407  2.632424
H    1.744188  -5.886765  2.881532
N    -1.427127  2.572419  4.429392
C    -0.022533  2.793681  4.749885
H    -2.068413  3.340752  4.605026
H    0.241692  2.409636  5.747254
H    0.158987  3.874639  4.744203
H    0.625150  2.338959  3.992176
