33
Energy: -21828.9809685 eV PBE+vdW (tier 2 basis)
C    -0.025143  0.288631  0.677607
C    -0.144585  0.151597  2.188137
O    0.845368  0.153166  2.916395
H    1.033441  0.412430  0.435339
H    -0.580920  1.160948  0.304386
H    -0.407203  -0.598124  0.152780
N    -1.405652  0.041610  2.709684
C    -2.665819  -0.045676  2.009655
C    -3.745693  0.477313  2.976120
O    -3.539225  0.530757  4.185731
H    -1.479607  0.016324  3.727020
H    -2.633518  0.596089  1.115870
C    -3.007393  -1.499192  1.536745
C    -3.207218  -2.482715  2.658611
C    -2.115595  -3.101336  3.286296
C    -4.489571  -2.776059  3.136633
C    -2.291986  -3.975191  4.354169
C    -4.684082  -3.651044  4.203503
C    -3.581433  -4.251716  4.818914
O    -3.702744  -5.121167  5.871708
H    -2.182939  -1.825928  0.887385
H    -3.904451  -1.466502  0.902315
H    -1.103856  -2.891371  2.937818
H    -5.358984  -2.310056  2.669097
H    -1.440010  -4.450119  4.838466
H    -5.694089  -3.866729  4.558779
H    -4.642327  -5.208492  6.097602
N    -4.949478  0.847214  2.447370
C    -5.380300  0.870230  1.061765
H    -5.624496  1.111645  3.158558
H    -6.138705  1.651863  0.935681
H    -5.815682  -0.087429  0.734483
H    -4.545500  1.114216  0.394197
