33
Energy: -21828.9243444 eV PBE+vdW (tier 2 basis)
C    -0.050967  -0.348623  0.308381
C    -0.124087  -0.124914  1.804717
O    0.884908  0.035870  2.488021
H    -0.207589  -1.412559  0.079680
H    0.952268  -0.066440  -0.021501
H    -0.802277  0.213960  -0.258192
N    -1.360615  -0.157673  2.415587
C    -2.699698  -0.105903  1.830543
C    -2.942893  -1.195834  0.760725
O    -3.320076  -0.917964  -0.375187
H    -1.294073  0.064274  3.405266
H    -3.381022  -0.347817  2.664128
C    -3.101599  1.291915  1.309707
C    -3.106106  2.324897  2.407296
C    -1.946722  3.037784  2.748886
C    -4.265400  2.571743  3.153679
C    -1.937332  3.958627  3.792977
C    -4.274416  3.491591  4.201540
C    -3.105706  4.188468  4.525534
O    -3.047640  5.107953  5.541308
H    -4.095342  1.207095  0.851190
H    -2.418183  1.585018  0.501573
H    -1.026885  2.870530  2.187019
H    -5.187272  2.041504  2.906705
H    -1.033004  4.508799  4.049272
H    -5.193620  3.673666  4.762944
H    -3.923451  5.173040  5.953917
N    -2.748578  -2.493050  1.144661
C    -2.352701  -3.021898  2.440192
H    -2.918189  -3.154051  0.393090
H    -2.641310  -4.078199  2.484882
H    -2.870694  -2.504290  3.258057
H    -1.270620  -2.943810  2.616725
