33
Energy: -21829.035015 eV PBE+vdW (tier 2 basis)
C    -1.156304  1.122473  0.260527
C    -0.602537  0.802123  1.637388
O    0.133119  -0.155185  1.847966
H    -0.348013  1.037762  -0.474477
H    -1.613415  2.117083  0.185047
H    -1.912700  0.368640  0.003713
N    -0.972804  1.673095  2.639230
C    -0.712719  1.402694  4.055109
C    0.796021  1.431729  4.412250
O    1.227273  0.830915  5.392406
H    -1.684477  2.361617  2.423706
H    -1.140496  2.262837  4.592958
C    -1.403044  0.115898  4.593104
C    -2.183889  0.344756  5.864775
C    -1.540522  0.465418  7.104703
C    -3.579740  0.471861  5.836849
C    -2.265714  0.705695  8.270234
C    -4.318430  0.712483  6.993820
C    -3.658152  0.831436  8.219137
O    -4.423113  1.067115  9.335109
H    -0.635392  -0.651800  4.743147
H    -2.082972  -0.251537  3.813960
H    -0.454691  0.377040  7.146339
H    -4.107417  0.369127  4.886345
H    -1.745646  0.792903  9.227352
H    -5.403655  0.802265  6.963207
H    -3.836267  1.114140  10.106389
N    1.557719  2.243557  3.631250
C    2.993623  2.349869  3.799370
H    1.134633  2.584040  2.775723
H    3.320403  3.384691  3.636505
H    3.535920  1.688889  3.106099
H    3.238029  2.049957  4.823686
