14
Energy: -598953.08428 eV PBE+vdW (tier 2 basis)
N    0.238402  0.483246  0.444926
C    0.514742  0.076114  1.865240
C    1.937088  -0.483470  1.955714
O    2.776724  -0.327237  1.028720
H    -0.344469  -0.239434  -0.000013
H    -0.344384  1.328894  0.441284
H    0.544983  1.003982  2.464560
H    -1.549192  -0.383211  2.337618
C    -0.563860  -0.856948  2.428831
H    -0.580222  -1.826278  1.912557
H    -0.421791  -1.037184  3.504153
H    1.674208  -1.231288  3.707722
O    2.354046  -1.101773  3.012031
Pb    2.330724  0.732586  -0.901343
