14
Energy: -598953.708618 eV PBE+vdW (tier 2 basis)
N    -0.144844  0.146453  0.066147
C    -0.041221  -0.038805  1.576042
C    1.431498  -0.097264  1.974600
O    2.348889  0.026085  1.092351
H    0.129415  -0.710947  -0.438039
H    0.456761  0.909169  -0.280635
H    -1.119082  0.359135  -0.198227
H    -0.458442  0.877085  2.024576
C    -0.841939  -1.260322  2.022184
H    -1.899800  -1.146691  1.752658
H    -0.788301  -1.347051  3.113503
H    -0.453704  -2.188393  1.581171
O    1.717532  -0.257254  3.207135
Pb    3.998239  -0.163201  2.802534
