14
Energy: -598953.28744 eV PBE+vdW (tier 2 basis)
N    0.176277  0.292688  0.142025
C    0.083501  0.101888  1.630222
C    1.483969  0.042683  2.215645
O    2.515039  -0.184637  1.521430
H    -0.583310  -0.232818  -0.308576
H    -0.002065  1.277173  -0.096462
H    -0.426463  0.968641  2.078180
H    -0.746977  -1.297862  3.073757
C    -0.687508  -1.180998  1.985276
H    -1.715037  -1.106982  1.606096
H    -0.208958  -2.077930  1.567052
H    2.445871  0.116669  3.864598
O    1.535430  0.203763  3.497241
Pb    2.408233  -0.345276  -0.739483
