25
Energy: -570543.168578 eV PBE+vdW (tier 2 basis)
N    -1.340067  0.900783  1.439550
C    -0.505547  -0.117763  2.184161
C    0.660145  -0.596261  1.318986
O    1.617840  -1.166403  1.754376
H    -0.759465  1.703638  1.169822
H    -2.086288  1.266983  2.043712
H    -0.059474  0.391972  3.054284
C    -1.321701  -1.341669  2.724469
C    -1.876383  -2.170279  1.590025
C    -1.094234  -3.147229  0.917452
C    -3.096904  -1.826086  1.016680
C    -1.423368  -3.648385  -0.337154
C    -3.392970  -2.180952  -0.365326
C    -2.542113  -3.146748  -1.025730
O    -2.939751  -3.520951  -2.229513
H    -2.119919  -0.972475  3.384157
H    -0.629876  -1.916424  3.354237
H    -0.188842  -3.519216  1.401428
H    -3.831948  -1.230269  1.564563
H    -0.809362  -4.429010  -0.789093
H    -4.388528  -2.011890  -0.782808
H    -2.366846  -4.206014  -2.629053
O    0.454957  -0.341717  -0.021777
H    1.245179  -0.651102  -0.516072
Hg    -2.252539  -0.077530  -0.441377
