25
Energy: -570543.217219 eV PBE+vdW (tier 2 basis)
N    -1.257902  -0.527736  0.219693
C    -0.415845  -0.170466  1.409929
C    1.096000  -0.171252  1.041897
O    1.899426  0.322890  1.785679
H    -1.181050  0.203229  -0.497550
H    -0.914652  -1.392637  -0.219475
H    -0.663118  0.867060  1.671127
C    -0.623235  -1.076885  2.661823
C    -2.053628  -1.012030  3.137227
C    -2.571211  0.134169  3.792688
C    -2.959786  -1.993953  2.743791
C    -3.932956  0.363846  3.950181
C    -4.389629  -1.730954  2.756218
C    -4.869681  -0.541481  3.413386
O    -6.185479  -0.427349  3.496114
H    0.078395  -0.709598  3.422887
H    -0.334257  -2.112432  2.431151
H    -1.874387  0.875844  4.188727
H    -2.616746  -2.963761  2.373750
H    -4.277042  1.244256  4.495252
H    -5.106507  -2.526033  2.539622
H    -6.472411  0.373763  3.978420
O    1.333958  -0.788240  -0.122890
H    2.297996  -0.786085  -0.314542
Hg    -3.527351  -0.925308  0.616968
