25
Energy: -570543.605127 eV PBE+vdW (tier 2 basis)
N    -1.412887  1.462339  0.526622
C    -0.596643  0.560800  1.429275
C    0.824457  0.516114  0.812665
O    1.763745  0.355080  1.684865
H    -2.424706  1.275369  0.573883
H    -1.067823  1.300265  -0.442757
H    -0.598281  0.984837  2.438154
C    -1.186696  -0.891858  1.391104
C    -0.131350  -1.953012  1.652955
C    0.224419  -2.328577  2.978389
C    0.587683  -2.502394  0.603564
C    1.269520  -3.192463  3.263306
C    1.769745  -3.296819  0.848397
C    2.055497  -3.708318  2.213414
O    3.028399  -4.589927  2.353740
H    -1.613618  -1.068886  0.392836
H    -2.006510  -0.960606  2.118482
H    -0.353660  -1.931851  3.814816
H    0.313169  -2.306158  -0.433715
H    1.472242  -3.487516  4.293716
H    2.202137  -3.897907  0.043823
H    3.169400  -4.860352  3.283477
O    0.896679  0.472306  -0.417160
H    -1.266854  2.458966  0.745904
Hg    2.982933  -1.261431  0.803248
