25
Energy: -570543.570876 eV PBE+vdW (tier 2 basis)
N    -0.484520  -0.148913  -0.183805
C    0.010522  -0.367368  1.090711
C    1.561102  -0.548095  1.158434
O    2.112848  -0.972742  2.155311
H    -0.339030  -0.814120  -0.938654
H    -1.054310  0.663015  -0.400510
H    -0.204177  0.512173  1.716109
C    -0.620815  -1.670829  1.835501
C    -0.001910  -1.937395  3.145456
C    -0.292298  -1.103298  4.268028
C    0.779218  -3.127218  3.352613
C    0.084404  -1.468802  5.531945
C    1.146803  -3.530571  4.605994
C    0.746919  -2.736455  5.729523
O    0.856409  -3.136215  6.972781
H    -0.538468  -2.526493  1.155360
H    -1.679808  -1.404723  1.951772
H    -0.868756  -0.188287  4.129533
H    1.043678  -3.741234  2.491928
H    -0.195583  -0.892068  6.413326
H    1.684297  -4.466953  4.763444
H    1.257475  -4.026454  7.064393
O    2.157005  -0.150104  0.049775
H    3.132903  -0.235800  0.130035
Hg    3.316092  -0.764054  5.729997
