25
Energy: -570543.506895 eV PBE+vdW (tier 2 basis)
N    0.062447  2.570345  3.542742
C    -0.107544  1.091802  3.262717
C    0.561176  0.839978  1.887307
O    1.063644  -0.348053  1.771147
H    -0.004336  3.055225  2.623283
H    -0.647362  2.945241  4.188216
H    0.372555  0.527226  4.067960
C    -1.633277  0.756634  3.125413
C    -1.883942  -0.440677  2.224306
C    -1.794785  -1.771332  2.727421
C    -2.094917  -0.265989  0.867667
C    -1.891939  -2.887805  1.918439
C    -2.072522  -1.394213  -0.040870
C    -2.069626  -2.735225  0.525972
O    -2.257375  -3.829951  -0.186930
H    -2.144340  1.629072  2.692222
H    -2.051543  0.590800  4.127291
H    -1.658812  -1.924814  3.799279
H    -2.227575  0.727602  0.437766
H    -1.873217  -3.894584  2.334551
H    -2.441874  -1.254563  -1.061372
H    -2.469582  -3.664152  -1.126695
O    0.408669  1.703658  1.024170
H    0.990354  2.781740  3.939010
Hg    0.279721  -1.077967  -0.141010
