25
Energy: -570543.703222 eV PBE+vdW (tier 2 basis)
N    -0.070169  0.572419  0.264869
C    -0.309521  0.338532  1.751865
C    1.086237  0.580991  2.446588
O    1.127911  0.282442  3.671889
H    -0.044480  -0.305621  -0.270059
H    -0.764522  1.192228  -0.168759
H    -0.964406  1.150484  2.098031
C    -0.893348  -1.041072  2.080497
C    -2.280033  -1.220194  1.539521
C    -2.534838  -2.139042  0.492010
C    -3.368845  -0.494076  2.098852
C    -3.814779  -2.347082  0.025915
C    -4.657611  -0.689524  1.655295
C    -4.895662  -1.622976  0.608842
O    -6.097733  -1.887595  0.124218
H    -0.882100  -1.102858  3.182481
H    -0.218400  -1.831457  1.720544
H    -1.716429  -2.726030  0.072332
H    -3.195062  0.196940  2.925142
H    -4.033875  -3.067015  -0.761818
H    -5.491834  -0.155087  2.111815
H    -6.809135  -1.380524  0.565736
O    1.974315  1.062415  1.720594
H    0.883519  1.013158  0.226222
Hg    3.363797  0.917545  4.091378
