25
Energy: -570543.509508 eV PBE+vdW (tier 2 basis)
N    0.709505  -0.925415  0.364579
C    -0.283909  -0.059580  1.119193
C    0.544404  0.737239  2.151020
O    1.590818  0.182480  2.569645
H    0.286672  -1.776253  -0.030977
H    1.145235  -0.404707  -0.411390
H    -0.780667  0.591119  0.393099
C    -1.346130  -0.909585  1.910783
C    -0.963480  -1.159207  3.360751
C    -1.327842  -0.245173  4.335226
C    -0.115588  -2.234968  3.747617
C    -0.709993  -0.261891  5.639104
C    0.406438  -2.371293  5.023793
C    0.130413  -1.391745  5.995706
O    0.530453  -1.432817  7.253761
H    -1.534463  -1.850630  1.372594
H    -2.285222  -0.344651  1.870201
H    -2.048572  0.544720  4.119791
H    0.129557  -3.008116  3.016497
H    -1.154070  0.305706  6.462171
H    1.016023  -3.238834  5.279169
H    1.063212  -2.226702  7.461015
O    -0.018499  1.760956  2.639262
H    1.469100  -1.165659  1.034436
Hg    0.858262  1.312983  4.762519
