25
Energy: -570543.700418 eV PBE+vdW (tier 2 basis)
N    -0.354545  0.915854  2.617767
C    0.068890  -0.369621  2.005099
C    -0.390877  -0.353365  0.542016
O    -1.407112  0.231713  0.149627
H    -0.248136  0.899299  3.636512
H    0.211235  1.697716  2.269824
H    1.167492  -0.443832  2.007147
C    -0.508372  -1.625774  2.759011
C    -2.015340  -1.687993  2.678265
C    -2.792736  -0.871166  3.496586
C    -2.677194  -2.375490  1.628439
C    -4.131655  -0.491808  3.101344
C    -4.013080  -2.166826  1.309407
C    -4.755451  -1.194147  2.003311
O    -6.022393  -0.887769  1.778639
H    -0.156883  -1.574354  3.800127
H    -0.040504  -2.514102  2.315514
H    -2.392421  -0.446947  4.420224
H    -2.113052  -3.098912  1.036447
H    -4.778129  0.066968  3.781653
H    -4.483184  -2.749868  0.516350
H    -6.419658  -1.408680  1.052562
O    0.395865  -1.054956  -0.239601
H    0.082295  -1.042765  -1.171618
Hg    -2.673055  1.123825  2.025348
