25
Energy: -570543.699992 eV PBE+vdW (tier 2 basis)
N    0.285071  0.152857  0.255512
C    -0.192990  0.423648  1.676958
C    1.106866  0.763457  2.500983
O    0.932002  0.862167  3.747747
H    0.281686  -0.849612  0.026100
H    1.280855  0.490140  0.253123
H    -0.777124  1.353909  1.640499
C    -0.994172  -0.726195  2.298155
C    -2.302685  -0.965605  1.606654
C    -3.330473  0.016223  1.645868
C    -2.551742  -2.193080  0.941404
C    -4.556141  -0.217101  1.067880
C    -3.773193  -2.451181  0.354811
C    -4.793612  -1.460085  0.414101
O    -5.998596  -1.623556  -0.106519
H    -1.148942  -0.429321  3.350900
H    -0.382971  -1.640275  2.325784
H    -3.170919  0.953752  2.180627
H    -1.782285  -2.966249  0.924115
H    -5.365871  0.509946  1.116093
H    -3.966636  -3.407117  -0.133985
H    -6.119574  -2.499515  -0.526223
O    2.144227  0.924690  1.834136
H    -0.259120  0.648652  -0.460344
Hg    3.138338  1.432449  4.355621
