25
Energy: -570543.210819 eV PBE+vdW (tier 2 basis)
N    -0.127757  -0.087925  0.169283
C    -0.248432  -0.264069  1.646918
C    0.997923  0.327616  2.378437
O    1.302353  -0.035912  3.481641
H    0.560619  -0.731845  -0.238067
H    0.193938  0.864444  -0.047088
H    -1.077071  0.383097  1.975323
C    -0.516754  -1.725670  2.088009
C    -1.581426  -2.370372  1.230663
C    -1.275221  -3.483756  0.405298
C    -2.828045  -1.772014  1.078705
C    -2.121592  -3.941891  -0.597746
C    -3.666493  -2.107551  -0.042736
C    -3.327099  -3.261290  -0.854877
O    -4.229508  -3.602107  -1.757108
H    -0.803211  -1.699942  3.148389
H    0.413503  -2.307551  2.039540
H    -0.329804  -4.007186  0.559824
H    -3.170671  -0.985257  1.754774
H    -1.857559  -4.828076  -1.176771
H    -4.678381  -1.704651  -0.128576
H    -3.984595  -4.402089  -2.265206
O    1.594431  1.272115  1.639511
H    2.341661  1.670273  2.138339
Hg    -2.145728  -0.465210  -1.038327
