25
Energy: -570543.341216 eV PBE+vdW (tier 2 basis)
N    0.610639  -0.479443  -0.094048
C    0.033328  -0.326280  1.153274
C    1.086119  -0.070940  2.323041
O    0.869329  -0.426125  3.455195
H    0.446813  0.182982  -0.846670
H    1.315333  -1.192613  -0.267479
H    -0.606950  0.568451  1.154194
C    -0.823828  -1.609769  1.659351
C    -2.252062  -1.542471  1.365517
C    -3.079882  -0.585059  2.031750
C    -2.859547  -2.458696  0.451928
C    -4.428196  -0.524704  1.796179
C    -4.206388  -2.421698  0.194803
C    -5.006150  -1.405302  0.820000
O    -6.250692  -1.157151  0.480747
H    -0.636291  -1.531449  2.756133
H    -0.347208  -2.519697  1.278136
H    -2.636601  0.095550  2.759937
H    -2.240080  -3.204568  -0.046573
H    -5.073449  0.206598  2.282099
H    -4.663889  -3.111290  -0.516670
H    -6.590045  -1.750637  -0.221649
O    2.130510  0.598349  1.865231
H    2.749299  0.804271  2.601292
Hg    -5.749857  -3.476120  3.368557
