25
Energy: -570543.210879 eV PBE+vdW (tier 2 basis)
N    -1.179936  0.844416  0.982395
C    -0.242045  0.137398  1.948687
C    1.148788  0.265399  1.304507
O    1.302744  0.989399  0.338773
H    -1.401799  0.234329  0.185116
H    -0.644207  1.630699  0.570004
H    -0.219041  0.744795  2.866343
C    -0.687094  -1.306592  2.300028
C    -2.161366  -1.331570  2.631356
C    -3.081653  -2.001976  1.778203
C    -2.678770  -0.505649  3.625351
C    -4.452292  -1.785337  1.819126
C    -4.062053  -0.119469  3.601945
C    -4.976908  -0.833698  2.719288
O    -6.253222  -0.558601  2.889019
H    -0.063946  -1.641117  3.141967
H    -0.472696  -1.987133  1.464723
H    -2.694261  -2.714211  1.046874
H    -2.032609  -0.045937  4.376563
H    -5.120726  -2.352672  1.169638
H    -4.499523  0.461662  4.417378
H    -6.845127  -1.076269  2.304876
O    2.069735  -0.449026  1.930756
H    2.948280  -0.313850  1.512169
Hg    -3.174919  1.417216  1.955671
