25
Energy: -570543.057181 eV PBE+vdW (tier 2 basis)
N    0.233392  0.389959  0.230563
C    0.227804  -0.034766  1.629162
C    1.628096  -0.549162  2.076504
O    2.441331  -1.049699  1.306807
H    -0.685595  0.299527  -0.211311
H    0.576877  1.344834  0.096535
H    -0.010242  0.831113  2.271313
C    -0.803851  -1.173013  1.859154
C    -2.240308  -0.785675  1.593305
C    -2.887617  0.197626  2.384241
C    -2.984030  -1.465424  0.596244
C    -4.218286  0.494871  2.197340
C    -4.320888  -1.189903  0.388370
C    -4.955528  -0.203428  1.194166
O    -6.231354  0.123276  1.081939
H    -0.714053  -1.512243  2.903905
H    -0.523611  -2.033538  1.234019
H    -2.343127  0.714449  3.175454
H    -2.505563  -2.243645  0.000683
H    -4.736769  1.236766  2.803670
H    -4.890501  -1.727683  -0.370810
H    -6.702481  -0.388940  0.392624
O    1.921783  -0.499693  3.358886
H    1.254091  -0.039925  3.904735
Hg    1.891428  -0.990685  -1.067498
