25
Energy: -570543.258103 eV PBE+vdW (tier 2 basis)
N    -1.093714  0.808721  -0.201582
C    -0.497195  0.414802  0.993333
C    1.080542  0.325120  0.837037
O    1.720371  1.259329  1.286648
H    -1.413154  1.766586  -0.315185
H    -0.991284  0.273841  -1.058960
H    -0.661484  1.185181  1.754386
C    -1.029130  -0.969150  1.650417
C    -1.055800  -2.191719  0.822826
C    -0.128002  -3.248384  1.057957
C    -2.066888  -2.380366  -0.166348
C    -0.208628  -4.435104  0.365542
C    -2.171120  -3.560900  -0.863803
C    -1.239623  -4.608400  -0.603563
O    -1.265158  -5.774894  -1.220299
H    -2.051274  -0.678065  1.936330
H    -0.439085  -1.109539  2.564996
H    0.627684  -3.139263  1.837791
H    -2.797009  -1.590277  -0.346619
H    0.472757  -5.263496  0.556646
H    -2.962353  -3.705457  -1.601036
H    -2.004029  -5.860446  -1.857399
O    1.627682  -0.684670  0.192716
H    0.987995  -1.406544  -0.003031
Hg    4.276914  1.489720  1.093768
