22
Energy: -12020.1237892 eV PBE+vdW (tier 2 basis)
N    -0.458712  -1.862023  0.299237
C    0.299322  -1.571363  1.515419
C    1.650046  -2.256210  1.401666
O    1.883995  -3.236545  0.724813
H    -0.178767  -2.782036  -0.047912
H    -1.457829  -1.890294  0.487392
H    0.504396  -0.489346  1.571298
C    -0.355076  -2.010790  2.859718
C    -1.407226  -1.047763  3.453098
C    -0.779536  0.268297  3.929941
C    -2.608076  -0.781068  2.535587
H    0.433806  -2.137905  3.617000
H    -0.801284  -3.004946  2.698335
H    -1.792742  -1.566680  4.347759
H    -0.394059  0.864920  3.090174
H    0.055848  0.088492  4.620582
H    -1.521484  0.888329  4.451634
H    -2.325051  -0.189846  1.651869
H    -3.379539  -0.207667  3.067773
H    -3.074433  -1.715482  2.190233
O    2.590964  -1.660772  2.184856
H    3.402436  -2.194304  2.080530
