22
Energy: -12020.0799425 eV PBE+vdW (tier 2 basis)
N    0.205781  -0.304065  -0.536657
C    -0.042070  -0.163281  0.898803
C    1.251171  -0.031283  1.689245
O    1.338412  0.496562  2.777971
H    -0.676237  -0.471439  -1.021188
H    0.809120  -1.101231  -0.730983
H    -0.548366  0.803087  1.044783
C    -0.949190  -1.224049  1.594886
C    -0.364448  -2.609224  1.927162
C    -1.391684  -3.404308  2.745004
C    0.083150  -3.419614  0.702747
H    -1.840979  -1.346363  0.956043
H    -1.303622  -0.772458  2.534303
H    0.518471  -2.455521  2.572162
H    -0.984579  -4.377106  3.053498
H    -2.300616  -3.597878  2.154762
H    -1.692037  -2.861551  3.651773
H    0.358575  -4.441763  0.998700
H    0.959617  -2.982401  0.208895
H    -0.724795  -3.497152  -0.040456
O    2.314174  -0.625641  1.076893
H    3.068973  -0.505844  1.685487
