22
Energy: -12020.0855848 eV PBE+vdW (tier 2 basis)
N    0.213625  -0.420103  0.059717
C    -0.467194  -0.271834  1.355431
C    0.604082  -0.220074  2.436716
O    0.754970  0.673642  3.241668
H    0.623962  -1.352558  -0.015502
H    -0.467393  -0.332504  -0.695548
H    -0.926226  0.724890  1.367644
C    -1.553119  -1.343823  1.625600
C    -2.409043  -1.243014  2.909724
C    -1.673587  -1.700401  4.177804
C    -3.034176  0.145969  3.098636
H    -1.075102  -2.335888  1.584846
H    -2.231287  -1.292495  0.757401
H    -3.237357  -1.954875  2.750561
H    -0.891457  -0.991983  4.480651
H    -1.205446  -2.684619  4.036875
H    -2.375852  -1.781963  5.019101
H    -3.563604  0.478932  2.193953
H    -2.275355  0.901937  3.345425
H    -3.761422  0.134407  3.922013
O    1.398541  -1.328900  2.411787
H    2.058372  -1.202174  3.120414
