22
Energy: -12020.258863 eV PBE+vdW (tier 2 basis)
N    -0.262591  0.331023  0.936911
C    0.039544  -0.695302  1.959511
C    1.304191  -1.481416  1.519514
O    1.747033  -2.424483  2.137890
H    -0.389590  1.254314  1.344336
H    1.253430  -0.234547  0.161175
H    0.345876  -0.183649  2.885517
C    -1.109211  -1.666535  2.272183
C    -2.185521  -1.193172  3.271726
C    -1.611880  -0.985076  4.679065
C    -2.979746  0.036651  2.811930
H    -0.652439  -2.585707  2.664919
H    -1.588897  -1.946682  1.317667
H    -2.900656  -2.031252  3.335051
H    -2.413413  -0.780580  5.401943
H    -0.920419  -0.129745  4.718065
H    -1.061950  -1.870983  5.023989
H    -3.827651  0.224175  3.485100
H    -3.386391  -0.093400  1.798404
H    -2.363293  0.947637  2.814505
O    1.866363  -0.992631  0.401796
H    -1.117359  0.103152  0.430588
