22
Energy: -12020.1222976 eV PBE+vdW (tier 2 basis)
N    2.262255  -0.783524  0.780192
C    0.930000  -0.763288  1.382608
C    0.250828  0.534597  0.966879
O    0.642401  1.271565  0.085086
H    2.248908  -0.275749  -0.105433
H    2.560431  -1.740440  0.600007
H    0.261720  -1.554168  0.979262
C    1.028677  -0.954687  2.915924
C    -0.184495  -1.585307  3.622786
C    -0.375537  -3.056353  3.231037
C    -0.030543  -1.447603  5.142158
H    1.273916  0.014656  3.375408
H    1.909416  -1.593871  3.088157
H    -1.087574  -1.029545  3.326312
H    -1.259362  -3.483733  3.724428
H    0.496124  -3.658418  3.530871
H    -0.514805  -3.189092  2.148754
H    0.043637  -0.393195  5.442446
H    0.877494  -1.959641  5.496427
H    -0.886727  -1.888616  5.671389
O    -0.889370  0.784010  1.667804
H    -1.246394  1.615402  1.299499
