22
Energy: -12020.188526 eV PBE+vdW (tier 2 basis)
N    0.169039  -2.608057  0.845263
C    -0.353704  -1.250286  1.101827
C    0.853939  -0.285569  1.099209
O    2.014932  -0.896063  1.415740
H    -0.473017  -3.321260  1.188672
H    1.772058  -1.862859  1.448020
H    -1.045008  -0.898370  0.318869
C    -1.091013  -1.243092  2.464192
C    -2.230256  -0.220802  2.643682
C    -3.104419  -0.641083  3.833414
C    -1.748738  1.224128  2.813916
H    -0.361915  -1.141186  3.284438
H    -1.533614  -2.247101  2.580150
H    -2.856329  -0.269059  1.734495
H    -2.524554  -0.636530  4.768950
H    -3.518102  -1.651139  3.700931
H    -3.946032  0.052101  3.965943
H    -1.175101  1.576185  1.949735
H    -1.101548  1.315649  3.699728
H    -2.605202  1.897074  2.959018
O    0.781086  0.898196  0.857915
H    0.308498  -2.771879  -0.152107
