22
Energy: -12020.0713539 eV PBE+vdW (tier 2 basis)
N    0.107962  0.851324  1.220398
C    0.812004  -0.322024  1.739360
C    1.755941  -0.884404  0.683589
O    2.855988  -1.344409  0.903917
H    -0.424938  1.300853  1.963429
H    -0.549582  0.586673  0.486117
H    1.468817  0.023005  2.551269
C    -0.031900  -1.505326  2.289082
C    -0.911368  -1.167226  3.514512
C    -2.320807  -0.700523  3.123536
C    -0.998662  -2.370462  4.462489
H    0.677583  -2.301437  2.563881
H    -0.658465  -1.912567  1.478235
H    -0.417900  -0.346658  4.066887
H    -2.906249  -0.425713  4.012156
H    -2.863178  -1.506113  2.605625
H    -2.307221  0.167370  2.451995
H    -1.619446  -2.142257  5.340354
H    -0.004938  -2.672678  4.820281
H    -1.449072  -3.236971  3.954852
O    1.197289  -0.877658  -0.560409
H    1.861142  -1.280798  -1.152553
