22
Energy: -12020.2276306 eV PBE+vdW (tier 2 basis)
N    0.430453  -0.455012  -0.316929
C    0.546908  -0.298849  1.148079
C    2.051982  -0.257540  1.523118
O    2.858183  -0.087173  0.458460
H    0.335194  -1.437314  -0.575294
H    -0.386056  0.032380  -0.681124
H    0.178421  0.711748  1.389217
C    -0.206917  -1.305894  2.026429
C    0.193647  -2.788511  1.815486
C    0.346853  -3.506180  3.161358
C    -0.796453  -3.538229  0.912426
H    -1.289509  -1.180509  1.867711
H    -0.006132  -1.017230  3.066889
H    1.185340  -2.810371  1.328197
H    -0.600439  -3.493297  3.721948
H    1.112645  -3.017421  3.777520
H    0.636893  -4.557309  3.023852
H    -1.787910  -3.592478  1.387153
H    -0.462315  -4.567721  0.723386
H    -0.936337  -3.052466  -0.064664
O    2.460590  -0.338977  2.660178
H    2.219959  -0.079647  -0.311397
