22
Energy: -12020.243031 eV PBE+vdW (tier 2 basis)
N    -2.292822  -0.857939  4.745248
C    -1.438713  -0.504037  3.610308
C    -1.583120  0.965865  3.208620
O    -2.637909  1.549953  3.065165
H    -3.257466  -0.588597  4.538408
H    -2.019047  -0.329361  5.574610
H    -0.395270  -0.676837  3.906247
C    -1.794763  -1.402464  2.411215
C    -0.976032  -1.200231  1.125143
C    0.517961  -1.483088  1.327403
C    -1.551154  -2.073963  0.003686
H    -2.862289  -1.245138  2.185532
H    -1.696362  -2.442419  2.759963
H    -1.082620  -0.147364  0.809381
H    0.977264  -0.796866  2.050589
H    1.067134  -1.375333  0.381848
H    0.676140  -2.511377  1.687215
H    -1.010770  -1.915837  -0.939771
H    -2.612347  -1.851659  -0.175015
H    -1.471787  -3.142196  0.256754
O    -0.376113  1.575910  3.025873
H    -0.575915  2.494979  2.757578
