22
Energy: -12020.1053382 eV PBE+vdW (tier 2 basis)
N    0.290366  -0.520039  -0.205986
C    -0.027507  -0.205057  1.191573
C    1.215330  -0.339712  2.070497
O    1.586450  0.507197  2.859304
H    -0.571175  -0.546011  -0.752660
H    0.877302  0.207280  -0.615654
H    -0.356545  0.836942  1.345155
C    -1.131921  -1.161932  1.679509
C    -1.522245  -1.065396  3.163895
C    -2.042663  0.323597  3.554963
C    -2.552160  -2.151524  3.497186
H    -0.806677  -2.187117  1.447453
H    -2.026704  -0.965231  1.062180
H    -0.619736  -1.268848  3.766590
H    -2.365980  0.335791  4.604975
H    -2.910614  0.605289  2.938525
H    -1.275773  1.100027  3.440173
H    -2.174829  -3.153997  3.251634
H    -3.484316  -1.997908  2.931984
H    -2.807872  -2.140161  4.565532
O    1.855660  -1.527242  1.915110
H    2.604609  -1.502949  2.542063
