22
Energy: -12020.0225371 eV PBE+vdW (tier 2 basis)
N    0.104524  0.491594  1.128017
C    0.497961  -0.345300  2.253333
C    1.886342  -0.918593  1.959803
O    2.310846  -1.117649  0.846628
H    0.535309  0.116974  0.279204
H    -0.905996  0.489646  0.999720
H    0.581193  0.287695  3.157735
C    -0.451103  -1.531566  2.573243
C    -1.889020  -1.137594  2.956362
C    -2.749084  -2.398550  3.106543
C    -1.947555  -0.276843  4.223363
H    -0.024354  -2.128975  3.398450
H    -0.474260  -2.189921  1.690333
H    -2.319908  -0.549411  2.126090
H    -3.794079  -2.141941  3.327745
H    -2.380829  -3.030441  3.928904
H    -2.737564  -3.004687  2.190248
H    -2.987007  -0.038273  4.486037
H    -1.414871  0.676586  4.106521
H    -1.504801  -0.808078  5.080167
O    2.637879  -1.253093  3.047841
H    2.172377  -0.978580  3.857716
