22
Energy: -12020.0654917 eV PBE+vdW (tier 2 basis)
N    1.800212  -0.555470  0.435933
C    0.622396  -0.699290  1.312815
C    0.296579  0.716587  1.795563
O    -0.524396  1.438631  1.265565
H    1.561719  0.005486  -0.383234
H    2.080765  -1.475612  0.094769
H    -0.285086  -1.023982  0.769091
C    0.929684  -1.714520  2.421032
C    -0.291400  -2.289954  3.160749
C    0.154839  -3.417248  4.100127
C    -1.099263  -1.235287  3.927950
H    1.641408  -1.272913  3.134003
H    1.459191  -2.555388  1.942118
H    -0.957769  -2.732861  2.398573
H    -0.706780  -3.886914  4.594184
H    0.819727  -3.032330  4.888091
H    0.700949  -4.202551  3.558633
H    -1.538885  -0.478267  3.264677
H    -0.469750  -0.713467  4.663412
H    -1.929500  -1.706670  4.471931
O    1.055011  1.118769  2.847100
H    0.797351  2.045251  3.018917
