22
Energy: -12020.1184574 eV PBE+vdW (tier 2 basis)
N    -0.447303  -0.251181  0.495495
C    -0.352296  0.180395  1.890197
C    1.011736  0.775949  2.226231
O    1.405295  1.007190  3.349876
H    -1.417335  -0.467333  0.266349
H    -0.138681  0.485093  -0.137510
H    -1.030985  1.029378  2.129363
C    -0.741201  -0.952290  2.862434
C    -0.125573  -2.338495  2.598641
C    1.406994  -2.336318  2.609221
C    -0.680339  -3.340440  3.618936
H    -1.838726  -1.049442  2.832445
H    -0.490233  -0.614259  3.879148
H    -0.445747  -2.660121  1.594774
H    1.792821  -3.356715  2.475241
H    1.802870  -1.948793  3.559225
H    1.817280  -1.727911  1.792289
H    -1.779318  -3.372293  3.599701
H    -0.373527  -3.075130  4.642241
H    -0.313118  -4.356003  3.416008
O    1.730582  1.115550  1.117438
H    2.545805  1.535169  1.454258
