22
Energy: -12020.1902391 eV PBE+vdW (tier 2 basis)
N    0.473608  1.304136  2.450646
C    0.979621  -0.059479  2.555511
C    1.046881  -0.806158  1.219197
O    0.461399  -0.499104  0.201891
H    -0.434169  1.311383  1.984656
H    1.092131  1.857244  1.856323
H    2.015398  0.006886  2.922448
C    0.202473  -0.902378  3.600527
C    -1.120367  -1.566939  3.171945
C    -1.645461  -2.426916  4.329347
C    -2.199983  -0.581537  2.702420
H    0.020946  -0.231261  4.454504
H    0.875623  -1.696424  3.955026
H    -0.900638  -2.248016  2.330741
H    -0.899611  -3.165567  4.654760
H    -2.553743  -2.971696  4.037354
H    -1.898419  -1.802692  5.199911
H    -3.152776  -1.104454  2.539756
H    -1.937573  -0.101351  1.750427
H    -2.375720  0.203665  3.452614
O    1.857974  -1.901550  1.296805
H    1.822406  -2.325791  0.417190
