22
Energy: -12020.0980671 eV PBE+vdW (tier 2 basis)
N    -0.288801  -0.148774  -1.495510
C    -0.189585  -0.083479  -0.038942
C    1.255817  -0.078456  0.446666
O    1.579014  0.112170  1.600922
H    -1.268164  -0.212426  -1.774193
H    0.185257  -0.972986  -1.863674
H    -0.552631  0.913266  0.264702
C    -1.043758  -1.098176  0.775094
C    -0.911694  -2.588945  0.421193
C    0.483589  -3.162803  0.699717
C    -1.984608  -3.388980  1.171849
H    -2.095921  -0.802345  0.633449
H    -0.821874  -0.946017  1.843289
H    -1.114840  -2.701168  -0.658758
H    0.501663  -4.244711  0.508058
H    0.775010  -3.002695  1.748111
H    1.257837  -2.711084  0.066298
H    -2.994548  -3.014101  0.953694
H    -1.833961  -3.325309  2.260090
H    -1.953473  -4.451703  0.894428
O    2.167270  -0.309806  -0.538170
H    3.037913  -0.280321  -0.095544
