22
Energy: -12020.0710447 eV PBE+vdW (tier 2 basis)
N    -0.426292  -1.944058  0.476698
C    0.282614  -1.543677  1.698651
C    1.758425  -1.929268  1.620959
O    2.482443  -2.149210  2.568314
H    -1.365047  -1.547772  0.476665
H    0.052928  -1.588854  -0.350267
H    0.335252  -0.437948  1.824537
C    -0.377457  -2.139837  2.955047
C    -1.462721  -1.281328  3.639435
C    -0.880576  -0.018735  4.288207
C    -2.651177  -0.937032  2.731462
H    0.413971  -2.340164  3.689690
H    -0.800273  -3.112893  2.662166
H    -1.853974  -1.912779  4.455308
H    -0.057647  -0.264088  4.973208
H    -1.648880  0.520221  4.859951
H    -0.487229  0.683356  3.537353
H    -2.365400  -0.229123  1.937110
H    -3.455210  -0.455072  3.304776
H    -3.073390  -1.833985  2.256302
O    2.221966  -1.927776  0.337846
H    3.173675  -2.136978  0.401582
