22
Energy: -12019.9823977 eV PBE+vdW (tier 2 basis)
N    0.728730  1.073446  1.642349
C    0.994347  -0.011364  2.575760
C    1.478735  -1.229651  1.784520
O    1.310320  -1.379701  0.597216
H    -0.090743  1.611704  1.916731
H    0.565697  0.683480  0.711844
H    1.837889  0.280068  3.233937
C    -0.189033  -0.350774  3.526071
C    -1.482223  -0.891192  2.883199
C    -1.435369  -2.404326  2.631466
C    -2.691477  -0.530567  3.756119
H    -0.411420  0.589308  4.057250
H    0.151338  -1.050432  4.309962
H    -1.610262  -0.388652  1.909087
H    -2.375069  -2.748820  2.178455
H    -1.304123  -2.952636  3.577010
H    -0.624918  -2.699191  1.955047
H    -3.625796  -0.899125  3.311069
H    -2.786785  0.556762  3.886108
H    -2.603904  -0.979428  4.757624
O    2.131609  -2.185029  2.505385
H    2.201457  -1.899880  3.433790
