22
Energy: -12020.109741 eV PBE+vdW (tier 2 basis)
N    0.091548  -0.165265  3.821828
C    0.072878  -0.714318  2.453892
C    0.998680  0.147694  1.596038
O    0.707925  0.749214  0.586407
H    -0.483559  -0.751904  4.427146
H    1.039892  -0.183549  4.197724
H    0.496894  -1.739108  2.400353
C    -1.357067  -0.727241  1.910696
C    -1.586997  -1.580118  0.649186
C    -1.490124  -3.083946  0.937375
C    -2.943948  -1.235269  0.025177
H    -1.657879  0.312379  1.719343
H    -2.016632  -1.100210  2.713244
H    -0.808716  -1.315144  -0.084846
H    -2.267817  -3.397191  1.651228
H    -0.516698  -3.369984  1.359903
H    -1.629359  -3.670499  0.018726
H    -3.766517  -1.442262  0.727401
H    -3.127400  -1.826967  -0.882443
H    -2.996329  -0.172762  -0.248399
O    2.263565  0.156025  2.114190
H    2.788660  0.737421  1.530831
