22
Energy: -12020.2901178 eV PBE+vdW (tier 2 basis)
N    -1.145691  0.789899  -0.479884
C    -0.446096  0.318051  0.732779
C    1.050092  0.083850  0.399787
O    1.835686  -0.410354  1.177416
H    -1.688054  0.038794  -0.907164
H    -1.790724  1.549464  -0.272906
H    -0.419010  1.160214  1.442396
C    -1.084503  -0.874047  1.468841
C    -1.496745  -2.089769  0.617118
C    -0.334354  -2.724597  -0.157170
C    -2.182677  -3.127620  1.515532
H    -1.976160  -0.507173  2.001126
H    -0.366867  -1.196200  2.238513
H    -2.256476  -1.760236  -0.117690
H    -0.676764  -3.615645  -0.701216
H    0.471826  -3.031273  0.523565
H    0.108273  -2.044430  -0.897382
H    -3.038135  -2.695303  2.053388
H    -1.479636  -3.518792  2.265759
H    -2.549972  -3.979628  0.927515
O    1.397533  0.533087  -0.820866
H    0.531455  0.873710  -1.189457
