22
Energy: -12019.9924425 eV PBE+vdW (tier 2 basis)
N    0.233689  0.114247  0.256266
C    0.179002  -0.146574  1.705747
C    1.512651  -0.760615  2.169863
O    1.869616  -1.882793  1.900362
H    1.031006  0.711341  0.027824
H    0.392639  -0.770357  -0.232676
H    0.020212  0.828129  2.201570
C    -1.014042  -1.056731  2.016661
C    -1.516592  -1.057172  3.471499
C    -2.827513  -1.848854  3.560393
C    -0.493719  -1.598958  4.478782
H    -0.753084  -2.084335  1.712844
H    -1.830074  -0.723415  1.358383
H    -1.741727  -0.009463  3.743572
H    -3.587331  -1.450222  2.873943
H    -3.241680  -1.817278  4.577450
H    -2.665046  -2.905936  3.301353
H    -0.929315  -1.639491  5.486765
H    0.410372  -0.979156  4.545489
H    -0.173590  -2.615658  4.208859
O    2.358111  0.074872  2.855212
H    1.907413  0.923421  3.008840
