22
Energy: -12019.9715515 eV PBE+vdW (tier 2 basis)
N    0.524857  -2.029749  0.590152
C    0.038819  -0.658212  0.660207
C    1.032150  0.414493  1.179617
O    0.788409  1.598249  1.175042
H    1.289501  -2.196433  -0.056604
H    2.184688  -1.032582  1.534190
H    -0.178790  -0.345933  -0.373424
C    -1.279818  -0.527671  1.447835
C    -1.204628  -0.776791  2.973292
C    -2.224991  0.109619  3.699538
C    -1.421388  -2.247832  3.358410
H    -2.019842  -1.201983  0.991062
H    -1.629092  0.498913  1.275431
H    -0.202912  -0.471709  3.325098
H    -2.194261  -0.053206  4.785839
H    -3.248436  -0.111901  3.359761
H    -2.029824  1.173329  3.509624
H    -0.698247  -2.933033  2.896053
H    -2.421613  -2.585398  3.048239
H    -1.347954  -2.382544  4.446434
O    2.218214  -0.058626  1.647618
H    0.652160  -2.513001  1.473587
