22
Energy: -12020.0275335 eV PBE+vdW (tier 2 basis)
N    -0.411269  -2.714833  1.616433
C    -0.235832  -1.266607  1.568004
C    1.152793  -0.957714  0.988956
O    1.873376  -1.792685  0.494121
H    0.309659  -3.147312  1.034080
H    0.881110  0.870647  1.499437
H    -0.944077  -0.784841  0.863177
C    -0.440721  -0.635307  2.965096
C    -1.808585  -0.933981  3.601763
C    -1.841946  -0.414281  5.043444
C    -2.975460  -0.363245  2.787278
H    -0.325987  0.465219  2.918590
H    0.353817  -1.012734  3.626678
H    -1.908589  -2.030993  3.634290
H    -1.029905  -0.846990  5.643892
H    -2.792206  -0.666230  5.533858
H    -1.734203  0.681105  5.075150
H    -2.899464  0.731663  2.696430
H    -3.935572  -0.586564  3.271890
H    -3.023213  -0.777733  1.770347
O    1.549483  0.344036  1.025271
H    -1.320210  -2.992622  1.253815
