22
Energy: -12020.2664666 eV PBE+vdW (tier 2 basis)
N    0.174324  -0.381705  -0.226551
C    0.620490  -0.272486  1.181128
C    2.147840  -0.511305  1.250634
O    2.670835  -0.942520  0.088355
H    -0.668788  -0.945106  -0.315937
H    -0.024181  0.534287  -0.624393
H    0.464934  0.751725  1.552460
C    -0.104697  -1.221842  2.156310
C    0.228640  -2.725781  2.093471
C    -0.410681  -3.431719  3.296394
C    -0.189763  -3.413155  0.786471
H    -1.192041  -1.074190  2.033429
H    0.140481  -0.867800  3.167313
H    1.322383  -2.826171  2.193662
H    -0.151060  -4.498909  3.311365
H    -1.508830  -3.358755  3.261598
H    -0.075712  -2.991042  4.245177
H    -1.268893  -3.289663  0.598967
H    0.005803  -4.492854  0.840480
H    0.357509  -3.031495  -0.084579
O    2.799714  -0.338956  2.256940
H    1.878691  -0.939558  -0.525691
