22
Energy: -12020.1910507 eV PBE+vdW (tier 2 basis)
N    0.555126  0.934145  2.200761
C    0.923555  -0.458841  1.977219
C    1.622162  -0.684529  0.630951
O    1.478503  0.002514  -0.358946
H    -0.005265  1.264572  1.411898
H    1.391173  1.519627  2.210947
H    1.631319  -0.760252  2.765321
C    -0.294187  -1.408777  2.045135
C    -0.933031  -1.596090  3.437222
C    -1.827535  -0.424354  3.860775
C    -1.720125  -2.913255  3.471057
H    0.039195  -2.392423  1.681634
H    -1.055158  -1.057704  1.326637
H    -0.108391  -1.678211  4.167625
H    -2.245442  -0.597537  4.862748
H    -2.674393  -0.314757  3.165116
H    -1.272698  0.519930  3.868001
H    -2.535215  -2.903033  2.731073
H    -2.175095  -3.076231  4.457913
H    -1.077865  -3.777043  3.248554
O    2.433706  -1.781191  0.654287
H    2.799660  -1.866559  -0.247930
