22
Energy: -12020.11315 eV PBE+vdW (tier 2 basis)
N    0.355540  -0.238995  0.185036
C    -0.069807  -0.287955  1.592136
C    1.139376  -0.801591  2.363196
O    1.702403  -1.852333  2.138462
H    -0.434887  0.027661  -0.403185
H    0.647788  -1.173621  -0.109007
H    -0.266415  0.742500  1.916071
C    -1.322858  -1.164781  1.837598
C    -1.975189  -1.175328  3.238556
C    -1.176758  -1.962504  4.287099
C    -2.319541  0.232634  3.743087
H    -1.073683  -2.196752  1.542472
H    -2.075614  -0.807585  1.115243
H    -2.928943  -1.712758  3.098177
H    -1.774794  -2.104083  5.198104
H    -0.259621  -1.437268  4.585165
H    -0.889448  -2.955119  3.914739
H    -2.924387  0.180328  4.658815
H    -2.893850  0.801763  2.997784
H    -1.415521  0.809799  3.984803
O    1.537584  0.055312  3.342288
H    2.313196  -0.363143  3.766231
