22
Energy: -12020.130163 eV PBE+vdW (tier 2 basis)
N    0.437387  0.383520  0.251861
C    0.293076  -0.038261  1.655393
C    1.593268  -0.774153  1.968733
O    1.922576  -1.828274  1.466393
H    0.514313  -0.444273  -0.342948
H    -0.399238  0.888331  -0.042783
H    0.258384  0.871189  2.272677
C    -0.950745  -0.906874  1.941810
C    -1.360941  -1.092525  3.414828
C    -2.752932  -1.734145  3.485575
C    -0.352142  -1.908486  4.234030
H    -0.807740  -1.890783  1.463983
H    -1.787471  -0.422557  1.412114
H    -1.431970  -0.087137  3.868246
H    -3.094547  -1.829081  4.525546
H    -2.742458  -2.743511  3.046976
H    -3.499781  -1.141415  2.938857
H    -0.733947  -2.087448  5.248774
H    0.613224  -1.397956  4.339166
H    -0.166132  -2.887651  3.768531
O    2.372969  -0.104445  2.858753
H    3.184847  -0.640064  2.960485
