22
Energy: -12020.3172567 eV PBE+vdW (tier 2 basis)
N    -0.334307  -1.991742  0.360338
C    0.113305  -0.946672  1.304799
C    1.625580  -1.130387  1.587191
O    2.201407  -2.061112  0.804382
H    -0.840586  -2.732571  0.846833
H    1.437150  -2.394366  0.250532
H    0.046397  0.023011  0.786814
C    -0.676086  -0.876280  2.617231
C    -2.150961  -0.460283  2.485056
C    -2.855023  -0.596324  3.840623
C    -2.309511  0.959748  1.928499
H    -0.148905  -0.180199  3.286568
H    -0.618333  -1.865317  3.104970
H    -2.646998  -1.156150  1.783798
H    -2.408414  0.080274  4.584496
H    -2.776493  -1.619491  4.234069
H    -3.922156  -0.347118  3.762722
H    -3.369577  1.241643  1.869725
H    -1.890515  1.066170  0.917947
H    -1.804111  1.692738  2.574894
O    2.231752  -0.483681  2.412286
H    -0.955615  -1.619892  -0.354774
