22
Energy: -12020.1429978 eV PBE+vdW (tier 2 basis)
N    1.178376  -0.163017  1.739104
C    0.932247  -1.528668  2.201546
C    1.609752  -2.630364  1.379436
O    2.159274  -3.610394  1.837767
H    2.179769  0.029363  1.707112
H    0.825723  -0.043478  0.788382
H    1.363497  -1.628688  3.208757
C    -0.574024  -1.856513  2.290779
C    -1.356386  -1.156352  3.421319
C    -1.674639  0.314567  3.124438
C    -2.644392  -1.936502  3.717300
H    -0.658715  -2.944716  2.436277
H    -1.046107  -1.640886  1.316604
H    -0.725394  -1.193659  4.327026
H    -2.223207  0.768977  3.961757
H    -2.311215  0.399005  2.229525
H    -0.762966  0.894595  2.945168
H    -3.299446  -1.964389  2.832868
H    -3.212486  -1.465986  4.531700
H    -2.432911  -2.974712  4.009328
O    1.516211  -2.406192  0.033963
H    1.949039  -3.170991  -0.392156
