22
Energy: -12020.0912191 eV PBE+vdW (tier 2 basis)
N    -0.090589  0.113993  3.764123
C    -0.042647  -0.568747  2.465623
C    1.403004  -0.890484  2.086113
O    1.839338  -0.973069  0.958262
H    0.391431  -0.432031  4.477670
H    -1.058696  0.220049  4.064272
H    -0.516190  -1.578843  2.486150
C    -0.738998  0.249994  1.366103
C    -2.217415  -0.093864  1.109358
C    -3.118874  0.079135  2.339089
C    -2.744829  0.737345  -0.066272
H    -0.183727  0.100349  0.430491
H    -0.637910  1.314911  1.631662
H    -2.257780  -1.157342  0.812262
H    -2.846635  -0.604139  3.156851
H    -4.167918  -0.131184  2.088309
H    -3.072325  1.109943  2.723143
H    -2.733777  1.811122  0.175136
H    -3.779443  0.464314  -0.316127
H    -2.130929  0.593148  -0.965922
O    2.167559  -1.161727  3.182812
H    3.050351  -1.396872  2.837892
