22
Energy: -12020.0422603 eV PBE+vdW (tier 2 basis)
N    1.119436  -1.328649  1.101620
C    0.209369  -0.235946  0.758276
C    0.139135  0.826786  1.851953
O    -0.669377  1.730837  1.883391
H    2.032830  -0.968997  1.375750
H    1.256634  -1.929728  0.289257
H    0.566466  0.366233  -0.107717
C    -1.194478  -0.730189  0.347698
C    -1.951359  -1.721031  1.264965
C    -1.471892  -3.174189  1.130728
C    -1.993973  -1.292459  2.736808
H    -1.103051  -1.185906  -0.651596
H    -1.804957  0.174122  0.214539
H    -2.989690  -1.695984  0.890290
H    -0.475170  -3.305470  1.569480
H    -1.427355  -3.486039  0.076633
H    -2.162956  -3.856354  1.646365
H    -0.992706  -1.327977  3.190031
H    -2.633958  -1.974485  3.313956
H    -2.392204  -0.276411  2.856940
O    1.146956  0.718608  2.764024
H    1.032299  1.477229  3.368607
