22
Energy: -12020.1958264 eV PBE+vdW (tier 2 basis)
N    0.095535  -0.411157  -0.109795
C    0.034388  0.097535  1.279481
C    1.456748  0.503704  1.734537
O    2.415089  0.158370  0.854224
H    -0.426711  -1.276384  -0.225141
H    -0.278709  0.267200  -0.770230
H    -0.539679  1.036865  1.310109
C    -0.655354  -0.847458  2.285715
C    -0.080888  -2.253380  2.586069
C    -0.069733  -3.212130  1.385687
C    1.288836  -2.236018  3.277590
H    -1.699207  -0.963738  1.949704
H    -0.700263  -0.294318  3.234957
H    -0.799023  -2.671434  3.312987
H    0.139047  -4.238312  1.717714
H    0.712507  -2.949791  0.658936
H    -1.039415  -3.233160  0.864274
H    1.541747  -3.241931  3.640666
H    1.302878  -1.551207  4.135005
H    2.093023  -1.927779  2.596139
O    1.677870  1.087439  2.772375
H    1.890131  -0.266179  0.112888
