22
Energy: -12020.1550938 eV PBE+vdW (tier 2 basis)
N    0.762687  -0.854191  -0.093324
C    0.085964  0.022363  0.855416
C    0.666271  0.121411  2.277054
O    0.190677  0.789385  3.171333
H    1.749806  -0.610521  -0.165134
H    0.732316  -1.823501  0.222637
H    0.200384  1.053627  0.478083
C    -1.434618  -0.242463  0.891236
C    -1.886242  -1.692871  1.142082
C    -1.419434  -2.258903  2.489768
C    -3.413745  -1.774157  1.023272
H    -1.833160  0.077358  -0.082237
H    -1.873931  0.417207  1.654390
H    -1.465627  -2.322493  0.338804
H    -1.768289  -1.634108  3.324788
H    -0.325293  -2.328701  2.564000
H    -1.815397  -3.272830  2.640751
H    -3.901226  -1.169986  1.803401
H    -3.766405  -2.808719  1.135233
H    -3.761517  -1.403986  0.048819
O    1.827507  -0.581807  2.433709
H    2.110272  -0.409115  3.352918
