22
Energy: -12020.0094369 eV PBE+vdW (tier 2 basis)
N    -0.000340  1.257027  0.072027
C    -0.268741  0.682423  1.399410
C    1.002426  0.636740  2.266112
O    1.270367  1.461118  3.107977
H    0.655097  0.679374  -0.457898
H    0.425954  2.179971  0.165047
H    -0.934129  1.384793  1.918309
C    -0.972348  -0.669759  1.248815
C    -1.355258  -1.382133  2.559148
C    -2.319091  -0.547811  3.412579
C    -1.947769  -2.762030  2.250572
H    -0.343754  -1.348999  0.638409
H    -1.872413  -0.496272  0.637931
H    -0.435710  -1.538993  3.150128
H    -3.236999  -0.311799  2.852850
H    -1.870832  0.398307  3.742778
H    -2.613481  -1.100153  4.315101
H    -1.250895  -3.381339  1.667898
H    -2.878016  -2.670758  1.669667
H    -2.185532  -3.306346  3.174383
O    1.899668  -0.363722  1.988745
H    1.505798  -0.980637  1.345010
