22
Energy: -12020.2168138 eV PBE+vdW (tier 2 basis)
N    0.137306  0.167165  0.157900
C    -0.060583  0.284332  1.616079
C    1.257957  0.783910  2.240508
O    2.342542  0.498623  1.490336
H    -0.487936  -0.530639  -0.244765
H    -0.042408  1.051376  -0.317674
H    -0.829377  1.024339  1.890987
C    -0.488704  -1.092822  2.164417
C    -0.646966  -1.225759  3.696185
C    -1.820156  -2.157708  4.026468
C    0.639237  -1.722275  4.369674
H    0.222768  -1.852364  1.798705
H    -1.455041  -1.316435  1.682064
H    -0.878901  -0.228146  4.103196
H    -1.944114  -2.266941  5.112530
H    -1.655163  -3.163859  3.610784
H    -2.766914  -1.777227  3.617192
H    0.514417  -1.766925  5.460241
H    1.494715  -1.067745  4.166724
H    0.891284  -2.736107  4.021931
O    1.322880  1.358654  3.304373
H    1.954156  0.132553  0.648145
