22
Energy: -12019.9934299 eV PBE+vdW (tier 2 basis)
N    -0.705901  -0.186032  0.238739
C    -0.100191  -0.355439  1.550192
C    1.423782  -0.633080  1.576637
O    1.978373  -0.963376  0.379867
H    -0.330024  0.551042  -0.348797
H    1.250491  -0.916651  -0.277047
H    -0.209937  0.592743  2.099619
C    -0.794404  -1.468698  2.360041
C    -2.247736  -1.224545  2.826983
C    -2.402925  0.097233  3.588013
C    -3.299232  -1.352977  1.716484
H    -0.168920  -1.636226  3.247673
H    -0.751946  -2.404142  1.774446
H    -2.442437  -2.038336  3.546983
H    -1.650592  0.200484  4.382696
H    -3.394779  0.160924  4.055863
H    -2.307786  0.963114  2.916440
H    -3.190993  -2.301237  1.169491
H    -3.220065  -0.533347  0.991203
H    -4.312676  -1.332985  2.141482
O    2.090191  -0.572797  2.583114
H    -0.919296  -1.036673  -0.273123
