22
Energy: -12020.1535459 eV PBE+vdW (tier 2 basis)
N    0.453621  1.341390  2.087318
C    0.124846  -0.065150  2.322683
C    1.351367  -0.948247  2.149769
O    1.579316  -1.954533  2.786969
H    0.742021  1.486136  1.118654
H    -0.367648  1.924085  2.248532
H    -0.148650  -0.171655  3.381516
C    -1.010841  -0.671485  1.452343
C    -2.380743  0.012196  1.599194
C    -3.370531  -0.581441  0.589169
C    -2.934011  -0.078562  3.026334
H    -1.112539  -1.739489  1.708056
H    -0.696737  -0.626392  0.396455
H    -2.257502  1.080646  1.346124
H    -2.997537  -0.490492  -0.440504
H    -4.343431  -0.073342  0.640767
H    -3.542593  -1.649984  0.788118
H    -3.925155  0.390623  3.092339
H    -2.287958  0.421261  3.761061
H    -3.040516  -1.128006  3.339909
O    2.156479  -0.523388  1.134185
H    2.885742  -1.171169  1.085009
