22
Energy: -12020.1204926 eV PBE+vdW (tier 2 basis)
N    -0.207038  1.021078  0.637198
C    0.050491  -0.014009  1.633521
C    1.258623  -0.895031  1.304887
O    1.781506  -1.006810  0.215135
H    -0.272574  0.606502  -0.292932
H    0.586953  1.661059  0.595597
H    0.308952  0.500813  2.572224
C    -1.219886  -0.843336  1.964913
C    -1.746642  -1.920046  0.986405
C    -1.987497  -1.421046  -0.445328
C    -0.915975  -3.211928  0.979496
H    -2.007488  -0.090065  2.113319
H    -1.056400  -1.328136  2.938967
H    -2.734877  -2.186341  1.400500
H    -2.552943  -2.167200  -1.020766
H    -1.039677  -1.262060  -0.981040
H    -2.556514  -0.481808  -0.461468
H    -1.450290  -4.006356  0.439775
H    -0.720219  -3.571733  1.998961
H    0.050172  -3.079120  0.474587
O    1.714593  -1.554444  2.408849
H    2.465810  -2.100894  2.105996
