22
Energy: -12020.1319587 eV PBE+vdW (tier 2 basis)
N    2.138556  -0.941620  1.224434
C    0.721498  -0.629765  1.020951
C    0.429369  0.617016  1.842177
O    0.797272  0.793981  2.984965
H    2.340901  -1.881480  0.882379
H    2.341643  -0.931168  2.226318
H    0.565977  -0.375209  -0.038318
C    -0.244869  -1.788371  1.387117
C    -1.747113  -1.570561  1.100519
C    -2.415879  -2.895546  0.711160
C    -2.484334  -0.933621  2.286362
H    -0.093478  -2.048940  2.447581
H    0.109989  -2.652103  0.801749
H    -1.831244  -0.886826  0.237654
H    -3.486459  -2.757066  0.505217
H    -2.328355  -3.633191  1.523560
H    -1.954340  -3.330752  -0.186292
H    -2.473612  -1.609394  3.154803
H    -3.534797  -0.733590  2.033560
H    -2.036932  0.015718  2.604380
O    -0.315933  1.525418  1.156741
H    -0.469857  2.268069  1.773981
