22
Energy: -12019.9518525 eV PBE+vdW (tier 2 basis)
N    -0.818889  0.223439  0.177410
C    -0.325548  -0.002257  1.549150
C    1.103020  0.546623  1.697280
O    1.354331  1.638207  2.152947
H    -0.725542  1.210040  -0.069640
H    -0.266711  -0.302032  -0.503654
H    -0.937300  0.626915  2.208698
C    -0.529332  -1.475920  1.926166
C    -0.395789  -1.863582  3.415587
C    1.032257  -1.760861  3.967526
C    -1.384999  -1.095306  4.302918
H    0.141874  -2.121776  1.325196
H    -1.543931  -1.728667  1.582877
H    -0.682149  -2.928288  3.456530
H    1.751327  -2.321294  3.353326
H    1.078751  -2.172768  4.984911
H    1.381263  -0.720545  4.026021
H    -1.391445  -1.509018  5.320337
H    -2.410474  -1.152892  3.911679
H    -1.115386  -0.032984  4.388853
O    2.115210  -0.220088  1.180930
H    1.762462  -1.096944  0.942953
