22
Energy: -12020.2972681 eV PBE+vdW (tier 2 basis)
N    0.202101  -0.020517  -0.312575
C    -0.189613  0.237642  1.088268
C    1.086312  0.275230  1.955977
O    1.127324  0.757877  3.066495
H    -0.510727  -0.558833  -0.804016
H    0.342897  0.846866  -0.829373
H    -0.685162  1.212069  1.212906
C    -1.135814  -0.883365  1.562734
C    -1.652837  -0.809284  3.009488
C    -2.436931  0.478103  3.288077
C    -2.504207  -2.049624  3.307334
H    -0.622139  -1.847609  1.412083
H    -2.004897  -0.881078  0.879728
H    -0.781574  -0.822153  3.682444
H    -3.277038  0.593507  2.584918
H    -1.798646  1.367672  3.215309
H    -2.856655  0.462606  4.303079
H    -1.939358  -2.977621  3.139964
H    -3.399357  -2.082464  2.666848
H    -2.845128  -2.050053  4.351370
O    2.147096  -0.310935  1.366346
H    1.808352  -0.532037  0.452596
