22
Energy: -12020.1299104 eV PBE+vdW (tier 2 basis)
N    0.604815  0.177302  0.451226
C    0.226483  -0.008426  1.849589
C    1.352813  -0.099795  2.886497
O    1.211217  0.105245  4.074443
H    1.165262  1.022602  0.343994
H    1.179491  -0.594742  0.116714
H    -0.336378  0.888852  2.148331
C    -0.740968  -1.203304  2.048043
C    -0.153375  -2.625685  2.131368
C    -1.279569  -3.611285  2.471496
C    0.590071  -3.080520  0.867423
H    -1.467686  -1.147849  1.222356
H    -1.296418  -1.018677  2.978619
H    0.563644  -2.646413  2.970943
H    -0.888440  -4.629363  2.604042
H    -2.029120  -3.645880  1.666187
H    -1.797778  -3.326373  3.397480
H    0.863605  -4.142300  0.942721
H    1.524734  -2.525519  0.711164
H    -0.037636  -2.962677  -0.028358
O    2.555934  -0.455945  2.346760
H    3.174861  -0.502953  3.101543
