22
Energy: -12020.2558867 eV PBE+vdW (tier 2 basis)
N    1.996578  -0.092319  3.161164
C    0.979500  -0.312718  2.140614
C    0.496456  0.976776  1.473074
O    0.531544  2.082567  1.972214
H    2.844602  0.285189  2.737619
H    1.669391  0.623653  3.813943
H    1.410504  -0.945323  1.350658
C    -0.250436  -1.033324  2.737230
C    0.047411  -2.402504  3.371725
C    -1.210526  -2.933847  4.068918
C    0.578965  -3.414736  2.351474
H    -1.008707  -1.150363  1.946485
H    -0.693987  -0.370525  3.499367
H    0.827894  -2.246796  4.132728
H    -1.580740  -2.227270  4.825186
H    -1.009878  -3.888992  4.573692
H    -2.024106  -3.105437  3.347110
H    1.538989  -3.100779  1.920278
H    -0.133610  -3.557952  1.524217
H    0.741409  -4.394010  2.822399
O    -0.014340  0.746500  0.229188
H    -0.331914  1.611210  -0.097283
