22
Energy: -12020.055105 eV PBE+vdW (tier 2 basis)
N    -0.405729  -1.206648  0.760042
C    -0.130716  -0.302161  1.881651
C    0.390299  1.045475  1.387420
O    1.089364  1.806155  2.021155
H    -0.998450  -1.975149  1.071970
H    -0.917884  -0.715756  0.027845
H    -1.055196  -0.021605  2.438727
C    0.842389  -0.900615  2.906562
C    0.311114  -2.134436  3.671544
C    0.656292  -3.459472  2.975524
C    0.841637  -2.142703  5.111210
H    1.078156  -0.099115  3.619252
H    1.783913  -1.152850  2.393930
H    -0.790387  -2.050141  3.728591
H    0.338767  -3.482109  1.925705
H    0.192846  -4.310963  3.493386
H    1.745017  -3.620267  2.982721
H    0.478311  -3.018726  5.666840
H    0.532446  -1.241738  5.658805
H    1.941702  -2.177526  5.120630
O    -0.075961  1.354530  0.141826
H    0.279071  2.241821  -0.059337
