22
Energy: -12020.1970019 eV PBE+vdW (tier 2 basis)
N    1.969764  -0.600712  0.540258
C    0.771379  -0.853755  1.364051
C    0.021081  0.463347  1.564892
O    0.345060  1.355183  2.322917
H    1.703467  -0.203710  -0.362494
H    2.561770  0.093434  1.002616
H    0.126011  -1.539402  0.796249
C    1.180181  -1.499661  2.691718
C    0.082213  -2.287471  3.428698
C    0.683274  -2.984758  4.655339
C    -1.125362  -1.431223  3.832180
H    1.586434  -0.718201  3.355601
H    2.009168  -2.183278  2.456114
H    -0.276475  -3.073192  2.739400
H    1.529203  -3.629446  4.378845
H    -0.064421  -3.609366  5.163320
H    1.050501  -2.247325  5.385096
H    -1.665285  -1.031733  2.962948
H    -0.816918  -0.578993  4.455169
H    -1.845428  -2.027135  4.410194
O    -1.038691  0.579717  0.708875
H    -1.408924  1.471680  0.861013
