22
Energy: -12020.134632 eV PBE+vdW (tier 2 basis)
N    0.108019  -0.635384  -0.201962
C    0.051549  -0.130048  1.169216
C    1.458214  0.209341  1.639381
O    2.468693  0.089365  0.977106
H    1.004044  -0.385672  -0.623055
H    -0.635593  -0.234789  -0.768460
H    -0.498365  0.829273  1.235356
C    -0.663661  -1.100177  2.145834
C    0.097955  -2.363188  2.591164
C    -0.665809  -3.036226  3.739658
C    0.363646  -3.364661  1.460483
H    -1.608741  -1.394247  1.661028
H    -0.937749  -0.525525  3.043462
H    1.074480  -2.041307  2.995085
H    -0.128720  -3.922458  4.105163
H    -1.661811  -3.368101  3.408003
H    -0.806848  -2.352737  4.588888
H    0.890653  -4.248070  1.848953
H    0.961189  -2.927461  0.653959
H    -0.581574  -3.707273  1.013036
O    1.468472  0.694876  2.911008
H    2.404708  0.882241  3.116563
