22
Energy: -12020.1285238 eV PBE+vdW (tier 2 basis)
N    0.001364  0.559129  0.471791
C    -0.005409  -0.028414  1.809015
C    1.367557  -0.321448  2.424633
O    1.638271  -0.225422  3.603758
H    0.415879  -0.089019  -0.199348
H    0.573078  1.403784  0.453195
H    -0.461804  0.697794  2.497236
C    -0.823958  -1.337176  1.866780
C    -2.341296  -1.241672  1.578492
C    -3.026346  -0.132898  2.385684
C    -2.684190  -1.137439  0.086150
H    -0.691670  -1.748933  2.878964
H    -0.368076  -2.066041  1.175758
H    -2.749810  -2.203336  1.935272
H    -2.731999  0.863910  2.027193
H    -2.782908  -0.196138  3.456144
H    -4.118359  -0.202880  2.288368
H    -2.207941  -1.944565  -0.489357
H    -2.348096  -0.181007  -0.332233
H    -3.769953  -1.219864  -0.065756
O    2.281005  -0.736966  1.496375
H    3.098019  -0.924280  1.997824
