22
Energy: -12020.1609719 eV PBE+vdW (tier 2 basis)
N    0.423807  1.072096  1.747449
C    0.999714  -0.071402  2.447694
C    1.378112  -1.220149  1.504713
O    0.996001  -1.346791  0.359662
H    1.151813  1.543213  1.209217
H    -0.247370  0.740681  1.051202
H    1.933823  0.261603  2.925524
C    0.098254  -0.608127  3.586719
C    -1.255003  -1.228779  3.172240
C    -1.670619  -2.309703  4.178833
C    -2.367337  -0.179786  3.030481
H    -0.074508  0.227166  4.282175
H    0.687241  -1.360057  4.131618
H    -1.125747  -1.723614  2.193419
H    -1.775264  -1.885206  5.189256
H    -0.927461  -3.117569  4.231164
H    -2.637246  -2.756419  3.907095
H    -3.297334  -0.640461  2.668989
H    -2.096009  0.630273  2.343666
H    -2.583007  0.283463  4.005483
O    2.203267  -2.124094  2.106004
H    2.367871  -2.822337  1.442397
