22
Energy: -12020.1699671 eV PBE+vdW (tier 2 basis)
N    0.054564  -0.899733  0.215297
C    -0.201799  -0.089980  1.402952
C    1.095615  0.583668  1.828267
O    2.119084  0.603226  1.173755
H    -0.739489  -0.879846  -0.420567
H    0.873561  -0.538970  -0.275535
H    -0.866051  0.776127  1.195836
C    -0.907448  -0.901464  2.516613
C    -0.271549  -2.248914  2.897459
C    1.128266  -2.113044  3.508032
C    -1.208212  -3.006663  3.846387
H    -1.931116  -1.096453  2.158110
H    -1.012571  -0.261901  3.406440
H    -0.174589  -2.830687  1.967587
H    1.507154  -3.095553  3.822577
H    1.118280  -1.460475  4.394079
H    1.854614  -1.706400  2.792285
H    -2.204564  -3.147249  3.403379
H    -1.339955  -2.463902  4.795381
H    -0.806980  -4.000738  4.087952
O    0.973252  1.239972  3.013394
H    1.837932  1.665981  3.169321
