22
Energy: -12020.150913 eV PBE+vdW (tier 2 basis)
N    -0.235338  0.413416  -0.324452
C    -0.859934  0.496597  1.006552
C    -0.008665  1.329002  1.962301
O    -0.299128  2.429497  2.387327
H    0.674542  -0.046617  -0.258213
H    -0.068067  1.348618  -0.698497
H    -1.794186  1.061128  0.888818
C    -1.171514  -0.923280  1.504643
C    -2.052897  -1.072549  2.763907
C    -1.351070  -0.670787  4.068937
C    -3.406345  -0.362754  2.624169
H    -0.222086  -1.459698  1.662284
H    -1.673585  -1.419494  0.660176
H    -2.258555  -2.154519  2.832562
H    -1.203988  0.415904  4.140125
H    -0.367825  -1.151684  4.163151
H    -1.955505  -0.968278  4.937137
H    -4.070728  -0.625706  3.458724
H    -3.915900  -0.641894  1.690878
H    -3.294251  0.731147  2.633604
O    1.185764  0.728403  2.251706
H    1.668031  1.358814  2.820220
