22
Energy: -12020.2743314 eV PBE+vdW (tier 2 basis)
N    -0.540179  1.353617  1.054434
C    0.057864  0.309760  1.917248
C    1.559756  0.159797  1.549033
O    2.291722  -0.649270  2.075761
H    -1.243355  0.958778  0.431778
H    -0.989042  2.090576  1.592830
H    0.061113  0.666672  2.960176
C    -0.640683  -1.057204  1.865318
C    -1.851134  -1.249914  2.796305
C    -3.007881  -0.275902  2.538013
C    -2.341389  -2.700635  2.708258
H    0.114854  -1.813056  2.120831
H    -0.935949  -1.260833  0.819190
H    -1.491791  -1.079512  3.826895
H    -2.728554  0.769498  2.724987
H    -3.859852  -0.503831  3.193410
H    -3.366349  -0.349730  1.499142
H    -2.718574  -2.928630  1.699542
H    -3.159748  -2.887403  3.416994
H    -1.533906  -3.411496  2.930004
O    1.961602  1.028402  0.607341
H    1.117474  1.532314  0.400510
