22
Energy: -12019.9165458 eV PBE+vdW (tier 2 basis)
N    -0.823236  0.084679  0.290649
C    -0.153807  -0.227128  1.564602
C    1.368311  -0.344838  1.346566
O    1.862317  -1.585000  1.038902
H    -0.386855  0.903223  -0.136645
H    1.151704  -2.245042  1.137478
H    -0.266428  0.655867  2.208165
C    -0.775526  -1.442868  2.264544
C    -2.238790  -1.319375  2.759533
C    -2.473808  -0.045569  3.580272
C    -3.280457  -1.463494  1.642097
H    -0.141918  -1.676885  3.135450
H    -0.727848  -2.326970  1.597725
H    -2.376563  -2.175966  3.441630
H    -1.726246  0.072502  4.377985
H    -3.463753  -0.073176  4.055253
H    -2.442101  0.852772  2.947763
H    -3.131222  -2.393666  1.074322
H    -3.224470  -0.625746  0.936709
H    -4.294474  -1.495081  2.064903
O    2.110155  0.609685  1.352476
H    -0.717984  -0.686922  -0.371380
