22
Energy: -12020.2039066 eV PBE+vdW (tier 2 basis)
N    -0.071112  0.623721  0.859102
C    0.649179  -0.328336  1.698500
C    1.824587  -0.864213  0.900693
O    1.861499  -0.960648  -0.308549
H    -1.027579  0.746709  1.187856
H    -0.108684  0.266677  -0.097793
H    1.064376  0.200367  2.570941
C    -0.165680  -1.549732  2.209040
C    -1.388745  -1.201909  3.075495
C    -2.169232  -2.480146  3.406507
C    -1.011483  -0.441679  4.352202
H    0.506228  -2.202130  2.791154
H    -0.496834  -2.129777  1.332238
H    -2.061844  -0.558044  2.480697
H    -3.078161  -2.253015  3.980479
H    -1.558367  -3.168553  4.009824
H    -2.471127  -3.014476  2.495015
H    -1.901515  -0.238099  4.963114
H    -0.534373  0.524258  4.138440
H    -0.313311  -1.029476  4.967287
O    2.840487  -1.279836  1.705822
H    3.517695  -1.655197  1.109997
