22
Energy: -12020.0064416 eV PBE+vdW (tier 2 basis)
N    1.350374  -1.047882  0.693458
C    0.249875  -0.084297  0.713343
C    0.259023  0.775138  1.971764
O    -0.421661  1.769149  2.118879
H    1.369704  -1.600756  1.548762
H    1.228541  -1.696971  -0.083362
H    0.453053  0.653411  -0.082615
C    -1.186817  -0.599087  0.402614
C    -1.849400  -1.690473  1.273937
C    -1.240979  -3.091939  1.110477
C    -1.973844  -1.315957  2.756384
H    -1.165222  -0.960518  -0.638660
H    -1.838110  0.288505  0.400745
H    -2.877226  -1.753934  0.875556
H    -0.266499  -3.183098  1.608758
H    -1.101533  -3.353260  0.051697
H    -1.901251  -3.850257  1.554623
H    -0.996850  -1.315862  3.260113
H    -2.605672  -2.043889  3.284104
H    -2.421692  -0.322145  2.889788
O    1.108477  0.323374  2.936189
H    1.015708  0.951748  3.678444
