22
Energy: -12020.1779202 eV PBE+vdW (tier 2 basis)
N    0.844263  -2.009880  1.860328
C    0.294787  -0.687546  1.590280
C    1.020174  0.435534  2.340293
O    1.649567  0.303753  3.369410
H    1.836215  -2.032295  1.620334
H    0.798233  -2.199011  2.863883
H    0.412302  -0.478008  0.516096
C    -1.206947  -0.595264  1.944375
C    -2.180996  -1.504236  1.157462
C    -1.969184  -1.421933  -0.358632
C    -2.196543  -2.961155  1.639408
H    -1.510755  0.450730  1.789259
H    -1.319348  -0.791447  3.024005
H    -3.180315  -1.085226  1.369344
H    -1.024129  -1.898179  -0.656845
H    -1.954882  -0.381297  -0.714307
H    -2.776791  -1.943237  -0.890528
H    -2.371148  -3.019489  2.723551
H    -1.243633  -3.459381  1.424522
H    -3.002295  -3.521685  1.144049
O    0.870695  1.641930  1.719422
H    1.331730  2.294323  2.282292
