26
Energy: -172746.827538 eV PBE+vdW (tier 2 basis)
C    -1.045236  -0.462654  -0.231165
C    -0.678521  -0.731815  1.190027
O    0.372917  -1.122245  1.623826
H    -0.869043  0.605306  -0.441998
H    -2.098186  -0.673361  -0.458181
H    -0.390045  -1.041091  -0.890535
N    -1.762147  -0.476598  2.186459
C    -1.237791  -0.213061  3.556546
C    -0.684906  -1.526669  4.170844
O    -1.281863  -2.640818  4.006934
H    -2.406122  0.254949  1.866561
H    -0.380994  0.471536  3.464505
C    -2.272003  0.502936  4.466693
C    -3.664718  -0.081627  4.680951
O    -4.454605  0.516958  5.538422
O    -4.148202  -1.064727  4.089873
H    -2.420252  1.526870  4.081583
H    -1.809806  0.636259  5.457684
N    0.391047  -1.436567  4.924014
C    1.032747  -2.569743  5.603632
H    0.880804  -0.544407  4.949693
H    1.482019  -2.209282  6.533954
H    1.815524  -2.991401  4.959642
H    0.286188  -3.336821  5.823098
H    -4.061635  1.291914  5.987855
Cd    -3.025514  -2.400511  2.771945
