26
Energy: -172746.335628 eV PBE+vdW (tier 2 basis)
C    -0.335901  -0.544961  -0.432519
C    -0.540091  0.148768  0.872961
O    0.341741  0.159251  1.755863
H    0.563224  -0.141006  -0.916790
H    -1.190466  -0.463265  -1.112491
H    -0.133122  -1.606839  -0.233096
N    -1.746281  0.771731  1.088355
C    -1.946625  1.457858  2.350332
C    -3.395369  1.828730  2.717014
O    -3.642791  2.867181  3.444234
H    -2.356223  0.942992  0.294590
H    -1.668865  0.721985  3.130950
C    -0.967165  2.675471  2.479750
C    -0.133060  2.534373  3.737366
O    0.765687  1.631555  3.765632
O    -0.346660  3.236667  4.785901
H    -1.486206  3.642652  2.429279
H    -0.289453  2.665408  1.618339
N    -4.434592  1.092405  2.373664
C    -4.537870  -0.188060  1.656424
H    -5.319756  1.471283  2.719634
H    -5.385939  -0.731301  2.086568
H    -3.633830  -0.786434  1.784762
H    -4.741040  -0.021301  0.590641
H    0.684905  1.015721  2.902162
Cd    -2.361798  3.876981  4.815816
