26
Energy: -172745.9052 eV PBE+vdW (tier 2 basis)
C    -1.475739  1.415713  0.198092
C    -0.359820  0.716674  0.929446
O    0.803321  1.067050  0.873673
H    -1.076040  2.341023  -0.226801
H    -2.315914  1.662243  0.862088
H    -1.845632  0.798071  -0.634471
N    -0.667552  -0.392652  1.747538
C    -1.887987  -1.155923  1.751160
C    -2.684814  -1.000169  3.075708
O    -3.806124  -1.593776  3.272635
H    0.176503  -0.836015  2.113195
H    -2.547850  -0.726905  0.978753
C    -1.623484  -2.675485  1.420192
C    -2.417299  -3.203510  0.243414
O    -1.820530  -3.716524  -0.798532
O    -3.670530  -3.183063  0.188416
H    -1.869653  -3.315806  2.282413
H    -0.549734  -2.807069  1.242750
N    -2.173042  -0.221408  3.997060
C    -2.758576  0.092580  5.302904
H    -1.273757  0.201137  3.750224
H    -2.166727  -0.387477  6.092523
H    -3.788529  -0.268027  5.343040
H    -2.732518  1.178414  5.448428
H    -0.844122  -3.726773  -0.739162
Cd    -4.982017  -2.634150  1.824581
