26
Energy: -172746.607279 eV PBE+vdW (tier 2 basis)
C    -0.006443  0.880494  1.017587
C    0.322076  0.082031  2.225732
O    1.535027  -0.110828  2.561299
H    0.578391  1.811564  1.058747
H    -1.068271  1.130220  0.931608
H    0.330923  0.346580  0.117201
N    -0.656247  -0.426443  3.026506
C    -1.923936  -1.070401  2.598897
C    -2.630131  -1.512411  3.874354
O    -2.076490  -2.446457  4.600534
H    -0.269548  -0.816344  3.886442
H    -2.537452  -0.351700  2.047923
C    -1.675020  -2.332150  1.682178
C    -0.263637  -2.820187  1.981961
O    0.037423  -3.112400  3.199898
O    0.623489  -2.684248  1.092978
H    -1.740672  -2.048667  0.627942
H    -2.419250  -3.116956  1.873393
N    -3.768801  -1.031901  4.295380
C    -4.612255  0.038309  3.753290
H    -4.118110  -1.478684  5.150379
H    -4.803415  0.765739  4.551115
H    -5.566324  -0.389593  3.421801
H    -4.124905  0.546756  2.918864
H    -1.241325  -2.838227  4.157842
Cd    2.167513  -2.231160  2.632013
