26
Energy: -172747.694715 eV PBE+vdW (tier 2 basis)
C    0.297263  0.349830  -1.264291
C    -0.257873  -0.679339  -0.330529
O    -0.202456  -1.891304  -0.681483
H    -0.209974  0.259479  -2.234236
H    1.358571  0.124856  -1.440448
H    0.203169  1.377367  -0.897832
N    -0.767073  -0.230674  0.840456
C    -1.336432  -0.908477  2.026545
C    -0.491708  -2.087026  2.577460
O    -0.594116  -3.286691  2.169033
H    -0.717373  0.780016  0.941016
H    -1.253945  -0.136063  2.802875
C    -2.875090  -1.155610  1.996635
C    -3.608385  -1.862239  0.872789
O    -4.821055  -1.380714  0.738687
O    -3.222736  -2.811707  0.163125
H    -3.366528  -0.179859  2.102885
H    -3.147366  -1.710186  2.912619
N    0.326114  -1.798960  3.577826
C    1.191210  -2.773509  4.250876
H    0.334830  -0.849512  3.942759
H    0.674973  -3.194598  5.123617
H    2.100243  -2.261433  4.581144
H    1.443542  -3.579594  3.557236
H    -5.334891  -1.888222  0.071292
Cd    -1.193914  -3.612829  0.131941
