26
Energy: -172746.539033 eV PBE+vdW (tier 2 basis)
C    0.110876  -0.268835  0.227747
C    -0.619019  0.648693  1.149240
O    -0.663331  1.877437  0.957638
H    -0.231679  -0.096883  -0.800878
H    0.006672  -1.327737  0.486869
H    1.177629  -0.000909  0.251290
N    -1.236445  0.089910  2.255821
C    -1.963704  0.972844  3.146681
C    -2.271558  0.378951  4.529090
O    -3.148355  0.903808  5.311893
H    -1.501799  -0.890978  2.185627
H    -1.253015  1.789449  3.376091
C    -3.218277  1.619772  2.464128
C    -3.093882  3.131584  2.509355
O    -2.226725  3.694014  1.763966
O    -3.775144  3.848214  3.321740
H    -4.168348  1.275584  2.898575
H    -3.247964  1.304745  1.414014
N    -1.571891  -0.652794  4.947115
C    -1.681820  -1.275607  6.273690
H    -0.835899  -0.991313  4.328015
H    -1.392870  -2.326847  6.184749
H    -2.712060  -1.202911  6.631325
H    -1.008833  -0.772115  6.980042
H    -1.590581  2.966548  1.325794
Cd    -4.231629  2.716337  5.046832
