26
Energy: -172746.803486 eV PBE+vdW (tier 2 basis)
C    -0.147511  0.098236  0.045268
C    0.060305  -0.051047  1.515491
O    1.281110  -0.165772  1.910662
H    0.390837  0.995105  -0.295198
H    -1.206425  0.189742  -0.218427
H    0.299752  -0.757888  -0.477231
N    -1.010602  -0.044752  2.310034
C    -1.069926  0.120698  3.767197
C    -0.960353  -1.234963  4.519107
O    0.213278  -1.626714  4.897493
H    -1.959918  0.079961  1.883315
H    -0.157926  0.650866  4.093221
C    -2.230924  1.068439  4.164052
C    -3.499170  1.013870  3.321394
O    -4.516191  1.572260  3.960981
O    -3.559071  0.548059  2.188857
H    -1.861824  2.102046  4.068567
H    -2.480486  0.950783  5.226208
N    -1.971096  -2.018541  4.828637
C    -3.411066  -1.893917  4.566731
H    -1.684766  -2.855476  5.342819
H    -3.853329  -2.883595  4.713066
H    -3.595423  -1.584767  3.534043
H    -3.881919  -1.200167  5.274551
H    -5.300587  1.611787  3.371569
Cd    1.865231  -0.913257  3.785592
