26
Energy: -172746.944153 eV PBE+vdW (tier 2 basis)
C    -0.222767  -0.269719  0.324762
C    -0.400682  -0.670681  1.751510
O    0.552932  -0.469946  2.560800
H    0.087468  0.782990  0.285217
H    -1.121255  -0.410543  -0.285041
H    0.599088  -0.860826  -0.104622
N    -1.577500  -1.232961  2.102770
C    -2.003954  -1.776183  3.400506
C    -1.986947  -0.716710  4.529769
O    -1.011437  -0.582887  5.346809
H    -2.233363  -1.370185  1.337958
H    -3.063519  -2.013646  3.251590
C    -1.352315  -3.142751  3.823461
C    0.014343  -3.477308  3.267031
O    1.078875  -3.177495  4.199616
O    0.272575  -3.958793  2.211773
H    -1.996172  -3.939237  3.429536
H    -1.357393  -3.228575  4.917440
N    -3.056905  0.038906  4.700468
C    -4.332032  0.018413  3.970472
H    -2.978140  0.704739  5.472314
H    -4.959364  0.817394  4.375111
H    -4.858944  -0.933373  4.118181
H    -4.178589  0.213100  2.902625
H    1.898432  -3.575688  3.826301
Cd    0.960564  -0.947032  4.627641
