26
Energy: -172746.738485 eV PBE+vdW (tier 2 basis)
C    -1.056672  -2.733455  0.276429
C    -0.562674  -1.489478  0.928668
O    0.641125  -1.148335  0.835098
H    -0.602634  -2.796583  -0.722360
H    -2.145865  -2.786427  0.181086
H    -0.690045  -3.609987  0.833248
N    -1.452665  -0.667775  1.611956
C    -2.398354  -1.219509  2.605100
C    -3.794242  -0.646454  2.345408
O    -4.011402  -0.007494  1.229775
H    -0.992366  0.188371  1.940900
H    -2.465082  -2.303629  2.430279
C    -1.876307  -0.986789  4.067012
C    -0.351671  -1.032199  3.961343
O    0.249860  0.090554  3.849644
O    0.214331  -2.146293  3.754222
H    -2.229710  -1.781577  4.734503
H    -2.181155  -0.007057  4.451083
N    -4.781281  -0.803268  3.181391
C    -6.165102  -0.332085  2.993511
H    -4.591444  -1.317997  4.040592
H    -6.822057  -1.201528  2.866771
H    -6.221697  0.311309  2.113330
H    -6.466202  0.224278  3.888238
H    -3.166591  0.046453  0.721574
Cd    1.866904  -0.957046  2.715198
