26
Energy: -172746.265525 eV PBE+vdW (tier 2 basis)
C    0.221085  0.640623  0.194930
C    0.126980  0.222207  1.628359
O    0.929797  0.590804  2.497942
H    -0.505880  0.143448  -0.456506
H    1.238627  0.453547  -0.169342
H    0.060065  1.727185  0.144654
N    -0.916962  -0.607771  1.983741
C    -1.182059  -0.909612  3.385309
C    -0.237615  -2.040441  3.891787
O    -0.620177  -3.240352  4.200543
H    -1.477286  -1.042669  1.255984
H    -0.883838  -0.005682  3.943304
C    -2.704871  -1.153016  3.568700
C    -3.211400  -0.966117  4.985374
O    -3.732417  0.169025  5.364996
O    -3.167930  -1.852738  5.874984
H    -2.989549  -2.157505  3.220788
H    -3.220721  -0.438963  2.912567
N    1.032877  -1.717623  3.893366
C    2.152239  -2.572037  4.272223
H    1.231272  -0.761919  3.493378
H    2.667748  -2.922263  3.366779
H    1.804175  -3.434674  4.844605
H    2.858900  -1.976445  4.861900
H    -3.803190  0.837127  4.653890
Cd    -2.063791  -3.683737  5.659952
