26
Energy: -172746.833415 eV PBE+vdW (tier 2 basis)
C    -1.373923  2.152687  0.269383
C    -0.698370  2.303914  1.592867
O    0.283444  3.132070  1.634918
H    -1.674110  3.146106  -0.091732
H    -2.250630  1.498539  0.320336
H    -0.653759  1.753012  -0.458514
N    -1.154256  1.572453  2.614884
C    -0.919948  1.751824  4.058154
C    0.421972  1.128160  4.535709
O    1.498293  1.831833  4.562932
H    -2.093419  1.149196  2.444978
H    -0.823438  2.833234  4.273508
C    -2.138109  1.234340  4.863034
C    -3.489974  1.576547  4.234258
O    -4.339794  2.076121  5.118650
O    -3.735222  1.351336  3.057465
H    -2.078597  1.605628  5.891831
H    -2.148371  0.133596  4.908500
N    0.468167  -0.120889  4.939166
C    1.676431  -0.816957  5.401800
H    -0.404866  -0.642288  4.978452
H    1.559064  -1.884367  5.192779
H    1.800953  -0.669065  6.482574
H    2.552333  -0.423858  4.878968
H    -5.217890  2.208213  4.698680
Cd    1.614019  3.467616  3.223419
