26
Energy: -172747.087707 eV PBE+vdW (tier 2 basis)
C    0.524179  0.035104  0.082713
C    0.104500  -0.202179  1.495823
O    0.900530  -0.851826  2.246545
H    0.714132  -0.937354  -0.394051
H    1.478081  0.580167  0.079861
H    -0.215649  0.586129  -0.507247
N    -1.100930  0.265592  1.877506
C    -1.864397  0.072986  3.128510
C    -1.330630  0.971163  4.267142
O    -0.208762  0.758283  4.833374
H    -1.603299  0.770038  1.150999
H    -2.868900  0.436442  2.885101
C    -2.020368  -1.452486  3.490118
C    -1.934053  -1.787964  4.965395
O    -0.631643  -2.311464  5.301872
O    -2.769548  -1.679679  5.801483
H    -1.308037  -2.060391  2.921432
H    -3.021692  -1.768396  3.172445
N    -2.091434  1.986311  4.634308
C    -1.766032  2.953728  5.687525
H    -2.989047  2.105384  4.169275
H    -2.468958  2.833142  6.521249
H    -1.860166  3.967490  5.281447
H    -0.744706  2.784459  6.034008
H    -0.660948  -2.592266  6.244956
Cd    0.975778  -0.986416  4.368213
