26
Energy: -172746.703626 eV PBE+vdW (tier 2 basis)
C    0.982372  -1.250145  0.165153
C    -0.000325  -0.140123  0.293451
O    0.088056  0.848842  -0.504899
H    0.957517  -1.957647  0.998198
H    1.980915  -0.786391  0.137477
H    0.861204  -1.770550  -0.794653
N    -0.927384  -0.109842  1.290863
C    -1.875336  -1.155887  1.761127
C    -1.617360  -2.543990  1.183372
O    -1.811687  -2.793596  -0.074080
H    -1.320182  0.824462  1.428046
H    -1.823704  -1.215860  2.856439
C    -3.331166  -0.689441  1.354568
C    -3.183093  0.047896  0.029495
O    -2.733349  -0.587175  -0.989609
O    -3.265312  1.315622  0.035402
H    -3.724899  -0.005554  2.113491
H    -4.012267  -1.546460  1.270937
N    -1.264555  -3.519588  1.981740
C    -1.083055  -4.925802  1.594938
H    -1.104807  -3.287756  2.961681
H    -1.642279  -5.553863  2.297888
H    -0.017517  -5.182151  1.654302
H    -1.448771  -5.079281  0.577550
H    -2.205910  -1.975496  -0.568596
Cd    -1.730924  1.513282  -1.538956
