26
Energy: -172746.670734 eV PBE+vdW (tier 2 basis)
C    -0.199978  -0.277836  -0.055625
C    -0.018724  -0.190985  1.424620
O    1.136955  -0.510696  1.875235
H    -1.194361  0.040063  -0.386661
H    -0.034030  -1.320110  -0.365853
H    0.569702  0.328205  -0.551715
N    -1.063141  0.206430  2.165378
C    -1.331061  0.136620  3.623158
C    -0.622606  1.223383  4.448332
O    0.606875  1.136542  4.828062
H    -1.907282  0.372455  1.620676
H    -2.405947  0.346909  3.680320
C    -1.179468  -1.273812  4.213233
C    -2.312700  -2.170181  3.678598
O    -2.120146  -3.434109  4.050136
O    -3.234383  -1.734261  3.024456
H    -1.260967  -1.238951  5.310524
H    -0.226240  -1.778030  3.982035
N    -1.308364  2.272599  4.854551
C    -2.725589  2.602744  4.628675
H    -0.772895  2.927865  5.429093
H    -2.958117  2.631712  3.558349
H    -2.899681  3.599966  5.042164
H    -3.383373  1.894686  5.147772
H    -2.869271  -3.986021  3.738813
Cd    1.899793  -0.177185  3.809675
