26
Energy: -172745.995995 eV PBE+vdW (tier 2 basis)
C    0.546242  0.777538  0.333841
C    0.194375  -0.352819  1.241189
O    0.719638  -1.490630  0.979594
H    1.637755  0.888018  0.287662
H    0.088742  1.725741  0.637263
H    0.208683  0.523413  -0.682189
N    -0.652484  -0.121694  2.260328
C    -1.313979  -1.111328  3.109823
C    -2.843589  -1.282758  2.738328
O    -3.126175  -2.342510  2.192272
H    -0.994380  0.835743  2.316344
H    -1.002239  -2.102601  2.760350
C    -1.005625  -0.998136  4.612248
C    0.208885  -1.766555  5.117360
O    0.571421  -1.611160  6.363363
O    0.896588  -2.583301  4.466354
H    -1.861828  -1.404002  5.179580
H    -0.904461  0.049813  4.930040
N    -3.720485  -0.293829  2.998344
C    -3.559766  0.925390  3.785334
H    -4.671916  -0.528280  2.713998
H    -4.317342  1.647138  3.463105
H    -2.584189  1.401315  3.621970
H    -3.695721  0.745706  4.861213
H    0.014572  -0.987462  6.872368
Cd    1.018978  -3.046677  2.369827
