26
Energy: -172746.294401 eV PBE+vdW (tier 2 basis)
C    -0.955090  -1.097428  -0.213682
C    -0.502160  -0.260237  0.947529
O    0.091413  0.807415  0.828407
H    -1.842642  -0.623396  -0.657361
H    -1.204068  -2.126348  0.070453
H    -0.172167  -1.098666  -0.980250
N    -0.787705  -0.739078  2.222681
C    -0.490603  0.091759  3.370959
C    0.269246  -0.746123  4.405844
O    -0.260616  -1.149205  5.514826
H    -1.362988  -1.570782  2.326745
H    0.187897  0.866876  2.970153
C    -1.781579  0.808482  3.880678
C    -1.551221  1.998909  4.774828
O    -1.542447  3.142882  4.148109
O    -1.372850  1.960683  6.022149
H    -2.453447  0.097608  4.383261
H    -2.295940  1.172341  2.983529
N    1.491409  -1.162894  4.126388
C    2.280060  -0.971501  2.906426
H    1.897560  -1.775993  4.836569
H    2.093979  -1.794708  2.203445
H    3.338476  -0.977508  3.186124
H    2.043292  -0.019363  2.422382
H    -1.392425  3.898971  4.760698
Cd    -1.090382  0.062305  7.044110
