26
Energy: -172746.706485 eV PBE+vdW (tier 2 basis)
C    0.466227  -0.763537  0.131309
C    0.356524  -0.805527  1.618239
O    1.429440  -1.022887  2.277255
H    0.929712  -1.692358  -0.226685
H    1.145096  0.057273  -0.144851
H    -0.498378  -0.612155  -0.365236
N    -0.848522  -0.599033  2.181336
C    -1.121105  -0.333541  3.599559
C    -1.337285  -1.640308  4.414222
O    -0.323591  -2.186008  5.002218
H    -1.613240  -0.439521  1.528483
H    -0.199010  0.087922  4.034309
C    -2.166616  0.778476  3.767370
C    -2.364811  1.027276  5.256037
O    -3.202702  2.030951  5.488023
O    -1.794220  0.350980  6.095434
H    -3.130344  0.556068  3.291247
H    -1.794975  1.696706  3.289101
N    -2.478969  -2.293105  4.486798
C    -3.811278  -1.960594  3.971836
H    -2.423676  -3.135718  5.063152
H    -4.394382  -2.886108  3.950084
H    -3.758934  -1.575146  2.949307
H    -4.321142  -1.245293  4.629641
H    -3.294006  2.169989  6.454810
Cd    1.579911  -1.630957  4.308996
