26
Energy: -172746.461358 eV PBE+vdW (tier 2 basis)
C    0.906781  0.025479  0.022823
C    0.395554  -0.558562  1.295854
O    1.033741  -1.597540  1.732542
H    1.970457  0.275584  0.132483
H    0.340961  0.910669  -0.286167
H    0.839898  -0.740874  -0.763978
N    -0.653798  0.005078  1.884900
C    -1.610586  -0.481100  2.883263
C    -3.001459  -0.064978  2.214844
O    -2.962666  0.877128  1.428839
H    -1.146076  0.755442  1.350842
H    -1.578428  -1.580935  2.976759
C    -1.546245  0.244551  4.256021
C    -0.730902  -0.304429  5.409752
O    -0.825114  0.281183  6.571283
O    0.026079  -1.309712  5.398972
H    -2.576817  0.320488  4.644359
H    -1.229493  1.288265  4.092198
N    -4.085981  -0.735446  2.612623
C    -5.438299  -0.429311  2.123818
H    -3.977423  -1.557561  3.199112
H    -5.426952  0.559247  1.657756
H    -6.137522  -0.433579  2.966627
H    -5.752034  -1.176070  1.384254
H    -1.432688  1.049456  6.592806
Cd    0.856003  -2.203639  3.692024
