26
Energy: -172746.044758 eV PBE+vdW (tier 2 basis)
C    -0.414088  -1.261464  -0.014887
C    -0.439628  -0.184387  1.014793
O    0.600748  0.551224  1.252639
H    0.420672  -1.941621  0.207218
H    -0.223296  -0.830207  -1.009371
H    -1.346231  -1.833282  -0.060505
N    -1.538296  -0.004019  1.729382
C    -1.784322  0.930383  2.827490
C    -3.034059  0.302084  3.537727
O    -3.686603  -0.526173  2.901222
H    -2.353216  -0.642784  1.634475
H    -0.909130  0.955118  3.490990
C    -2.159490  2.375345  2.343078
C    -0.976890  3.025893  1.678472
O    -0.063672  3.668257  2.385749
O    -0.769738  2.880084  0.456275
H    -2.492639  2.968566  3.205229
H    -2.985462  2.317824  1.622979
N    -3.361685  0.693432  4.783807
C    -2.655907  1.571885  5.703998
H    -4.218699  0.254562  5.125216
H    -2.706058  1.148200  6.714128
H    -3.118974  2.570427  5.735309
H    -1.597861  1.661349  5.435189
H    -0.312397  3.810663  3.320693
Cd    1.219951  2.094283  -0.071754
