26
Energy: -172746.708302 eV PBE+vdW (tier 2 basis)
C    -0.229148  1.460875  -0.431617
C    0.133277  0.905267  0.890959
O    1.330840  0.913978  1.305934
H    0.160896  0.759337  -1.191435
H    0.273015  2.419626  -0.605829
H    -1.310597  1.536326  -0.584530
N    -0.815931  0.321146  1.704825
C    -2.054838  0.940474  2.188937
C    -1.824461  2.432175  2.545872
O    -0.679430  2.851192  2.913880
H    -0.407698  -0.368143  2.335412
H    -2.838422  0.868870  1.422871
C    -2.557022  0.150899  3.423564
C    -1.617681  0.010258  4.624722
O    -2.102875  -0.541994  5.711159
O    -0.417258  0.332295  4.664393
H    -2.820327  -0.871750  3.101771
H    -3.497766  0.600167  3.775217
N    -2.829591  3.290943  2.471979
C    -4.223044  3.095338  2.058954
H    -2.580611  4.236899  2.770973
H    -4.874952  3.020040  2.939161
H    -4.338725  2.200419  1.441165
H    -4.534497  3.962820  1.467263
H    -3.041469  -0.811007  5.648996
Cd    0.989316  1.516553  3.414404
