26
Energy: -172745.791466 eV PBE+vdW (tier 2 basis)
C    0.444040  0.259546  0.388600
C    -0.193475  0.147136  1.752799
O    0.451044  0.263644  2.779320
H    0.669055  1.316268  0.184947
H    -0.151191  -0.147956  -0.436599
H    1.410055  -0.257957  0.424190
N    -1.568494  -0.133529  1.875090
C    -2.614638  -0.053964  0.878954
C    -2.677413  -1.306919  -0.036161
O    -3.438894  -1.369044  -1.069180
H    -1.865603  -0.128241  2.850513
H    -3.556774  -0.109433  1.451137
C    -2.622220  1.301977  0.067407
C    -3.940404  2.044721  0.120508
O    -4.024689  3.229877  0.661830
O    -5.020089  1.587961  -0.329914
H    -2.385608  1.131460  -0.993964
H    -1.823501  1.938423  0.461625
N    -1.938290  -2.336799  0.302439
C    -1.894391  -3.636982  -0.369137
H    -1.341142  -2.191903  1.119973
H    -0.949214  -3.735009  -0.918850
H    -2.732359  -3.723886  -1.063997
H    -1.946967  -4.425169  0.390394
H    -3.177311  3.575525  1.007228
Cd    -5.215208  -0.252923  -1.438871
