26
Energy: -172746.702557 eV PBE+vdW (tier 2 basis)
C    -0.830307  -1.105356  -0.198766
C    -0.534005  -0.363566  1.058393
O    0.573991  0.211858  1.216696
H    -1.894511  -1.305962  -0.358143
H    -0.269561  -2.053138  -0.206313
H    -0.442755  -0.515687  -1.040820
N    -1.495161  -0.267415  2.047630
C    -2.259324  -1.441039  2.500399
C    -3.750545  -1.149132  2.596618
O    -4.586557  -2.042023  3.066335
H    -1.181814  0.325620  2.823211
H    -2.141700  -2.230671  1.742444
C    -1.679860  -1.984577  3.863131
C    -0.184914  -1.667799  3.813501
O    0.194077  -0.589625  4.386395
O    0.554200  -2.336167  3.031835
H    -1.827775  -3.068121  3.946382
H    -2.129537  -1.475720  4.723161
N    -4.237743  -0.010353  2.200117
C    -5.649850  0.399689  2.216465
H    -3.551664  0.645909  1.820877
H    -6.256022  -0.364585  2.706744
H    -5.988286  0.541845  1.182703
H    -5.729885  1.349873  2.757205
H    -4.168243  -2.878580  3.344985
Cd    1.874753  -0.472275  2.912812
