26
Energy: -172745.861428 eV PBE+vdW (tier 2 basis)
C    -0.250309  0.600870  0.121366
C    -0.356466  -0.349806  1.264187
O    0.507669  -1.261336  1.484439
H    0.679800  1.181547  0.203231
H    -1.090500  1.299560  0.055766
H    -0.191384  0.020437  -0.810926
N    -1.417922  -0.269165  2.082872
C    -1.704820  -1.164737  3.216734
C    -3.225597  -1.074600  3.576687
O    -3.868260  -2.115785  3.531080
H    -2.153715  0.384304  1.817135
H    -1.580995  -2.199795  2.873875
C    -0.833046  -0.924674  4.492962
C    0.579778  -1.400729  4.274033
O    0.873425  -2.687580  4.301672
O    1.489087  -0.598579  3.973705
H    -1.291991  -1.484089  5.321862
H    -0.801510  0.137053  4.764484
N    -3.739780  0.137969  3.875864
C    -5.153108  0.311821  4.230522
H    -3.112661  0.911915  4.080350
H    -5.450470  1.338032  3.993539
H    -5.316435  0.123580  5.300417
H    -5.752639  -0.399095  3.652987
H    0.139609  -3.264529  4.597146
Cd    2.572849  -1.194507  2.145456
