26
Energy: -172746.891475 eV PBE+vdW (tier 2 basis)
C    0.863866  -0.590907  0.091973
C    0.247163  -0.347916  1.426879
O    0.983025  0.055852  2.378881
H    0.142189  -0.937335  -0.655665
H    1.669761  -1.329999  0.197891
H    1.331832  0.340457  -0.256922
N    -1.091908  -0.566607  1.570215
C    -1.699470  -0.259185  2.848211
C    -1.632061  -1.412543  3.871768
O    -0.773049  -1.324303  4.817300
H    -1.616976  -0.913298  0.771787
H    -0.948607  0.435788  3.205300
C    -2.896464  0.689506  2.978166
C    -2.552016  1.715377  4.073897
O    -3.570154  2.488300  4.356384
O    -1.443740  1.832729  4.630014
H    -3.853505  0.216491  3.231877
H    -3.062648  1.252722  2.046393
N    -2.418582  -2.468389  3.799185
C    -3.454505  -2.776797  2.812979
H    -2.260968  -3.168190  4.528731
H    -4.405852  -2.958882  3.327158
H    -3.174859  -3.679053  2.254965
H    -3.588254  -1.948843  2.111366
H    -3.337633  3.155283  5.039822
Cd    0.516414  0.418740  4.559446
