26
Energy: -172746.454407 eV PBE+vdW (tier 2 basis)
C    0.605280  -0.595731  0.070533
C    0.426655  -0.547381  1.548463
O    1.417320  -0.925285  2.274172
H    0.889208  -1.618111  -0.218669
H    1.441975  0.056489  -0.217171
H    -0.295539  -0.301207  -0.478850
N    -0.751124  -0.142174  2.047124
C    -1.097466  -0.105781  3.466584
C    -2.618953  -0.074195  3.834890
O    -2.936311  0.633305  4.811520
H    -1.435877  0.193608  1.372491
H    -0.724523  -1.049942  3.906766
C    -0.441067  1.122937  4.167501
C    -0.095101  0.768116  5.600215
O    -1.008687  0.822268  6.490929
O    1.066929  0.341816  5.917837
H    -1.133353  1.973757  4.139563
H    0.466956  1.446627  3.636613
N    -3.512811  -0.805266  3.169423
C    -3.336594  -1.811371  2.119189
H    -4.462213  -0.683968  3.527017
H    -4.097403  -2.585806  2.262494
H    -2.357339  -2.295216  2.190039
H    -3.476999  -1.381898  1.117846
H    -1.910570  0.941537  5.989228
Cd    2.035650  -0.481074  4.233956
