26
Energy: -172746.722083 eV PBE+vdW (tier 2 basis)
C    -0.774918  -1.654061  -0.108254
C    -1.059399  -1.153374  1.265226
O    -1.239948  -2.035637  2.176305
H    -0.142982  -2.547123  -0.066657
H    -0.318192  -0.891560  -0.750344
H    -1.742657  -1.940513  -0.551635
N    -1.091741  0.178839  1.465604
C    -1.832362  0.997210  2.461515
C    -0.995564  1.318529  3.720637
O    -0.660624  0.431470  4.587539
H    -0.868921  0.702854  0.622657
H    -1.985625  1.952020  1.940589
C    -3.239698  0.494353  2.853300
C    -4.122252  0.146857  1.644617
O    -5.318817  0.722922  1.759802
O    -3.755027  -0.572705  0.740002
H    -3.721506  1.272097  3.459389
H    -3.221238  -0.416435  3.476302
N    -0.655573  2.575258  3.917805
C    0.094814  3.092788  5.068496
H    -0.930549  3.255940  3.211679
H    1.107753  3.368728  4.748764
H    0.146520  2.329334  5.847232
H    -0.417402  3.983437  5.449131
H    -5.884718  0.453782  1.004066
Cd    -1.012565  -1.617182  4.218250
