26
Energy: -172746.703829 eV PBE+vdW (tier 2 basis)
C    0.810051  0.523838  0.063353
C    0.506271  0.041641  1.443993
O    1.429702  -0.619988  2.033622
H    1.012547  -0.351510  -0.571928
H    1.730714  1.122059  0.080829
H    -0.004216  1.105659  -0.381689
N    -0.700745  0.322130  1.960839
C    -1.430853  -0.205278  3.143143
C    -0.984669  0.441602  4.473255
O    0.052815  0.034868  5.129276
H    -1.280569  0.889178  1.346443
H    -2.462896  0.125831  2.985871
C    -1.493504  -1.740971  3.199507
C    -2.496855  -2.161249  4.271800
O    -2.605581  -3.485122  4.342892
O    -3.092684  -1.346764  4.949147
H    -0.532949  -2.246014  3.404931
H    -1.807693  -2.129928  2.220115
N    -1.670357  1.439386  4.985647
C    -2.980707  1.959303  4.570188
H    -1.296393  1.795056  5.868281
H    -3.745203  1.179067  4.676894
H    -2.948225  2.339806  3.542756
H    -3.229623  2.793685  5.231374
H    -3.273298  -3.724978  5.020572
Cd    1.592921  -0.957307  4.105891
