26
Energy: -172746.590035 eV PBE+vdW (tier 2 basis)
C    -0.395815  0.711179  -0.541639
C    -0.295608  0.257581  0.872159
O    0.788925  -0.281817  1.265663
H    -1.413176  0.965354  -0.850755
H    -0.043060  -0.122957  -1.167919
H    0.290413  1.547566  -0.733552
N    -1.356933  0.319415  1.724704
C    -2.283751  1.442160  2.029858
C    -2.176375  2.621288  1.070194
O    -1.124656  3.385827  1.074820
H    -1.232802  -0.280521  2.543757
H    -3.312642  1.066432  2.020247
C    -1.960316  1.944028  3.495929
C    -0.460312  1.760284  3.687065
O    0.346314  2.412704  2.934136
O    -0.060440  0.789451  4.402178
H    -2.500899  1.326544  4.220461
H    -2.263920  2.989949  3.634636
N    -3.155337  2.960480  0.269235
C    -4.435399  2.288489  0.007082
H    -2.996670  3.837436  -0.237213
H    -4.371189  1.217018  0.214351
H    -4.674948  2.423643  -1.053087
H    -5.229723  2.746760  0.610078
H    -0.447016  3.112344  1.804250
Cd    1.706132  0.458972  3.118720
