26
Energy: -172746.83836 eV PBE+vdW (tier 2 basis)
C    -0.818495  0.779313  -0.571113
C    -0.475767  1.435368  0.722514
O    0.150265  2.553911  0.672939
H    0.087803  0.657025  -1.178270
H    -1.482682  1.457009  -1.130508
H    -1.323118  -0.184815  -0.446275
N    -0.853296  0.843486  1.867148
C    -1.018833  1.433001  3.218603
C    0.235844  1.175172  4.091144
O    1.406487  1.525432  3.650660
H    -1.286557  -0.071607  1.750195
H    -1.086036  2.528629  3.090217
C    -2.395915  0.919254  3.714108
C    -2.879031  1.406523  5.078140
O    -3.978494  2.140395  4.982498
O    -2.326949  1.106524  6.127811
H    -2.375751  -0.181029  3.773921
H    -3.138159  1.200136  2.957757
N    0.126968  0.608484  5.261302
C    1.236386  0.355474  6.182428
H    -0.845304  0.494670  5.649139
H    1.532283  -0.700050  6.112838
H    0.885160  0.555078  7.200262
H    2.093258  0.988341  5.938352
H    -4.296934  2.379198  5.880577
Cd    1.617078  2.965025  2.137998
