26
Energy: -172746.044167 eV PBE+vdW (tier 2 basis)
C    -0.015505  0.502121  0.001717
C    -0.135261  0.859067  1.434396
O    0.762000  1.596134  1.978141
H    0.039539  1.403957  -0.623388
H    -0.804034  -0.173312  -0.342591
H    0.956476  -0.006922  -0.120950
N    -1.150534  0.401850  2.215780
C    -2.578676  0.403944  1.908333
C    -3.149584  1.792470  2.343683
O    -2.476415  2.645397  3.043490
H    -0.926454  0.350539  3.212736
H    -2.697478  0.320200  0.819287
C    -3.259214  -0.799129  2.602178
C    -4.629223  -1.253462  2.106638
O    -5.085105  -0.518744  1.035671
O    -5.226390  -2.171550  2.590160
H    -3.346895  -0.641319  3.687536
H    -2.604256  -1.673555  2.470849
N    -4.383282  2.071776  1.999035
C    -5.103344  3.308393  2.318996
H    -4.894399  1.322729  1.510126
H    -5.849261  3.482579  1.537900
H    -4.405013  4.148325  2.363969
H    -5.611639  3.207518  3.287172
H    -5.929711  -0.922608  0.739969
Cd    -0.371443  2.934281  3.246145
