26
Energy: -172746.97964 eV PBE+vdW (tier 2 basis)
C    -2.210662  -2.071096  1.261812
C    -1.032959  -1.538458  2.006830
O    0.119305  -1.869254  1.905717
H    -3.140445  -2.056248  1.844519
H    -1.992731  -3.087000  0.916314
H    -2.370148  -1.445157  0.367972
N    -1.333815  -0.457478  2.992328
C    -0.138092  0.380927  3.298153
C    0.862568  -0.430598  4.154634
O    0.457231  -1.201860  5.089438
H    -2.138321  0.107690  2.699098
H    0.366101  0.605575  2.348520
C    -0.505506  1.743603  3.931556
C    -1.333172  1.822376  5.203015
O    -1.375683  3.046358  5.661849
O    -1.953917  0.897782  5.770020
H    -1.044829  2.352395  3.185571
H    0.418251  2.310935  4.119071
N    2.155855  -0.271654  3.958065
C    2.829577  0.473634  2.885612
H    2.746633  -0.821519  4.584032
H    2.582975  1.541517  2.915900
H    2.582718  0.046717  1.905053
H    3.907239  0.375907  3.042304
H    -1.938122  3.114079  6.465923
Cd    -1.687051  -1.217172  5.204695
