26
Energy: -172746.731484 eV PBE+vdW (tier 2 basis)
C    0.333178  0.420763  0.367075
C    -0.079884  0.447444  1.798760
O    0.708505  0.948061  2.657381
H    1.273733  -0.139786  0.275731
H    0.544083  1.448607  0.039812
H    -0.424284  -0.021983  -0.288627
N    -1.300429  -0.067014  2.129989
C    -1.721692  0.026162  3.511907
C    -1.241612  -1.149152  4.394707
O    -0.236288  -0.961746  5.158914
H    -1.870260  -0.482243  1.397471
H    -1.085232  0.851398  3.808194
C    -3.050082  0.675160  3.919756
C    -2.728172  1.663221  5.072629
O    -3.722445  2.253085  5.690458
O    -1.576652  1.948723  5.437682
H    -3.827471  -0.029336  4.246254
H    -3.469492  1.262269  3.087124
N    -1.859948  -2.313185  4.337540
C    -1.481239  -3.514191  5.094874
H    -2.663378  -2.395648  3.717980
H    -2.273658  -3.759665  5.812278
H    -0.547025  -3.324039  5.627285
H    -1.352049  -4.350427  4.398386
H    -4.605763  2.007066  5.350037
Cd    0.572733  1.055581  4.913194
