26
Energy: -172746.623053 eV PBE+vdW (tier 2 basis)
C    0.764572  -1.134120  1.300476
C    0.139318  0.183586  1.600803
O    0.923440  1.164252  1.864063
H    1.408478  -1.419285  2.145564
H    1.421267  -1.035653  0.424591
H    0.030045  -1.927307  1.123631
N    -1.202006  0.280418  1.608637
C    -1.955412  1.485828  1.943813
C    -3.432917  1.278890  2.393677
O    -4.225135  2.220889  2.182501
H    -1.714625  -0.531079  1.265277
H    -1.460469  1.921327  2.831601
C    -1.964669  2.517848  0.773558
C    -1.946157  3.918691  1.358354
O    -3.030285  4.406658  1.812806
O    -0.852601  4.573950  1.483348
H    -2.859773  2.375817  0.154367
H    -1.102686  2.374914  0.105575
N    -3.778844  0.146691  2.996781
C    -5.135678  -0.112215  3.503306
H    -3.060138  -0.533697  3.227401
H    -5.346640  -1.181810  3.410968
H    -5.853494  0.461552  2.911330
H    -5.210094  0.188472  4.556102
H    -3.722469  3.604535  1.874404
Cd    0.776766  3.253939  1.658022
