26
Energy: -172746.666486 eV PBE+vdW (tier 2 basis)
C    0.671174  -0.330827  -0.090068
C    0.151522  -0.240314  1.303761
O    0.944266  0.092990  2.235852
H    1.100583  0.640868  -0.371850
H    -0.098351  -0.613099  -0.816621
H    1.492415  -1.060165  -0.119945
N    -1.168063  -0.517819  1.521085
C    -1.678921  -0.367352  2.867402
C    -1.500007  -1.617834  3.754382
O    -0.565069  -1.601236  4.627610
H    -1.738656  -0.816617  0.734749
H    -0.915646  0.305375  3.237480
C    -2.877068  0.535917  3.194846
C    -2.442317  1.473559  4.351451
O    -3.336788  2.272191  4.880794
O    -1.287299  1.529868  4.802653
H    -3.788414  -0.002069  3.489367
H    -3.136563  1.168530  2.331091
N    -2.264419  -2.686354  3.634190
C    -3.367318  -2.926201  2.703796
H    -2.027800  -3.453096  4.268987
H    -3.109182  -3.752813  2.030098
H    -3.579699  -2.033684  2.108409
H    -4.268769  -3.197361  3.266380
H    -4.224533  2.201209  4.476427
Cd    0.653922  0.208333  4.477675
