26
Energy: -172746.15449 eV PBE+vdW (tier 2 basis)
C    0.953190  0.007420  0.349256
C    0.159495  -0.368979  1.553578
O    0.218664  -1.557426  2.061595
H    0.716242  -0.696209  -0.461742
H    2.028965  -0.091639  0.558174
H    0.760335  1.029865  0.009492
N    -0.655969  0.526172  2.090582
C    -1.569063  0.376212  3.223372
C    -2.570477  1.568304  3.032040
O    -2.196120  2.530870  2.367509
H    -0.777283  1.458014  1.656061
H    -2.080021  -0.595089  3.158469
C    -0.867106  0.545208  4.617757
C    0.080179  -0.596792  4.868328
O    -0.338485  -1.728710  5.407212
O    1.261401  -0.544815  4.468791
H    -1.637395  0.592542  5.399974
H    -0.303245  1.486710  4.631658
N    -3.769773  1.470467  3.639692
C    -4.783702  2.517613  3.555212
H    -4.042762  0.585828  4.060012
H    -5.321240  2.575267  4.508621
H    -5.506288  2.291270  2.756418
H    -4.295354  3.470047  3.330495
H    -1.247983  -1.688371  5.764185
Cd    1.895313  -2.230056  3.193240
