26
Energy: -172746.477512 eV PBE+vdW (tier 2 basis)
C    -0.078006  0.241451  0.050898
C    0.100655  0.072645  1.522699
O    1.304385  -0.068358  1.942247
H    0.380570  -0.607567  -0.473253
H    0.466759  1.143122  -0.266137
H    -1.130125  0.336440  -0.237764
N    -0.989165  0.088927  2.301718
C    -1.051074  0.230685  3.761446
C    -0.928774  -1.129251  4.509091
O    0.241801  -1.489813  4.927644
H    -1.890887  0.248668  1.832662
H    -0.132583  0.756612  4.079138
C    -2.184881  1.186296  4.215312
C    -3.590884  1.116964  3.620932
O    -3.570292  0.918615  2.260513
O    -4.592784  1.278100  4.256625
H    -1.836564  2.210464  4.004291
H    -2.294228  1.121753  5.304735
N    -1.927006  -1.939113  4.785693
C    -3.362830  -1.843584  4.495217
H    -1.636278  -2.767410  5.311740
H    -3.872587  -1.207497  5.228868
H    -3.775596  -2.854626  4.562747
H    -3.530120  -1.475208  3.479221
H    -4.491426  0.982984  1.928457
Cd    1.902924  -0.752300  3.847259
