26
Energy: -172746.020533 eV PBE+vdW (tier 2 basis)
C    0.147638  0.794024  0.248886
C    0.091398  0.275756  1.646059
O    1.074386  -0.444987  2.041935
H    1.064129  1.383395  0.110527
H    -0.725867  1.399838  -0.016472
H    0.215963  -0.062734  -0.437910
N    -0.979573  0.569651  2.403720
C    -1.332330  -0.022678  3.691030
C    -2.562438  -1.023869  3.688825
O    -2.366091  -2.056750  4.316706
H    -1.679856  1.153354  1.950613
H    -0.565499  -0.771397  3.925161
C    -1.452331  0.971495  4.860255
C    -0.173079  1.384637  5.570672
O    -0.228615  2.353823  6.445194
O    0.953613  0.855538  5.443248
H    -2.072800  0.500306  5.644078
H    -1.989431  1.881993  4.554911
N    -3.714507  -0.702533  3.074422
C    -4.100949  0.515648  2.369224
H    -4.416395  -1.439565  3.140652
H    -5.193154  0.590369  2.383805
H    -3.788380  0.503270  1.314111
H    -3.727874  1.418006  2.872771
H    -1.118625  2.745403  6.558883
Cd    1.730863  -0.571174  4.044728
