26
Energy: -172746.955252 eV PBE+vdW (tier 2 basis)
C    -2.136578  -2.940895  -0.020269
C    -1.647141  -2.012291  1.037799
O    -0.440876  -1.618247  0.997821
H    -3.191664  -3.208843  0.101111
H    -1.521228  -3.851106  -0.010514
H    -1.989542  -2.469398  -1.002086
N    -2.520043  -1.618732  2.008826
C    -2.062096  -0.655888  2.988314
C    -1.353692  -1.292077  4.207017
O    -0.077230  -1.263648  4.252528
H    -3.468099  -1.985957  1.990757
H    -1.256045  -0.216557  2.410280
C    -2.817926  0.646237  3.264236
C    -1.768242  1.774242  3.279757
O    -2.278890  2.913374  3.674743
O    -0.576127  1.650435  2.941935
H    -3.390301  0.681123  4.200104
H    -3.526778  0.875229  2.452769
N    -2.067860  -1.852289  5.163466
C    -1.521594  -2.516892  6.354550
H    -3.082045  -1.822384  5.079280
H    -0.434511  -2.573421  6.268767
H    -1.944738  -3.525216  6.426990
H    -1.794295  -1.944945  7.249747
H    -1.610617  3.633813  3.654524
Cd    0.736153  -0.348665  2.444548
