26
Energy: -172746.813763 eV PBE+vdW (tier 2 basis)
C    0.984155  0.664081  -0.104924
C    0.700761  0.095624  1.245147
O    1.670999  -0.496178  1.840492
H    1.833943  1.356570  -0.042023
H    0.120901  1.167148  -0.553428
H    1.297913  -0.159693  -0.764607
N    -0.539713  0.216647  1.742108
C    -1.253589  -0.499759  2.827186
C    -1.076294  0.114146  4.230273
O    0.073638  0.330749  4.776323
H    -1.160925  0.767797  1.153196
H    -2.312444  -0.359915  2.572209
C    -1.056092  -2.029656  2.837222
C    -2.346093  -2.699245  3.336971
O    -2.199946  -4.018698  3.388946
O    -3.345849  -2.071920  3.628199
H    -0.227464  -2.386397  3.470907
H    -0.844072  -2.395700  1.822558
N    -2.174948  0.385907  4.895349
C    -2.254551  0.901314  6.263698
H    -3.054913  0.134407  4.438287
H    -1.264908  0.889138  6.724794
H    -2.949931  0.274238  6.833478
H    -2.639099  1.929134  6.241045
H    -3.039260  -4.433859  3.682294
Cd    1.815784  -0.491879  3.937305
