26
Energy: -172746.892568 eV PBE+vdW (tier 2 basis)
C    -0.005086  -1.298248  -0.138464
C    -0.155659  -0.491040  1.106405
O    0.049270  0.767723  1.015531
H    -0.153820  -2.370854  0.026856
H    0.987293  -1.119127  -0.572747
H    -0.742661  -0.942987  -0.874053
N    -0.511704  -1.117136  2.243058
C    -0.984913  -0.481047  3.478998
C    0.168904  -0.179985  4.466834
O    0.864178  0.896349  4.353016
H    -0.620413  -2.127224  2.172623
H    -1.386172  0.511519  3.210439
C    -2.176559  -1.224608  4.089303
C    -2.776174  -0.335065  5.179494
O    -3.788036  -0.932558  5.798203
O    -2.341490  0.779918  5.406500
H    -1.926344  -2.218816  4.491988
H    -2.938251  -1.404248  3.315781
N    0.477476  -1.035030  5.414638
C    1.552497  -0.828332  6.397476
H    -0.093532  -1.870576  5.513356
H    2.502455  -0.648599  5.882311
H    1.630872  -1.728022  7.012355
H    1.314123  0.033940  7.032366
H    -4.167842  -0.328925  6.471866
Cd    0.468590  2.067981  2.642867
