26
Energy: -172747.068909 eV PBE+vdW (tier 2 basis)
C    -0.067893  -0.353079  0.091343
C    -0.007561  -0.127244  1.563934
O    1.080244  0.362399  2.035310
H    0.776154  -0.982807  -0.219083
H    0.056346  0.616834  -0.413730
H    -1.012456  -0.804022  -0.231483
N    -1.083991  -0.422259  2.306615
C    -1.319113  -0.063798  3.714290
C    -0.731425  -1.125736  4.682591
O    0.426141  -0.913507  5.229890
H    -1.849550  -0.900504  1.831811
H    -0.738194  0.852072  3.911780
C    -2.783113  0.367812  3.948967
C    -3.842923  -0.639428  3.531445
O    -5.030267  -0.073575  3.407847
O    -3.604168  -1.828444  3.336558
H    -2.963496  1.315854  3.423382
H    -2.927905  0.590163  5.018083
N    -1.407740  -2.213214  4.939083
C    -0.980530  -3.304546  5.815983
H    -2.317877  -2.291101  4.436851
H    -1.529055  -3.244863  6.765459
H    0.092005  -3.235639  6.012262
H    -1.222755  -4.255436  5.328931
H    -5.706134  -0.749570  3.183153
Cd    1.750005  0.216453  4.039619
