21
Energy: -14946.0725562 eV PBE+vdW (tier 2 basis)
N    -1.017840  0.419994  0.127781
C    -0.084144  0.002222  1.230528
C    1.112927  -0.650784  0.496549
O    2.069384  -1.213448  1.242892
H    -0.444323  0.457785  -0.737888
H    1.894738  -1.132968  2.197878
H    -1.482101  1.313539  0.307207
H    0.287746  0.903561  1.740402
C    -0.822812  -0.908445  2.237436
C    -1.494931  -2.068124  1.570754
N    -2.255051  -1.838545  0.434478
C    -1.533018  -3.406023  1.879682
C    -2.740403  -3.012153  0.058059
N    -2.329730  -3.979281  0.913487
H    -1.562518  -0.292594  2.773799
H    -0.124170  -1.258094  3.009202
H    -1.751111  -0.411026  0.016512
H    -1.085185  -3.983970  2.678051
H    -3.374006  -3.197933  -0.801353
H    -2.572504  -4.962827  0.853537
O    1.184052  -0.622887  -0.710994
