21
Energy: -14946.0042486 eV PBE+vdW (tier 2 basis)
N    0.715584  -1.083000  -0.013253
C    -0.083790  -0.437962  1.023829
C    0.829743  0.164190  2.099483
O    1.412790  1.212586  1.992091
H    1.288729  -0.403868  -0.513696
H    1.335744  -1.798965  0.368282
H    1.744085  -0.274823  3.713293
H    -0.594988  0.418259  0.561912
C    -1.139018  -1.454229  1.516462
C    -2.113547  -0.933833  2.514259
N    -1.764687  -0.629677  3.823037
C    -3.455200  -0.660738  2.421211
C    -2.825537  -0.190294  4.504995
N    -3.863523  -0.207292  3.660394
H    -0.631416  -2.338960  1.929901
H    -1.688774  -1.793417  0.630291
H    -0.800130  -0.703343  4.160635
H    -4.138934  -0.760396  1.588509
H    -2.846004  0.121653  5.541559
H    -4.809311  0.070706  3.906527
O    1.011185  -0.669596  3.197280
