21
Energy: -14946.0572352 eV PBE+vdW (tier 2 basis)
N    -0.262492  0.356739  0.159661
C    -0.128045  -0.263922  1.467299
C    1.251385  -0.026624  2.108786
O    2.232629  0.307565  1.487503
H    -0.485371  1.346858  0.260648
H    0.642895  0.322884  -0.318769
H    2.129953  -0.116779  3.784767
H    -0.892399  0.141782  2.145107
C    -0.339927  -1.801821  1.355910
C    -1.703251  -2.156023  0.871474
N    -2.547122  -3.023743  1.553545
C    -2.413095  -1.755816  -0.235523
C    -3.714591  -3.157459  0.910583
N    -3.639699  -2.387190  -0.179231
H    -0.156647  -2.274858  2.330516
H    0.411528  -2.204446  0.659633
H    -2.316693  -3.500803  2.421005
H    -2.130034  -1.067103  -1.019291
H    -4.553558  -3.770101  1.214492
H    -4.384381  -2.288741  -0.863495
O    1.225942  -0.267761  3.441409
