21
Energy: -14946.318866 eV PBE+vdW (tier 2 basis)
N    0.123999  -0.735426  -0.317422
C    -0.257936  -0.282844  1.002431
C    0.849357  0.339979  1.884455
O    0.717952  0.642350  3.069177
H    0.418924  0.036218  -0.913365
H    0.891689  -1.406814  -0.288706
H    2.622829  0.971514  1.839630
H    -0.990908  0.532223  0.870139
C    -0.974131  -1.451295  1.746096
C    -1.962604  -1.068281  2.795974
N    -1.672814  -0.172978  3.810742
C    -3.252920  -1.483033  3.014567
C    -2.722199  -0.032552  4.618881
N    -3.693411  -0.829506  4.149137
H    -0.223388  -2.130548  2.180789
H    -1.500937  -2.019056  0.970432
H    -0.737792  0.309760  3.812689
H    -3.877184  -2.178905  2.469910
H    -2.786879  0.607431  5.489666
H    -4.612930  -0.927615  4.569000
O    1.986971  0.552097  1.223339
