21
Energy: -14945.841148 eV PBE+vdW (tier 2 basis)
N    -0.284024  0.637118  0.572140
C    -0.116040  -0.308408  1.638166
C    1.295856  -0.136403  2.208284
O    2.241238  0.238907  1.557128
H    0.552641  0.713917  -0.005927
H    -1.115322  0.502127  0.003700
H    2.275311  -0.407705  3.803038
H    -0.835504  -0.099144  2.446541
C    -0.252778  -1.839248  1.258332
C    -1.614384  -2.179810  0.788744
N    -2.686012  -2.397195  1.650039
C    -2.145941  -2.274133  -0.475014
C    -3.811373  -2.623332  0.961498
N    -3.493220  -2.549523  -0.333825
H    0.006788  -2.457757  2.130680
H    0.469309  -2.066485  0.463617
H    -2.627590  -2.397524  2.665270
H    -1.671754  -2.186766  -1.443566
H    -4.790276  -2.833331  1.374002
H    -4.152529  -2.687375  -1.094962
O    1.347605  -0.507932  3.508118
