21
Energy: -14946.288459 eV PBE+vdW (tier 2 basis)
N    -0.015588  -0.610872  0.065484
C    0.052496  0.012484  1.383242
C    1.530320  0.376408  1.673674
O    2.253165  0.567943  0.581683
H    -0.904635  -0.450469  -0.403860
H    0.165103  -1.614931  0.084461
H    1.653384  0.305173  -0.171692
H    -0.449639  0.990158  1.294380
C    -0.641330  -0.707244  2.573475
C    0.035603  -1.923876  3.109606
N    1.258470  -1.851420  3.761307
C    -0.340483  -3.242851  3.166432
C    1.627383  -3.055189  4.193556
N    0.659982  -3.915111  3.842899
H    -1.658789  -0.977952  2.265364
H    -0.745130  0.017168  3.394900
H    1.787696  -0.953824  3.763678
H    -1.231213  -3.743139  2.809896
H    2.539022  -3.299688  4.724413
H    0.667508  -4.908409  4.055070
O    1.993676  0.497641  2.800033
