21
Energy: -14945.9628637 eV PBE+vdW (tier 2 basis)
N    0.457127  -0.879335  0.046679
C    -0.152737  -0.379095  1.271391
C    0.900732  0.281955  2.164678
O    0.989891  0.124888  3.365731
H    1.170508  -0.237451  -0.296061
H    -0.232875  -0.992786  -0.694947
H    2.351050  1.491567  2.074263
H    -0.916977  0.412081  1.103611
C    -0.823901  -1.566602  2.010571
C    -1.809659  -1.202056  3.070569
N    -3.178523  -1.393323  2.916087
C    -1.663542  -0.661624  4.325669
C    -3.843627  -1.001259  4.010121
N    -2.925592  -0.553248  4.872320
H    -0.036604  -2.197755  2.442374
H    -1.328743  -2.180103  1.251221
H    -3.621717  -1.795385  2.094584
H    -0.763601  -0.349068  4.837592
H    -4.913943  -1.041469  4.166392
H    -3.136693  -0.188122  5.796827
O    1.706426  1.095190  1.454326
