21
Energy: -14946.0441523 eV PBE+vdW (tier 2 basis)
N    -0.998859  1.561004  2.726350
C    -0.054606  0.451472  2.533510
C    1.139005  0.875528  1.664428
O    1.196891  0.731596  0.462482
H    -1.220669  2.000679  1.829775
H    -0.580018  2.283374  3.313393
H    2.779154  1.810750  1.801858
H    0.317836  0.158065  3.524985
C    -0.752661  -0.742115  1.862123
C    -1.884712  -1.298668  2.656196
N    -2.186392  -2.655593  2.663658
C    -2.825643  -0.715623  3.470672
C    -3.250456  -2.904140  3.438419
N    -3.643185  -1.727792  3.935035
H    -0.012422  -1.533756  1.676183
H    -1.106274  -0.430661  0.865903
H    -1.675300  -3.369779  2.151745
H    -2.949681  0.326762  3.731114
H    -3.701233  -3.870084  3.626574
H    -4.433487  -1.605185  4.561668
O    2.080712  1.496168  2.410930
