21
Energy: -14945.9818946 eV PBE+vdW (tier 2 basis)
N    0.247845  -0.307099  -0.048811
C    -0.135984  -0.098235  1.335932
C    1.002100  0.128296  2.350303
O    0.885773  0.780914  3.370081
H    0.976650  -1.016520  -0.134990
H    0.616275  0.549790  -0.459590
H    2.809486  -0.314408  2.680169
H    -0.752150  0.811126  1.382316
C    -1.015128  -1.299299  1.775818
C    -1.877376  -1.089081  2.976297
N    -2.964287  -1.916535  3.240723
C    -1.868462  -0.168462  3.995521
C    -3.593713  -1.532769  4.358318
N    -2.932583  -0.469268  4.822900
H    -0.379908  -2.187727  1.929475
H    -1.654167  -1.522508  0.907803
H    -3.254384  -2.702349  2.664786
H    -1.171834  0.640377  4.185544
H    -4.470987  -1.992159  4.795717
H    -3.182089  0.039466  5.666366
O    2.141026  -0.497619  1.989689
