21
Energy: -14946.0390617 eV PBE+vdW (tier 2 basis)
N    1.150385  0.563039  -0.064420
C    -0.132665  0.140166  0.497119
C    0.006468  -0.068626  2.025985
O    1.266354  -0.113918  2.454397
H    1.324136  0.200273  -1.000783
H    1.815430  0.065525  1.639959
H    1.232952  1.578374  -0.107629
H    -0.926421  0.894298  0.363169
C    -0.578125  -1.189944  -0.167301
C    -1.649127  -1.933776  0.555607
N    -2.892765  -1.408604  0.875930
C    -1.651023  -3.208087  1.058808
C    -3.614271  -2.296229  1.564761
N    -2.872222  -3.402105  1.672755
H    0.292658  -1.858246  -0.231998
H    -0.897568  -0.981701  -1.200514
H    -3.172961  -0.442208  0.736389
H    -0.886728  -3.973483  1.038916
H    -4.607772  -2.145355  1.967409
H    -3.169893  -4.250524  2.145600
O    -0.964840  -0.213869  2.740842
