21
Energy: -14946.1200746 eV PBE+vdW (tier 2 basis)
N    1.169944  -1.342026  0.259069
C    0.409918  -0.308513  0.984837
C    1.388198  0.464963  1.888462
O    0.942198  1.635070  2.397898
H    2.101176  -0.991819  0.026047
H    0.698932  -1.596031  -0.610085
H    0.098203  1.906950  1.994273
H    -0.089240  0.403607  0.304427
C    -0.691103  -0.985822  1.855550
C    -0.108356  -1.907977  2.875741
N    0.927784  -2.759482  2.534174
C    -0.351446  -2.113797  4.209192
C    1.326980  -3.449160  3.599506
N    0.548284  -3.076202  4.626584
H    -1.361280  -1.543320  1.182999
H    -1.311297  -0.232912  2.357950
H    1.342234  -2.630500  1.574796
H    -1.068746  -1.664139  4.882734
H    2.131281  -4.172580  3.639454
H    0.618134  -3.449549  5.568432
O    2.479201  0.037241  2.177959
