21
Energy: -14946.1135893 eV PBE+vdW (tier 2 basis)
N    0.423786  -1.102264  -0.081832
C    0.200525  -0.238764  1.062669
C    1.543511  0.136514  1.686585
O    2.617703  -0.056026  1.168490
H    -0.196343  -0.868973  -0.854508
H    1.388418  -1.005699  -0.404220
H    2.282583  1.027426  3.181185
H    -0.280011  0.723465  0.803828
C    -0.746301  -0.928467  2.094491
C    -0.132356  -2.154971  2.667368
N    0.445725  -2.199442  3.928973
C    0.099871  -3.391310  2.116652
C    1.000180  -3.396267  4.155379
N    0.792013  -4.129021  3.055835
H    -1.668537  -1.197761  1.565104
H    -1.022233  -0.226913  2.891840
H    0.470111  -1.418008  4.578981
H    -0.156572  -3.776696  1.139852
H    1.511224  -3.713382  5.055237
H    1.103521  -5.089088  2.939699
O    1.392926  0.726271  2.907630
