21
Energy: -14946.3315829 eV PBE+vdW (tier 2 basis)
N    -0.631715  0.237766  0.491718
C    0.067544  -0.130266  1.742286
C    1.541701  -0.551139  1.594217
O    2.104727  -1.313268  2.343781
H    -0.202439  1.069446  0.082254
H    -0.522918  -0.503001  -0.206113
H    3.064335  -0.201467  0.527670
H    0.089446  0.776481  2.371012
C    -0.706298  -1.228445  2.498931
C    -2.090823  -0.803320  2.857522
N    -2.828387  -0.012160  1.993520
C    -2.900213  -1.046158  3.938555
C    -4.033381  0.233570  2.505297
N    -4.093877  -0.395453  3.689140
H    -0.149677  -1.508882  3.399824
H    -0.749470  -2.136267  1.874209
H    -2.323387  0.325962  1.125665
H    -2.730518  -1.614571  4.843383
H    -4.819890  0.828896  2.059390
H    -4.901107  -0.388049  4.305470
O    2.124449  0.070219  0.542903
