21
Energy: -14945.9625729 eV PBE+vdW (tier 2 basis)
N    0.518029  -0.529304  -0.185210
C    -0.159197  -0.066354  1.009015
C    0.785560  0.153746  2.193478
O    0.391386  0.364665  3.324442
H    -0.031746  -0.359492  -1.025880
H    1.427341  -0.086595  -0.301573
H    2.610650  0.324696  2.642936
H    -0.652658  0.924576  0.889792
C    -1.255047  -1.113731  1.371827
C    -1.996049  -0.887933  2.640699
N    -2.717322  0.261132  2.934339
C    -2.126807  -1.688996  3.745842
C    -3.239756  0.190771  4.164326
N    -2.891269  -0.997949  4.663722
H    -0.775218  -2.099343  1.415955
H    -1.963377  -1.154871  0.530071
H    -2.791935  1.076680  2.334161
H    -1.721539  -2.670148  3.952756
H    -3.836211  0.947659  4.657088
H    -3.154147  -1.331877  5.586266
O    2.083343  0.133712  1.841239
