21
Energy: -14946.415245 eV PBE+vdW (tier 2 basis)
N    0.083081  -1.324963  0.066161
C    0.072846  -0.378456  1.198796
C    1.527250  -0.102115  1.591527
O    2.481552  -0.524252  0.976912
H    0.930999  -1.167511  -0.486066
H    -0.725453  -1.180204  -0.538890
H    2.548900  0.859686  2.857267
H    -0.361037  0.599262  0.927969
C    -0.757899  -0.938000  2.383714
C    -0.246217  -2.257237  2.860171
N    0.183056  -3.200686  1.942184
C    -0.076600  -2.819716  4.099577
C    0.609818  -4.293003  2.571238
N    0.449580  -4.080352  3.887166
H    -1.801467  -1.047138  2.049838
H    -0.762456  -0.218704  3.210052
H    0.219894  -2.867630  0.930955
H    -0.280867  -2.438916  5.091371
H    1.014220  -5.188116  2.116105
H    0.681312  -4.752408  4.612343
O    1.602487  0.677458  2.689610
