21
Energy: -14946.0100311 eV PBE+vdW (tier 2 basis)
N    1.648176  -0.397903  0.264242
C    0.224142  -0.538196  0.546519
C    -0.296925  0.790083  1.159317
O    0.462361  1.844571  0.870994
H    2.238884  -0.586425  1.074772
H    1.251656  1.474468  0.391428
H    1.966944  -0.971743  -0.513444
H    -0.290191  -0.629150  -0.424018
C    -0.161122  -1.760472  1.430892
C    -1.582829  -2.216856  1.337777
N    -1.918543  -3.520952  0.986930
C    -2.783123  -1.582925  1.556042
C    -3.247202  -3.689743  0.991417
N    -3.777898  -2.512518  1.335649
H    0.070771  -1.530391  2.481617
H    0.488435  -2.598091  1.139089
H    -1.254042  -4.258794  0.770798
H    -2.964910  -0.554675  1.842098
H    -3.784098  -4.600489  0.758825
H    -4.774905  -2.334354  1.420562
O    -1.315579  0.860555  1.816494
