21
Energy: -14946.0946727 eV PBE+vdW (tier 2 basis)
N    0.597723  -1.349247  0.314391
C    0.221249  -0.210578  1.148410
C    1.512201  0.544668  1.537367
O    1.653039  1.792764  1.077459
H    -0.233349  -1.812087  -0.056297
H    1.160986  -1.063889  -0.487245
H    0.883553  2.062321  0.543502
H    -0.452745  0.514450  0.648267
C    -0.550852  -0.702246  2.405429
C    0.009254  -1.923815  3.063017
N    1.358229  -2.092538  3.310960
C    -0.612232  -3.042310  3.557680
C    1.573169  -3.254861  3.920358
N    0.379880  -3.846154  4.084761
H    -1.583607  -0.926527  2.106382
H    -0.618320  0.119663  3.135020
H    2.044213  -1.373259  2.960489
H    -1.656138  -3.325457  3.581025
H    2.531360  -3.656694  4.224230
H    0.238021  -4.747082  4.530721
O    2.400366  0.065879  2.224074
