21
Energy: -14946.4597847 eV PBE+vdW (tier 2 basis)
N    -0.203819  -0.231871  -0.059739
C    -0.172769  -0.148985  1.401834
C    1.055557  0.729225  1.790341
O    1.592981  1.360190  0.773138
H    -1.142981  -0.158176  -0.444886
H    0.227505  -1.083674  -0.419889
H    1.051036  1.040353  -0.017434
H    -1.051333  0.432725  1.723725
C    -0.199854  -1.530731  2.112240
C    -0.537658  -1.518061  3.569510
N    0.071332  -0.653762  4.459447
C    -1.398252  -2.291579  4.308224
C    -0.383167  -0.871363  5.690147
N    -1.277534  -1.870743  5.618036
H    0.773616  -2.028249  1.970125
H    -0.947713  -2.152890  1.604155
H    0.752368  0.077863  4.061323
H    -2.064249  -3.094067  4.019748
H    -0.093998  -0.340240  6.588331
H    -1.785584  -2.250863  6.411065
O    1.480515  0.859900  2.937559
