21
Energy: -14946.3922693 eV PBE+vdW (tier 2 basis)
N    0.981453  -1.423977  1.789167
C    0.439478  -0.311672  0.932402
C    -0.289547  0.623764  1.908014
O    -0.986277  1.565382  1.264925
H    1.882359  -1.777889  1.458419
H    -1.386885  2.160106  1.931639
H    1.061360  -1.059213  2.754676
H    1.280189  0.258607  0.510770
C    -0.431492  -0.874717  -0.207704
C    -1.497459  -1.799507  0.292635
N    -1.177979  -2.743168  1.257856
C    -2.820753  -1.935521  -0.049491
C    -2.282606  -3.433912  1.499147
N    -3.292355  -2.976184  0.720723
H    0.228066  -1.400729  -0.916448
H    -0.868698  -0.033351  -0.756974
H    0.197628  -2.223130  1.767083
H    -3.447834  -1.405675  -0.755017
H    -2.388804  -4.247337  2.207299
H    -4.237967  -3.343698  0.704131
O    -0.188877  0.508821  3.111746
