21
Energy: -14946.0546501 eV PBE+vdW (tier 2 basis)
N    0.317099  0.015085  0.078355
C    0.033913  -0.168831  1.484155
C    1.209996  -0.780122  2.269145
O    2.195778  -1.268078  1.787295
H    0.975995  0.780154  -0.064075
H    0.754713  -0.818837  -0.319038
H    1.815095  -1.125751  4.049614
H    -0.177574  0.819202  1.921680
C    -1.244517  -1.059677  1.636747
C    -2.140915  -0.723890  2.777715
N    -1.705577  -0.578365  4.087001
C    -3.495496  -0.503309  2.813695
C    -2.729062  -0.282781  4.891997
N    -3.827227  -0.239172  4.128087
H    -0.963440  -2.123781  1.682916
H    -1.814007  -0.925519  0.709185
H    -0.709839  -0.648644  4.341796
H    -4.233604  -0.516602  2.022658
H    -2.682731  -0.105997  5.959097
H    -4.761037  -0.037213  4.473456
O    1.019438  -0.724871  3.643518
