30
Energy: -609761.6438287  eV PBE+vdW (tier 2 basis)
C    0.079113  0.774576  0.185318
C    0.129764  0.342010  1.614748
O    1.271690  0.111646  2.169761
H    0.704682  1.665183  0.038847
H    -0.938201  0.987117  -0.157801
H    0.503104  -0.024872  -0.439416
N    -1.009021  0.178605  2.265036
C    -1.287861  -0.381888  3.582442
C    -2.744127  -0.940966  3.404412
O    -3.409394  -0.476398  2.474845
H    -1.923084  0.263426  1.764312
H    -0.560399  -1.170660  3.816583
C    -1.295072  0.695866  4.722843
C    0.004433  1.412484  4.763239
N    0.220680  2.625667  4.139452
C    1.263485  0.970664  5.118472
C    1.547306  2.873192  4.081305
N    2.221309  1.869395  4.668739
H    -1.480386  0.185032  5.676521
H    -2.131576  1.389704  4.562463
H    -0.508525  3.264772  3.826235
H    1.532844  0.081045  5.680173
H    1.983136  3.779103  3.671442
N    -3.162686  -1.841024  4.300208
C    -4.510373  -2.417098  4.291663
H    -2.504652  -2.195431  4.987066
H    -4.984801  -2.268153  5.268357
H    -4.461774  -3.489997  4.070636
H    -5.096907  -1.913994  3.518812
Pb    3.283291  0.509993  3.015288
