30
Energy: -609761.5071184  eV PBE+vdW (tier 2 basis)
C    0.265705  -0.054449  0.422425
C    0.058659  -0.047495  1.904966
O    1.070551  -0.193417  2.702789
H    0.752012  -0.996751  0.133918
H    0.935482  0.768227  0.129361
H    -0.667802  0.048725  -0.139485
N    -1.168790  0.091461  2.360065
C    -1.722293  0.034363  3.712878
C    -3.215676  -0.353034  3.429476
O    -3.624781  -0.178803  2.276740
H    -1.989218  0.103530  1.704660
H    -1.195379  -0.727912  4.301214
C    -1.678886  1.421821  4.436721
C    -0.270660  1.850643  4.644645
N    0.513652  1.412047  5.694697
C    0.609680  2.463973  3.777036
C    1.805953  1.703166  5.439951
N    1.900729  2.341914  4.254369
H    -2.221471  1.348606  5.388584
H    -2.209318  2.160247  3.821339
H    0.171219  0.993912  6.557925
H    0.391302  2.957189  2.835796
H    2.620217  1.529857  6.137737
N    -3.977090  -0.814386  4.430565
C    -3.616172  -1.101419  5.813877
H    -4.943203  -0.988468  4.155864
H    -3.855915  -0.261147  6.481195
H    -2.552117  -1.348906  5.899986
H    -4.179843  -1.977331  6.152397
Pb    3.079452  0.784836  2.875308
