30
Energy: -609762.1447295  eV PBE+vdW (tier 2 basis)
C    -0.465645  0.372770  0.362862
C    -0.265254  0.249338  1.840197
O    0.853367  0.552787  2.341385
H    -1.466563  0.084664  0.025109
H    0.283432  -0.242754  -0.153266
H    -0.272372  1.414183  0.069298
N    -1.316269  -0.169088  2.573789
C    -1.485821  -0.317771  4.033943
C    -0.762579  0.784008  4.835140
O    0.409525  0.629391  5.306215
H    -2.153397  -0.379411  2.035561
H    -2.559641  -0.147010  4.187080
C    -1.247256  -1.761506  4.562644
C    0.167890  -2.202788  4.740248
N    0.707501  -2.510412  5.959786
C    1.235564  -2.313843  3.849676
C    2.045721  -2.764976  5.804647
N    2.406737  -2.647938  4.539670
H    -1.766104  -2.444666  3.873346
H    -1.779343  -1.846970  5.520607
H    0.202362  -2.545276  6.843322
H    1.198641  -2.346711  2.763080
H    2.696935  -3.031467  6.632133
N    -1.423757  1.904839  5.088755
C    -2.790651  2.280450  4.705828
H    -0.901352  2.577170  5.652510
H    -2.928867  3.336558  4.953553
H    -3.534922  1.699054  5.265673
H    -2.946128  2.162617  3.627575
Pb    2.312250  0.085757  4.072632
