30
Energy: -609762.2336135  eV PBE+vdW (tier 2 basis)
C    0.067108  0.290628  0.502739
C    -0.182082  -0.306443  1.853008
O    0.779584  -0.401406  2.665045
H    -0.814686  0.306287  -0.146259
H    0.873285  -0.267307  0.008283
H    0.431184  1.318934  0.637573
N    -1.444084  -0.695669  2.124229
C    -2.099465  -1.249320  3.330955
C    -1.639496  -0.590739  4.650660
O    -0.588217  -0.932072  5.273777
H    -2.092034  -0.545288  1.354866
H    -3.149530  -0.956036  3.196793
C    -2.137033  -2.809639  3.372665
C    -0.903260  -3.482446  3.871657
N    -0.822183  -4.099400  5.094050
C    0.394174  -3.521439  3.374872
C    0.477120  -4.453019  5.329293
N    1.251769  -4.107603  4.311335
H    -2.370650  -3.154790  2.355078
H    -2.996119  -3.100324  3.993515
H    -1.601613  -4.280433  5.723670
H    0.733875  -3.293178  2.367553
H    0.801758  -4.959116  6.233661
N    -2.454800  0.327857  5.152322
C    -2.230579  1.058546  6.401981
H    -3.297647  0.557455  4.631262
H    -1.802823  2.047157  6.189740
H    -1.546357  0.491340  7.037304
H    -3.190606  1.186942  6.912223
Pb    1.574406  -1.433481  4.561150
