30
Energy: -609761.4328166  eV PBE+vdW (tier 2 basis)
C    -0.137811  -0.293178  -0.021701
C    -0.293728  -0.442720  1.451749
O    0.385433  -1.349962  2.056639
H    0.928725  -0.167796  -0.254761
H    -0.702613  0.553058  -0.426074
H    -0.463871  -1.218549  -0.517544
N    -1.120698  0.378411  2.095879
C    -1.264816  0.543350  3.545231
C    -2.000982  -0.653055  4.177519
O    -1.329283  -1.666679  4.593411
H    -1.451474  1.203111  1.564330
H    -0.260498  0.541601  4.000213
C    -1.922845  1.941464  3.817326
C    -1.391940  3.002585  2.920327
N    -0.228412  3.719251  3.122584
C    -1.832820  3.397041  1.661702
C    -0.040522  4.509154  2.017087
N    -0.984479  4.322238  1.116467
H    -1.798525  2.175368  4.883005
H    -3.006577  1.895338  3.630589
H    0.321326  3.759283  3.975475
H    -2.754002  3.107904  1.157737
H    0.790846  5.202794  1.933473
N    -3.308257  -0.622820  4.320061
C    -4.137745  -1.682462  4.902351
H    -3.793118  0.215425  4.005939
H    -4.870937  -1.223137  5.574057
H    -3.507134  -2.376432  5.461814
H    -4.669274  -2.218046  4.105098
Pb    0.570030  -2.604534  3.871016
