30
Energy: -609761.4003969  eV PBE+vdW (tier 2 basis)
C    -1.468129  -2.191289  -0.678559
C    -0.919507  -1.505004  0.524422
O    0.248128  -1.827280  0.948450
H    -1.453079  -3.278546  -0.526373
H    -0.798277  -1.983218  -1.526906
H    -2.481838  -1.869178  -0.938428
N    -1.642702  -0.551782  1.113801
C    -1.219463  0.422613  2.138856
C    -1.339791  -0.199766  3.543516
O    -0.674514  -1.273126  3.819306
H    -2.559570  -0.375403  0.704525
H    -0.141424  0.603159  1.990438
C    -2.007543  1.735009  1.838711
C    -1.945629  2.826098  2.851029
N    -0.828183  3.581835  3.156209
C    -2.931498  3.295067  3.708376
C    -1.188939  4.456577  4.150931
N    -2.444609  4.294206  4.510293
H    -3.072502  1.479309  1.717788
H    -1.661021  2.080977  0.851783
H    0.056392  3.593457  2.658242
H    -3.977863  2.996476  3.745343
H    -0.496554  5.184514  4.563238
N    -2.083787  0.359685  4.460379
C    -2.245427  -0.135525  5.830103
H    -2.471104  1.296692  4.234018
H    -2.608314  -1.169182  5.818821
H    -2.972181  0.505303  6.335864
H    -1.289236  -0.094414  6.367163
Pb    1.027164  -2.410263  2.949662
