30
Energy: -609762.2385915  eV PBE+vdW (tier 2 basis)
C    1.311508  1.778479  2.840419
C    -0.171963  1.985257  2.867423
O    -0.660302  2.757019  3.742609
H    1.639981  0.994619  2.150030
H    1.657899  1.540564  3.854320
H    1.792430  2.726026  2.557376
N    -0.892480  1.309376  1.948679
C    -2.334405  1.220503  1.647606
C    -2.935775  2.554344  1.177474
O    -2.696329  3.656538  1.754890
H    -0.319558  0.742760  1.329210
H    -2.368298  0.545066  0.784152
C    -3.205144  0.498357  2.732714
C    -3.308805  1.206242  4.038295
N    -2.582707  0.880205  5.155670
C    -3.956857  2.387208  4.376722
C    -2.748254  1.858915  6.092732
N    -3.571226  2.800560  5.653447
H    -2.792887  -0.510945  2.865919
H    -4.209359  0.365334  2.305080
H    -2.019839  0.041087  5.278776
H    -4.768513  2.878488  3.842840
H    -2.264826  1.840083  7.064797
N    -3.745045  2.534260  0.122922
C    -4.106822  1.411214  -0.751760
H    -4.122719  3.449781  -0.123648
H    -3.221379  0.986959  -1.242415
H    -4.769132  1.796672  -1.531741
H    -4.649059  0.629969  -0.205763
Pb    -2.253137  4.392060  3.935222
