30
Energy: -609761.4000751  eV PBE+vdW (tier 2 basis)
C    -1.589849  -2.210393  -0.592965
C    -0.978781  -1.495915  0.562600
O    0.218090  -1.792753  0.917676
H    -2.621104  -1.904305  -0.797243
H    -1.553190  -3.294346  -0.421593
H    -0.974396  -2.011780  -1.483605
N    -1.680246  -0.545131  1.181547
C    -1.212299  0.449615  2.166635
C    -1.245936  -0.156766  3.583954
O    -0.539275  -1.210932  3.830751
H    -2.623459  -0.389814  0.827340
H    -0.146657  0.640088  1.955304
C    -2.031397  1.748198  1.891559
C    -1.931208  2.853305  2.885388
N    -0.808878  3.625979  3.123549
C    -2.878056  3.322726  3.785145
C    -1.129781  4.510233  4.123497
N    -2.363575  4.338178  4.548257
H    -3.097975  1.478584  1.828921
H    -1.740948  2.084897  0.883528
H    0.048581  3.641869  2.580362
H    -3.917344  3.012270  3.879575
H    -0.426607  5.251952  4.490503
N    -1.961200  0.398853  4.526045
C    -2.068644  -0.063392  5.910244
H    -2.372633  1.326705  4.302608
H    -1.830213  -1.127196  5.974080
H    -3.093756  0.113761  6.252276
H    -1.382380  0.511937  6.546258
Pb    1.131116  -2.323426  2.876803
