30
Energy: -609762.2337828  eV PBE+vdW (tier 2 basis)
C    2.035636  0.886409  1.382602
C    0.874077  0.387459  2.184874
O    1.083090  -0.060210  3.346493
H    2.765631  0.073402  1.269685
H    1.762399  1.266740  0.392893
H    2.536216  1.683574  1.949346
N    -0.342206  0.461808  1.608312
C    -1.710677  0.140456  2.073553
C    -1.990295  0.552454  3.535934
O    -1.660252  -0.152684  4.537787
H    -0.325032  0.850820  0.668767
H    -2.340781  0.789851  1.450771
C    -2.176574  -1.306726  1.717869
C    -1.724638  -2.385550  2.642847
N    -2.562120  -3.029487  3.517820
C    -0.457723  -2.860936  2.959227
C    -1.817417  -3.822743  4.345042
N    -0.529336  -3.738679  4.045519
H    -1.830831  -1.515755  0.695155
H    -3.274445  -1.294765  1.667806
H    -3.576657  -2.946925  3.542734
H    0.465729  -2.733863  2.399616
H    -2.250410  -4.438627  5.127658
N    -2.675126  1.676927  3.698755
C    -3.074899  2.234812  4.993080
H    -2.936992  2.204852  2.869776
H    -2.340809  2.979371  5.328062
H    -3.143947  1.431663  5.730850
H    -4.049582  2.719654  4.880109
Pb    0.264976  -1.361300  5.057059
