30
Energy: -609761.2277601  eV PBE+vdW (tier 2 basis)
C    1.673772  1.003852  0.512279
C    0.996588  0.289962  1.631995
O    1.708274  -0.409159  2.441556
H    2.157148  0.250634  -0.128868
H    0.993653  1.605830  -0.099053
H    2.476857  1.640398  0.906369
N    -0.328956  0.382317  1.744678
C    -1.286303  -0.402034  2.552094
C    -1.282288  -0.064449  4.045155
O    -0.203778  0.126564  4.722597
H    -0.769890  0.973653  1.043097
H    -2.259405  -0.081412  2.162435
C    -1.214076  -1.944501  2.302269
C    -2.472795  -2.595076  2.777531
N    -2.515637  -3.678978  3.633628
C    -3.803931  -2.256387  2.578815
C    -3.835047  -3.951568  3.887342
N    -4.630980  -3.095712  3.278183
H    -0.329712  -2.380047  2.787833
H    -1.073055  -2.080561  1.218690
H    -1.731628  -4.257437  3.918745
H    -4.216285  -1.480743  1.935746
H    -4.149299  -4.783193  4.510685
N    -2.454901  -0.035488  4.641113
C    -2.702374  0.168192  6.068351
H    -3.265323  -0.285000  4.066658
H    -1.771297  0.430367  6.573634
H    -3.121738  -0.750874  6.497238
H    -3.431431  0.978160  6.188859
Pb    1.961841  -0.352308  4.642346
