30
Energy: -609761.4521598  eV PBE+vdW (tier 2 basis)
C    1.234661  0.523795  1.679984
C    -0.075253  1.125377  2.086865
O    -0.155975  2.046158  2.921940
H    1.907678  1.328722  1.356458
H    1.154195  -0.226458  0.886327
H    1.700088  0.064249  2.562743
N    -1.201314  0.637009  1.492231
C    -2.556244  1.121355  1.744992
C    -2.674708  2.657168  1.586493
O    -3.259080  3.400215  2.446329
H    -1.101044  -0.133675  0.838478
H    -3.153694  0.716928  0.912018
C    -3.215395  0.522904  3.032612
C    -3.131681  1.324775  4.285048
N    -2.003294  1.932432  4.741470
C    -4.161469  1.748851  5.139476
C    -2.337708  2.745457  5.782717
N    -3.643534  2.655383  6.072709
H    -2.763614  -0.468539  3.185877
H    -4.278640  0.340529  2.832090
H    -1.109534  1.960005  4.162483
H    -5.173360  1.358209  5.226656
H    -1.618224  3.355510  6.322539
N    -2.235451  3.223363  0.471555
C    -1.644577  2.625596  -0.728281
H    -2.352761  4.236394  0.454711
H    -2.106019  1.659887  -0.958225
H    -0.560326  2.503627  -0.615950
H    -1.837449  3.301891  -1.566736
Pb    -4.405274  4.193881  4.272389
