30
Energy: -609761.4819154  eV PBE+vdW (tier 2 basis)
C    -0.855849  0.002782  0.145287
C    -0.526256  0.138579  1.591253
O    0.620584  0.603147  1.926388
H    -1.850678  -0.418592  -0.031789
H    -0.099062  -0.624051  -0.345473
H    -0.795151  0.996102  -0.323100
N    -1.437672  -0.200260  2.505343
C    -1.308539  -0.030224  3.956920
C    -0.402744  -1.146642  4.516286
O    0.861982  -0.917529  4.633524
H    -2.310793  -0.618554  2.177696
H    -0.759708  0.907295  4.132087
C    -2.706982  0.138356  4.621595
C    -3.704138  -0.936254  4.342364
N    -4.506784  -0.969730  3.204695
C    -4.027406  -2.097084  5.026508
C    -5.271603  -2.112291  3.283964
N    -4.983748  -2.816554  4.354747
H    -3.087447  1.121224  4.305283
H    -2.546991  0.214374  5.705783
H    -4.726997  -0.174808  2.609376
H    -3.673491  -2.413778  6.006296
H    -6.017015  -2.364741  2.535409
N    -0.920019  -2.304682  4.839129
C    -0.194831  -3.465828  5.357355
H    -1.946739  -2.390493  4.732901
H    0.819908  -3.178677  5.640395
H    -0.164510  -4.251398  4.591266
H    -0.730615  -3.850393  6.232622
Pb    2.211293  0.445702  3.493890
