30
Energy: -609762.3317434  eV PBE+vdW (tier 2 basis)
C    -0.240922  1.860107  -1.006939
C    -1.015312  1.124897  0.043504
O    -0.560182  0.025892  0.472979
H    0.710380  2.195932  -0.569329
H    0.013802  1.164339  -1.816560
H    -0.765448  2.726878  -1.422261
N    -2.167825  1.692155  0.454724
C    -3.191533  1.298637  1.445306
C    -2.644591  1.242212  2.884546
O    -1.646285  0.546156  3.230051
H    -2.365442  2.580370  0.001529
H    -3.896744  2.139792  1.421697
C    -4.067371  0.064155  1.045677
C    -3.348131  -1.232405  0.915926
N    -2.922665  -1.764295  -0.273835
C    -2.820277  -2.079546  1.883995
C    -2.129661  -2.847720  -0.016610
N    -2.036121  -3.068346  1.285086
H    -4.576828  0.318677  0.106082
H    -4.856599  -0.027544  1.806051
H    -3.167166  -1.424489  -1.201716
H    -3.083234  -2.125788  2.939715
H    -1.657400  -3.436665  -0.797180
N    -3.294291  1.967097  3.786832
C    -2.939636  2.003956  5.209894
H    -4.066220  2.553145  3.481375
H    -2.989169  0.997115  5.640463
H    -1.925008  2.399708  5.337365
H    -3.651277  2.654152  5.724579
Pb    -0.369845  -1.223575  2.384053
