30
Energy: -609762.2387875  eV PBE+vdW (tier 2 basis)
C    1.253572  1.686482  2.983375
C    -0.226175  1.919738  2.992776
O    -0.713065  2.686687  3.872990
H    1.581129  1.426902  3.998195
H    1.755468  2.629240  2.721619
H    1.577544  0.907305  2.285603
N    -0.945308  1.271120  2.053490
C    -2.383998  1.212945  1.730515
C    -2.954676  2.564671  1.273453
O    -2.704692  3.653080  1.872229
H    -0.373736  0.703646  1.433568
H    -2.417344  0.552053  0.855836
C    -3.283150  0.489327  2.791308
C    -3.392855  1.178262  4.106451
N    -2.688020  0.822430  5.228447
C    -4.024666  2.365211  4.454200
C    -2.849110  1.789649  6.178068
N    -3.649297  2.752432  5.742091
H    -2.891162  -0.529363  2.913825
H    -4.283317  0.381612  2.347356
H    -2.142080  -0.028544  5.346357
H    -4.819523  2.879333  3.916574
H    -2.379666  1.747685  7.156247
N    -3.748127  2.576008  0.206828
C    -4.116220  1.473993  -0.691504
H    -4.105941  3.501932  -0.030324
H    -3.231137  1.042424  -1.176414
H    -4.760294  1.883643  -1.474424
H    -4.679779  0.693389  -0.166544
Pb    -2.279371  4.346703  4.069807
