30
Energy: -609761.5069363  eV PBE+vdW (tier 2 basis)
C    0.413362  0.072248  0.362418
C    0.166483  0.027500  1.838156
O    1.148174  -0.199769  2.654494
H    -0.498218  0.246002  -0.217786
H    0.859841  -0.880761  0.045915
H    1.131110  0.871120  0.121882
N    -1.065128  0.205735  2.267621
C    -1.657409  0.116736  3.602226
C    -3.158636  -0.187823  3.264350
O    -3.527919  0.055300  2.110688
H    -1.865905  0.284711  1.592897
H    -1.182197  -0.694018  4.169377
C    -1.569938  1.468129  4.387543
C    -0.149555  1.820044  4.650058
N    0.584338  1.298678  5.698689
C    0.781914  2.428413  3.833804
C    1.895287  1.538904  5.490401
N    2.052237  2.224154  4.337838
H    -2.141164  1.379898  5.321211
H    -2.048468  2.256702  3.792189
H    0.199244  0.859395  6.532906
H    0.612663  2.972593  2.910719
H    2.681020  1.296384  6.200199
N    -3.966817  -0.656799  4.224417
C    -3.656392  -1.018716  5.602499
H    -4.932118  -0.773619  3.918436
H    -3.870932  -0.195625  6.299144
H    -2.608669  -1.323809  5.702975
H    -4.271877  -1.877815  5.889897
Pb    3.194670  0.674105  2.920836
