30
Energy: -609762.2345632  eV PBE+vdW (tier 2 basis)
C    2.276403  0.790943  1.431510
C    1.068226  0.372557  2.210621
O    1.218540  -0.041144  3.393752
H    2.974205  -0.055439  1.374212
H    2.052832  1.144351  0.419560
H    2.791568  1.587815  1.985580
N    -0.124356  0.479269  1.591101
C    -1.519599  0.238517  2.024136
C    -1.821089  0.719340  3.461010
O    -1.562553  0.034169  4.497229
H    -0.060064  0.832164  0.639383
H    -2.099926  0.892089  1.358745
C    -2.042761  -1.197770  1.706843
C    -1.670611  -2.261906  2.683071
N    -2.564440  -2.835321  3.551237
C    -0.438020  -2.784797  3.056023
C    -1.884273  -3.633753  4.427913
N    -0.585187  -3.620704  4.167647
H    -1.677639  -1.460726  0.703468
H    -3.136890  -1.136737  1.622300
H    -3.574003  -2.703296  3.541484
H    0.506935  -2.721554  2.521947
H    -2.370225  -4.201076  5.216220
N    -2.444642  1.886029  3.561141
C    -2.849921  2.515171  4.820558
H    -2.651261  2.395400  2.705322
H    -3.796413  3.041310  4.661522
H    -2.088955  3.236773  5.145696
H    -2.977374  1.747103  5.587286
Pb    0.286493  -1.242779  5.119483
