30
Energy: -609761.4619658  eV PBE+vdW (tier 2 basis)
C    -1.219839  1.288851  -0.961783
C    -0.936873  0.589359  0.322655
O    0.163547  -0.090675  0.432353
H    -2.231721  1.701419  -1.013819
H    -1.029365  0.628959  -1.815614
H    -0.508536  2.125924  -1.047570
N    -1.729612  0.684185  1.372762
C    -3.163016  0.935099  1.486858
C    -3.385674  0.808969  3.027148
O    -2.595390  0.088026  3.654128
H    -1.431783  0.247510  2.272657
H    -3.432157  1.930545  1.113654
C    -4.046333  -0.167002  0.741303
C    -3.244537  -1.363923  0.355588
N    -3.009201  -1.736894  -0.957588
C    -2.343832  -2.103708  1.091586
C    -1.990244  -2.619083  -1.003791
N    -1.542338  -2.851309  0.242057
H    -4.503523  0.277891  -0.151264
H    -4.873998  -0.445165  1.407390
H    -3.561166  -1.445659  -1.762773
H    -2.219161  -2.115323  2.171016
H    -1.632317  -3.091947  -1.912680
N    -4.443841  1.441295  3.537831
C    -4.830819  1.369062  4.948779
H    -4.979279  2.059598  2.935200
H    -5.884508  1.079124  5.030033
H    -4.685436  2.344029  5.429476
H    -4.203855  0.624171  5.444953
Pb    0.721806  -2.229327  0.723453
