30
Energy: -609761.4794906  eV PBE+vdW (tier 2 basis)
C    -0.628117  -1.741898  1.512754
C    -0.367293  -0.300732  1.783007
O    0.850167  0.077340  1.985160
H    -0.469381  -1.974161  0.450521
H    -1.640821  -2.049339  1.784417
H    0.098668  -2.324464  2.091915
N    -1.330948  0.617756  1.916631
C    -2.635862  0.802464  1.234093
C    -3.214167  -0.467623  0.564124
O    -2.785321  -0.862517  -0.534731
H    -0.956539  1.508952  2.248104
H    -3.339587  1.175093  1.990010
C    -2.433996  1.940309  0.156759
C    -1.108874  1.790974  -0.509135
N    -0.797821  0.691100  -1.274923
C    0.091830  2.435327  -0.285328
C    0.530928  0.644509  -1.466032
N    1.120025  1.704744  -0.876544
H    -2.477551  2.917288  0.654629
H    -3.269508  1.902100  -0.554660
H    -1.518522  -0.057100  -1.406303
H    0.272084  3.388765  0.203370
H    1.040021  -0.119709  -2.045088
N    -4.215127  -1.058207  1.229137
C    -4.948490  -2.222314  0.731163
H    -4.525486  -0.650287  2.106363
H    -6.001787  -1.959581  0.575300
H    -4.888350  -3.041189  1.457972
H    -4.506991  -2.535748  -0.217973
Pb    2.533817  1.153151  0.935291
