30
Energy: -609761.4521443  eV PBE+vdW (tier 2 basis)
C    1.209913  0.452065  1.794540
C    -0.089594  1.090066  2.178657
O    -0.163185  1.989114  3.037710
H    1.127826  -0.271412  0.976569
H    1.630421  -0.049387  2.676992
H    1.921113  1.240858  1.516003
N    -1.213157  0.661377  1.535251
C    -2.556320  1.190372  1.759115
C    -2.609210  2.733802  1.644856
O    -3.187828  3.474619  2.510576
H    -1.120936  -0.095219  0.864060
H    -3.140553  0.834854  0.895087
C    -3.280935  0.580609  3.005454
C    -3.207179  1.340578  4.284263
N    -2.071587  1.888428  4.795084
C    -4.247226  1.780522  5.117962
C    -2.408017  2.683413  5.849310
N    -3.725150  2.637879  6.094523
H    -2.874543  -0.432692  3.141951
H    -4.343346  0.447927  2.765207
H    -1.159066  1.899044  4.246393
H    -5.275878  1.428239  5.161472
H    -1.683411  3.248183  6.429992
N    -2.114764  3.314225  0.560897
C    -1.513405  2.729428  -0.640205
H    -2.189707  4.331370  0.572596
H    -0.438847  2.558911  -0.501258
H    -1.653793  3.439002  -1.461419
H    -2.006883  1.791339  -0.914003
Pb    -4.367749  4.257486  4.319366
