30
Energy: -609761.3967473  eV PBE+vdW (tier 2 basis)
C    -1.322117  -2.356455  -0.573739
C    -0.877546  -1.672599  0.672668
O    0.221057  -2.032745  1.223224
H    -1.386821  -3.438604  -0.398197
H    -0.549556  -2.207323  -1.342996
H    -2.280598  -1.987882  -0.953602
N    -1.620085  -0.679561  1.169732
C    -1.258424  0.252856  2.252382
C    -1.569629  -0.391699  3.618959
O    -0.852313  -1.376337  4.029617
H    -2.479856  -0.465988  0.666383
H    -0.164556  0.385336  2.224872
C    -1.920645  1.607511  1.952161
C    -1.536796  2.687045  2.915620
N    -2.003456  3.982743  2.803059
C    -0.680432  2.722398  4.006904
C    -1.424161  4.715769  3.803663
N    -0.623718  3.976294  4.546769
H    -3.019504  1.477086  1.898959
H    -1.610534  1.881839  0.929016
H    -2.637031  4.344094  2.096167
H    -0.091076  1.915233  4.435658
H    -1.625792  5.773662  3.940944
N    -2.553636  0.073114  4.351044
C    -2.951787  -0.408441  5.674886
H    -2.996841  0.932783  4.025348
H    -2.427988  -1.338294  5.902978
H    -4.034809  -0.576965  5.681202
H    -2.703804  0.355523  6.423352
Pb    0.950454  -2.477393  3.282966
