30
Energy: -609761.5579131  eV PBE+vdW (tier 2 basis)
C    0.136787  2.269306  0.729271
C    -0.481414  0.935929  0.528674
O    0.223445  -0.123800  0.511837
H    -0.594007  3.080550  0.802095
H    0.806692  2.261670  1.597482
H    0.771533  2.466471  -0.151452
N    -1.817725  0.806920  0.299354
C    -2.874802  1.346415  1.157345
C    -2.399652  1.294334  2.633593
O    -1.498117  0.483135  3.008589
H    -2.026328  -0.126773  -0.052597
H    -3.115215  2.385684  0.889938
C    -4.171269  0.472345  0.941218
C    -3.811420  -0.980439  0.969646
N    -3.553192  -1.728216  -0.171849
C    -3.239775  -1.714721  1.989314
C    -2.812175  -2.817300  0.170093
N    -2.573847  -2.825879  1.481031
H    -4.624989  0.754822  -0.017883
H    -4.900950  0.718764  1.722700
H    -3.929311  -1.544069  -1.101596
H    -3.304641  -1.533191  3.058427
H    -2.482790  -3.567097  -0.542794
N    -2.982263  2.135980  3.474061
C    -2.714746  2.235938  4.911481
H    -3.659527  2.792120  3.089288
H    -2.397529  3.257459  5.151692
H    -3.626942  2.003269  5.474091
H    -1.923662  1.533223  5.180472
Pb    -0.412170  -1.550848  2.267479
