30
Energy: -609761.6352370  eV PBE+vdW (tier 2 basis)
C    -2.180611  2.377239  0.853123
C    -1.467841  1.079380  1.021837
O    -0.175963  1.055180  0.935102
H    -1.932494  3.001004  1.727154
H    -1.812163  2.914058  -0.028510
H    -3.268494  2.282181  0.803749
N    -2.109292  -0.034555  1.346320
C    -3.508276  -0.398668  1.067883
C    -3.662270  -1.821172  1.652836
O    -2.748326  -2.633189  1.421105
H    -1.535313  -0.872198  1.510575
H    -4.194411  0.322170  1.527096
C    -3.773906  -0.469264  -0.499831
C    -2.497809  -0.736680  -1.221065
N    -1.780906  -1.908312  -1.080863
C    -1.618431  0.156023  -1.796197
C    -0.519668  -1.709374  -1.497522
N    -0.377056  -0.443444  -1.944955
H    -4.539331  -1.232111  -0.692874
H    -4.179161  0.488004  -0.847969
H    -2.114008  -2.713366  -0.535843
H    -1.802418  1.177342  -2.112220
H    0.244435  -2.480834  -1.513755
N    -4.787422  -2.086616  2.317974
C    -5.115522  -3.401772  2.871486
H    -5.443051  -1.329370  2.488291
H    -4.337146  -4.109694  2.576380
H    -6.086135  -3.734713  2.486142
H    -5.161289  -3.345726  3.965688
Pb    1.302276  0.708476  -0.707135
