30
Energy: -609761.6191120  eV PBE+vdW (tier 2 basis)
C    -1.015253  -0.997059  3.737604
C    -0.365677  0.006757  2.857496
O    0.875091  -0.034694  2.609768
H    -0.700942  -2.013331  3.472174
H    -2.106264  -0.911180  3.763275
H    -0.645424  -0.814138  4.761147
N    -1.090064  1.034436  2.320851
C    -2.309592  0.868142  1.531292
C    -2.197265  -0.431663  0.699945
O    -1.080475  -0.817212  0.230178
H    -0.469387  1.753178  1.952437
H    -3.199488  0.835028  2.176263
C    -2.443014  2.111904  0.581807
C    -1.340813  2.128278  -0.428933
N    -1.470334  1.640430  -1.706759
C    0.031642  2.305480  -0.267247
C    -0.229751  1.492322  -2.256644
N    0.712356  1.873321  -1.404702
H    -2.423798  3.015087  1.207679
H    -3.427982  2.087273  0.098756
H    -2.348830  1.456440  -2.187381
H    0.556543  2.857915  0.511011
H    -0.064872  1.126680  -3.265890
N    -3.315906  -1.107215  0.484644
C    -3.433981  -2.343473  -0.293793
H    -4.163688  -0.764136  0.932705
H    -4.223998  -2.227242  -1.044580
H    -3.696825  -3.174760  0.372054
H    -2.481271  -2.553861  -0.784001
Pb    1.221262  -0.173707  0.249843
