30
Energy: -609761.2283792  eV PBE+vdW (tier 2 basis)
C    1.779560  0.906409  0.504857
C    1.105449  0.190031  1.624876
O    1.813444  -0.544196  2.406206
H    2.230586  0.152728  -0.158881
H    1.103986  1.537017  -0.082163
H    2.606545  1.514616  0.894317
N    -0.214352  0.317041  1.766977
C    -1.176839  -0.455217  2.579823
C    -1.130804  -0.149604  4.079025
O    -0.033304  0.003124  4.735440
H    -0.652721  0.933576  1.085761
H    -2.148193  -0.097861  2.218758
C    -1.156126  -1.993661  2.296457
C    -2.421643  -2.617950  2.788426
N    -2.475677  -3.714647  3.627434
C    -3.746886  -2.239108  2.625967
C    -3.796183  -3.954956  3.906669
N    -4.581296  -3.067050  3.330206
H    -0.273499  -2.464635  2.750971
H    -1.045304  -2.110169  1.207139
H    -1.702059  -4.319606  3.884547
H    -4.151541  -1.441284  2.005575
H    -4.119631  -4.788264  4.523002
N    -2.288849  -0.107586  4.702115
C    -2.499958  0.070990  6.138460
H    -3.117360  -0.326617  4.140918
H    -2.942880  -0.842834  6.554538
H    -3.197367  0.902815  6.293144
H    -1.550208  0.288455  6.630002
Pb    2.117110  -0.527558  4.601436
