30
Energy: -609761.5329275  eV PBE+vdW (tier 2 basis)
C    -0.420214  0.934580  0.720982
C    -0.089733  -0.418287  1.251152
O    1.133810  -0.840902  1.167711
H    0.076794  1.671541  1.372263
H    -1.490732  1.156100  0.712966
H    -0.001578  1.073943  -0.282489
N    -0.983563  -1.166680  1.875864
C    -2.445006  -1.162426  1.748373
C    -2.905130  -2.268729  2.728519
O    -2.167541  -3.264213  2.840142
H    -0.671783  -2.063300  2.284358
H    -2.859675  -0.178560  1.988990
C    -2.892570  -1.592148  0.279742
C    -1.827726  -2.426911  -0.344703
N    -1.478087  -3.687990  0.100703
C    -0.769160  -2.021776  -1.128759
C    -0.248836  -3.993904  -0.346923
N    0.226762  -2.985149  -1.105969
H    -3.042076  -0.697475  -0.335993
H    -3.859719  -2.108110  0.339691
H    -1.998589  -4.227230  0.796250
H    -0.665824  -1.105020  -1.699341
H    0.249141  -4.939731  -0.156151
N    -4.084980  -2.134906  3.339727
C    -4.996525  -0.987638  3.313119
H    -4.334149  -2.922694  3.936150
H    -4.557503  -0.110282  3.805882
H    -5.900912  -1.263459  3.862329
H    -5.298795  -0.732002  2.289721
Pb    2.282902  -2.113642  -0.256308
