30
Energy: -609761.6341727  eV PBE+vdW (tier 2 basis)
C    -2.137566  2.391515  0.862330
C    -1.409328  1.096415  0.979350
O    -0.134018  1.069093  0.756105
H    -1.871739  2.907385  -0.067475
H    -3.223919  2.297012  0.938196
H    -1.792609  3.034682  1.688055
N    -2.011370  -0.010663  1.391651
C    -3.431380  -0.378761  1.270597
C    -3.520937  -1.791315  1.891368
O    -2.633470  -2.606363  1.580394
H    -1.422313  -0.845760  1.509736
H    -4.065826  0.349941  1.788139
C    -3.863450  -0.476601  -0.258609
C    -2.671335  -0.756878  -1.107459
N    -1.939581  -1.924826  -1.022984
C    -1.861592  0.125958  -1.790291
C    -0.731086  -1.732124  -1.576676
N    -0.641528  -0.474552  -2.060521
H    -4.643987  -1.242554  -0.354602
H    -4.305309  0.474456  -0.578098
H    -2.209951  -2.719407  -0.429746
H    -2.082764  1.140577  -2.104114
H    0.029340  -2.502781  -1.661426
N    -4.572420  -2.047665  2.670939
C    -4.841247  -3.355863  3.271207
H    -5.209029  -1.288344  2.895576
H    -4.093118  -4.066086  2.910628
H    -5.843830  -3.695509  2.986662
H    -4.780199  -3.285546  4.363802
Pb    1.159560  0.697563  -1.029736
