30
Energy: -609762.3299622  eV PBE+vdW (tier 2 basis)
C    -0.712834  -1.651120  -0.268570
C    -0.763100  -0.825728  0.980498
O    -1.721827  -1.002278  1.785916
H    0.057379  -1.334920  -0.979770
H    -1.695227  -1.623324  -0.756698
H    -0.529196  -2.698730  0.011193
N    0.230942  0.069441  1.154327
C    0.538872  1.043288  2.222461
C    0.831684  0.373816  3.578879
O    0.032022  -0.415135  4.160833
H    0.917538  0.061530  0.404795
H    1.488393  1.483804  1.891249
C    -0.432404  2.267841  2.307718
C    -1.844419  1.960525  2.664976
N    -2.862460  1.839088  1.754977
C    -2.415909  1.589256  3.877336
C    -3.973554  1.362459  2.393702
N    -3.740805  1.190342  3.685025
H    -0.384197  2.786559  1.340322
H    -0.008448  2.961974  3.047940
H    -2.811971  2.077840  0.766778
H    -2.006805  1.736189  4.875820
H    -4.912821  1.167192  1.884927
N    1.993645  0.678065  4.143804
C    2.423712  0.162879  5.448406
H    2.639697  1.280397  3.641488
H    3.404801  0.585555  5.678407
H    2.495138  -0.930883  5.418518
H    1.709735  0.455033  6.227169
Pb    -2.217582  -1.040956  4.023570
