30
Energy: -609762.2340993  eV PBE+vdW (tier 2 basis)
C    0.207648  0.286396  0.509609
C    -0.075863  -0.302338  1.856835
O    0.882647  -0.480317  2.658662
H    0.677227  1.270046  0.649516
H    -0.679379  0.399445  -0.122271
H    0.943796  -0.343909  -0.007179
N    -1.361802  -0.595833  2.135649
C    -2.048001  -1.114342  3.341023
C    -1.524365  -0.515982  4.665829
O    -0.497954  -0.951234  5.271677
H    -2.002588  -0.385626  1.374317
H    -3.072783  -0.736977  3.222098
C    -2.208182  -2.667090  3.359953
C    -1.023827  -3.442322  3.829112
N    -0.975523  -4.086470  5.039238
C    0.260581  -3.570876  3.314361
C    0.295437  -4.542150  5.250938
N    1.082128  -4.237642  4.229054
H    -2.484132  -2.976608  2.341527
H    -3.077897  -2.898920  3.990710
H    -1.759020  -4.219238  5.675845
H    0.605737  -3.349562  2.307413
H    0.591519  -5.088297  6.141700
N    -2.258404  0.456291  5.190899
C    -1.963621  1.146277  6.449153
H    -3.084755  0.761584  4.682416
H    -1.451193  2.096081  6.247757
H    -1.328889  0.511873  7.072246
H    -2.905826  1.351526  6.967264
Pb    1.613279  -1.604785  4.527647
