30
Energy: -609761.6347257  eV PBE+vdW (tier 2 basis)
C    -2.163278  2.334632  0.854516
C    -1.472211  1.022442  1.001682
O    -0.185955  0.969688  0.859495
H    -1.829762  2.852662  -0.052033
H    -3.254086  2.264162  0.862974
H    -1.855200  2.962510  1.706128
N    -2.122526  -0.075569  1.360555
C    -3.539461  -0.411395  1.146156
C    -3.696511  -1.828786  1.742750
O    -2.804863  -2.656883  1.482715
H    -1.560648  -0.925170  1.505519
H    -4.189976  0.324886  1.632023
C    -3.876133  -0.482870  -0.408083
C    -2.639346  -0.781744  -1.183428
N    -1.941808  -1.967859  -1.068461
C    -1.767177  0.089437  -1.801049
C    -0.696043  -1.797516  -1.540739
N    -0.546419  -0.536814  -2.000491
H    -4.666108  -1.229334  -0.562452
H    -4.275337  0.481596  -0.743120
H    -2.267037  -2.763773  -0.505859
H    -1.943727  1.112941  -2.114202
H    0.050230  -2.585081  -1.586413
N    -4.803162  -2.073717  2.445712
C    -5.135512  -3.383087  3.010728
H    -5.439574  -1.305014  2.636456
H    -5.147373  -3.325553  4.105691
H    -4.377575  -4.103347  2.693098
H    -6.122422  -3.700827  2.655043
Pb    1.210999  0.582386  -0.842912
