30
Energy: -609761.4014761  eV PBE+vdW (tier 2 basis)
C    -0.019156  -0.403334  -0.267666
C    -0.017284  0.058665  1.148484
O    1.052346  0.573630  1.635980
H    0.198294  0.461909  -0.912202
H    -0.969977  -0.848914  -0.577889
H    0.794713  -1.123639  -0.424523
N    -1.135767  -0.048647  1.867280
C    -1.444928  0.548314  3.181283
C    -0.924777  -0.365727  4.309454
O    0.339320  -0.633125  4.362215
H    -1.928892  -0.476611  1.390884
H    -0.855771  1.477176  3.263185
C    -2.963114  0.904537  3.148803
C    -3.601757  1.323508  4.427708
N    -3.349718  2.501384  5.107931
C    -4.525115  0.652794  5.217479
C    -4.123360  2.488662  6.241985
N    -4.828145  1.381177  6.338188
H    -3.519448  0.022192  2.793555
H    -3.079461  1.673998  2.368851
H    -2.804180  3.291905  4.779403
H    -5.022482  -0.291600  5.002490
H    -4.131575  3.313243  6.948594
N    -1.747329  -0.840925  5.207158
C    -1.398004  -1.699309  6.338641
H    -2.714839  -0.462071  5.186217
H    -1.656331  -1.180491  7.270254
H    -0.333283  -1.937801  6.319834
H    -1.988664  -2.621815  6.278265
Pb    2.218682  0.166915  3.487162
