30
Energy: -609761.4817390  eV PBE+vdW (tier 2 basis)
C    -0.799382  -0.183631  0.267680
C    -0.499488  0.048418  1.707950
O    0.648066  0.515779  2.036887
H    -1.793922  -0.608969  0.098396
H    -0.037683  -0.846853  -0.163761
H    -0.721521  0.775561  -0.265161
N    -1.437889  -0.208323  2.621265
C    -1.341878  0.066430  4.059328
C    -0.473631  -1.021596  4.723754
O    0.792954  -0.810101  4.852990
H    -2.310679  -0.635110  2.303472
H    -0.778652  1.004045  4.179696
C    -2.753705  0.308673  4.671118
C    -3.764478  -0.764107  4.437766
N    -4.530421  -0.865319  3.278731
C    -4.131507  -1.867566  5.190926
C    -5.318946  -1.986587  3.413111
N    -5.079111  -2.617254  4.539965
H    -3.104632  1.274051  4.276566
H    -2.621955  0.457014  5.751590
H    -4.717630  -0.110487  2.623014
H    -3.815448  -2.119453  6.201988
H    -6.044263  -2.279547  2.659584
N    -1.022840  -2.140238  5.123348
C    -0.333576  -3.270060  5.749451
H    -2.047703  -2.215903  4.995380
H    -0.250181  -4.095647  5.030666
H    -0.927950  -3.608827  6.605221
H    0.659804  -2.964358  6.084707
Pb    2.198246  0.437964  3.650371
