30
Energy: -609761.6342473  eV PBE+vdW (tier 2 basis)
C    -2.047878  2.373071  0.770542
C    -1.360656  1.056961  0.900249
O    -0.090265  0.984010  0.659733
H    -1.668623  3.019401  1.578548
H    -1.780402  2.862869  -0.172806
H    -3.135372  2.315918  0.865117
N    -1.992319  -0.022596  1.340180
C    -3.425043  -0.346283  1.245481
C    -3.551012  -1.744293  1.892437
O    -2.694434  -2.592759  1.584229
H    -1.429032  -0.874414  1.464663
H    -4.028112  0.411419  1.758881
C    -3.881975  -0.456139  -0.275585
C    -2.712059  -0.790794  -1.135632
N    -2.018285  -1.980879  -1.040467
C    -1.883381  0.052498  -1.845189
C    -0.812099  -1.838297  -1.614043
N    -0.687839  -0.592992  -2.121357
H    -4.688891  -1.197003  -0.347299
H    -4.296398  0.503566  -0.605812
H    -2.306149  -2.755661  -0.429572
H    -2.075162  1.068345  -2.174019
H    -0.078940  -2.635290  -1.695444
N    -4.599080  -1.953125  2.690508
C    -4.900832  -3.241251  3.317799
H    -5.208075  -1.170008  2.909975
H    -4.825100  -3.152875  4.408147
H    -4.178935  -3.980598  2.962330
H    -5.916511  -3.555163  3.050643
Pb    1.164859  0.537361  -1.136236
