30
Energy: -609761.3982951  eV PBE+vdW (tier 2 basis)
C    -0.116560  0.666997  0.271013
C    -0.135209  0.202192  1.688252
O    0.959232  -0.159496  2.227682
H    0.275314  -0.144847  -0.359128
H    -1.099453  0.971069  -0.103451
H    0.587076  1.505304  0.175940
N    -1.312416  0.166919  2.328724
C    -1.639670  -0.361112  3.669995
C    -1.094804  0.549330  4.780058
O    0.134962  0.513622  5.125800
H    -2.112945  0.466504  1.778100
H    -2.735675  -0.322044  3.713747
C    -1.266479  -1.846458  3.903778
C    -1.874579  -2.795211  2.944166
N    -2.538568  -3.942268  3.345073
C    -1.896023  -2.859533  1.548623
C    -2.931704  -4.604451  2.219677
N    -2.552460  -3.967925  1.120682
H    -1.567118  -2.089493  4.933728
H    -0.145144  -1.975018  3.909520
H    -2.723791  -4.240023  4.298437
H    -1.450359  -2.175894  0.833385
H    -3.492998  -5.533454  2.253827
N    -1.946366  1.349351  5.396585
C    -1.619401  2.268893  6.490504
H    -2.916887  1.332640  5.089860
H    -1.818166  3.299132  6.170911
H    -0.566099  2.158981  6.755229
H    -2.248219  2.034687  7.357623
Pb    1.905509  -0.565393  4.225655
