30
Energy: -609761.5708104  eV PBE+vdW (tier 2 basis)
C    -0.667058  0.492807  0.481933
C    -0.502373  0.610992  1.957196
O    0.495237  1.273371  2.421594
H    -0.763153  1.504332  0.060112
H    -1.540285  -0.101313  0.193520
H    0.239440  0.053527  0.044090
N    -1.405936  0.051065  2.758467
C    -1.518014  0.203126  4.217816
C    -0.524074  -0.721068  4.955271
O    0.708913  -0.359445  5.055160
H    -2.172006  -0.471188  2.323400
H    -1.188273  1.224070  4.466599
C    -2.993844  0.088873  4.637958
C    -3.695746  -1.161591  4.185947
N    -5.043926  -1.351679  4.412232
C    -3.307108  -2.301079  3.484048
C    -5.395860  -2.554992  3.862134
N    -4.366812  -3.149127  3.296424
H    -3.508513  0.975828  4.233236
H    -3.035974  0.201186  5.733806
H    -5.669943  -0.717059  4.900074
H    -2.326064  -2.572879  3.098813
H    -6.409251  -2.942000  3.909164
N    -0.947324  -1.837585  5.495655
C    -0.137501  -2.806072  6.236252
H    -1.935361  -2.078819  5.324509
H    0.866722  -2.408786  6.394749
H    -0.085873  -3.744554  5.669510
H    -0.619476  -3.003192  7.201052
Pb    1.966435  1.213254  4.087277
