30
Energy: -609761.4610097  eV PBE+vdW (tier 2 basis)
C    -1.380023  1.348003  -1.027829
C    -1.019896  0.667598  0.247517
O    0.129875  0.070524  0.331704
H    -2.420054  1.686184  -1.057055
H    -1.160413  0.705725  -1.888130
H    -0.733230  2.234673  -1.125268
N    -1.795684  0.700201  1.313905
C    -3.241187  0.842372  1.458201
C    -3.422218  0.691421  3.002022
O    -2.565006  0.032233  3.608815
H    -1.447902  0.284421  2.205920
H    -3.591697  1.817142  1.098107
C    -4.054581  -0.317812  0.721998
C    -3.174731  -1.452016  0.317080
N    -2.938817  -1.804756  -1.001623
C    -2.207388  -2.124314  1.032872
C    -1.858538  -2.609058  -1.070564
N    -1.369877  -2.809323  0.165409
H    -4.557442  0.096017  -0.160953
H    -4.848999  -0.657576  1.399948
H    -3.526846  -1.554219  -1.794922
H    -2.060406  -2.128125  2.109550
H    -1.484620  -3.052562  -1.987778
N    -4.515998  1.236535  3.537566
C    -4.867859  1.128054  4.955310
H    -5.112115  1.811107  2.948720
H    -4.147449  0.467368  5.443765
H    -5.877631  0.714437  5.058224
H    -4.832032  2.117224  5.427212
Pb    0.850762  -2.021478  0.605276
