30
Energy: -609761.4007367  eV PBE+vdW (tier 2 basis)
C    -1.575259  -2.134741  -0.808231
C    -1.018045  -1.496523  0.416957
O    0.133643  -1.867046  0.845599
H    -1.595509  -3.225421  -0.683574
H    -0.891163  -1.926625  -1.645126
H    -2.575936  -1.774711  -1.068773
N    -1.716303  -0.534930  1.022528
C    -1.273085  0.397604  2.077465
C    -1.433285  -0.257046  3.463360
O    -0.813445  -1.362852  3.716588
H    -2.622194  -0.317743  0.608497
H    -0.187700  0.544721  1.946730
C    -2.011638  1.743911  1.803606
C    -1.913310  2.808195  2.841100
N    -0.769517  3.515000  3.165625
C    -2.883603  3.294084  3.706594
C    -1.100551  4.379878  4.179204
N    -2.362509  4.256195  4.531998
H    -3.084569  1.530183  1.672104
H    -1.647342  2.099261  0.826400
H    0.116805  3.503443  2.670844
H    -3.940670  3.034533  3.733332
H    -0.382909  5.072277  4.609163
N    -2.165791  0.305153  4.387987
C    -2.361646  -0.224001  5.740665
H    -2.512681  1.263223  4.185398
H    -1.415265  -0.211786  6.296479
H    -2.739346  -1.251204  5.694246
H    -3.088073  0.414144  6.250303
Pb    0.861895  -2.533175  2.839933
