30
Energy: -609761.5467834  eV PBE+vdW (tier 2 basis)
C    0.608505  -0.523703  1.228762
C    -0.092235  -0.547687  2.548363
O    0.056409  -1.564431  3.329516
H    0.436687  0.404046  0.674249
H    0.249670  -1.369215  0.624336
H    1.688121  -0.664575  1.373111
N    -0.872505  0.470058  2.866569
C    -1.796511  0.653835  3.980760
C    -2.852715  1.641058  3.373165
O    -2.504937  2.271856  2.369531
H    -1.072831  1.227697  2.171965
H    -2.230638  -0.312042  4.268057
C    -1.131733  1.332826  5.229360
C    0.038109  0.541014  5.685366
N    1.337264  0.824636  5.312084
C    0.105261  -0.707431  6.271388
C    2.133228  -0.223743  5.615752
N    1.404967  -1.190221  6.201614
H    -1.882443  1.396129  6.027356
H    -0.844427  2.361966  4.974201
H    1.657890  1.709702  4.921962
H    -0.689972  -1.272329  6.748884
H    3.207348  -0.241994  5.458638
N    -4.041328  1.782960  3.973957
C    -4.581531  1.092351  5.139919
H    -4.635281  2.484333  3.532672
H    -4.123782  0.104356  5.260661
H    -5.655783  0.937248  4.993607
H    -4.440421  1.677021  6.059962
Pb    1.071616  -3.001720  4.679230
