30
Energy: -609761.5714494  eV PBE+vdW (tier 2 basis)
C    -0.832204  0.504964  0.446276
C    -0.599105  0.609786  1.913246
O    0.429538  1.252078  2.336403
H    0.046210  0.054406  -0.035162
H    -0.930828  1.520936  0.035891
H    -1.727200  -0.072990  0.193995
N    -1.475073  0.059229  2.750748
C    -1.519570  0.203193  4.214463
C    -0.509602  -0.742276  4.901341
O    0.732656  -0.402224  4.947721
H    -2.268439  -0.447617  2.347394
H    -1.161916  1.216773  4.454595
C    -2.977194  0.110430  4.698770
C    -3.719551  -1.124219  4.268582
N    -5.060534  -1.291904  4.548854
C    -3.380390  -2.265888  3.544880
C    -5.456102  -2.485377  4.006988
N    -4.461825  -3.094001  3.396276
H    -3.493851  1.009189  4.323726
H    -2.969158  0.214536  5.796215
H    -5.654536  -0.649627  5.065858
H    -2.421002  -2.552327  3.117969
H    -6.473426  -2.854869  4.093494
N    -0.927076  -1.854865  5.454247
C    -0.100989  -2.840892  6.152430
H    -1.925606  -2.078797  5.326340
H    -0.544215  -3.038448  7.135530
H    0.914886  -2.459504  6.270659
H    -0.087427  -3.775645  5.577370
Pb    1.973532  1.153951  3.932903
