30
Energy: -609761.3977150  eV PBE+vdW (tier 2 basis)
C    -0.536407  -0.007959  -0.210456
C    -0.346977  -0.074288  1.267645
O    0.783031  -0.441991  1.723315
H    0.206043  0.680149  -0.637825
H    -1.540967  0.308143  -0.509770
H    -0.326388  -0.999932  -0.635948
N    -1.385276  0.239981  2.055001
C    -1.516872  0.142210  3.523940
C    -0.681356  1.214620  4.237793
O    0.579420  1.079363  4.397838
H    -2.237096  0.497953  1.563583
H    -2.575176  0.362745  3.713794
C    -1.273037  -1.270225  4.113369
C    -2.144214  -2.329467  3.556342
N    -2.883409  -3.188398  4.352027
C    -2.392527  -2.772310  2.254860
C    -3.532478  -4.057837  3.525919
N    -3.248761  -3.825711  2.252221
H    -1.408569  -1.187264  5.201872
H    -0.190933  -1.565050  3.993915
H    -2.953269  -3.175406  5.365333
H    -1.975081  -2.402313  1.323899
H    -4.199800  -4.829749  3.897559
N    -1.311903  2.269491  4.722264
C    -0.687379  3.377050  5.452389
H    -2.316442  2.331700  4.570092
H    -0.673203  4.274054  4.820348
H    0.333222  3.102640  5.726946
H    -1.274313  3.582675  6.354390
Pb    2.029116  -0.455872  3.593348
