30
Energy: -609761.3841156  eV PBE+vdW (tier 2 basis)
C    -0.147046  -0.458236  -0.182776
C    -0.242932  -0.464337  1.302310
O    0.659651  -1.067972  1.983596
H    -1.012349  0.004523  -0.668396
H    -0.016462  -1.482983  -0.553026
H    0.758556  0.101553  -0.464232
N    -1.241556  0.197168  1.891090
C    -1.368819  0.511623  3.323611
C    -1.940164  -0.701538  4.084510
O    -1.167701  -1.678047  4.387776
H    -1.859955  0.718147  1.270328
H    -0.352838  0.660404  3.724943
C    -2.142272  1.828342  3.494132
C    -1.425583  2.961140  2.826387
N    -2.006216  4.193664  2.605078
C    -0.133036  3.093284  2.337048
C    -1.062503  4.990978  2.013617
N    0.074659  4.346628  1.835315
H    -2.263573  2.014215  4.574856
H    -3.161141  1.726336  3.072568
H    -2.945276  4.482305  2.862314
H    0.668552  2.359042  2.325408
H    -1.262405  6.021613  1.737231
N    -3.211607  -0.723313  4.421312
C    -3.899607  -1.806033  5.130692
H    -3.772736  0.089211  4.171868
H    -4.610298  -2.294943  4.452408
H    -4.448153  -1.381306  5.979063
H    -3.167238  -2.532596  5.487483
Pb    0.939049  -2.261873  3.836490
