30
Energy: -609761.5464851  eV PBE+vdW (tier 2 basis)
C    0.657060  -0.611331  1.280803
C    -0.077064  -0.604950  2.582349
O    0.035456  -1.612284  3.381501
H    0.512996  0.310225  0.708332
H    0.301229  -1.460776  0.680143
H    1.730506  -0.765411  1.454744
N    -0.848505  0.429641  2.866034
C    -1.796928  0.644669  3.953756
C    -2.821586  1.639170  3.305470
O    -2.439014  2.248914  2.301475
H    -1.019257  1.179889  2.155631
H    -2.253781  -0.309751  4.244104
C    -1.152450  1.331591  5.208660
C    -0.008452  0.527154  5.706212
N    1.304462  0.783154  5.362320
C    0.022214  -0.713283  6.312012
C    2.074253  -0.273797  5.701643
N    1.314790  -1.218902  6.282760
H    -1.921920  1.419843  5.986156
H    -0.841067  2.351682  4.945548
H    1.650106  1.656644  4.967499
H    -0.794513  -1.257322  6.777328
H    3.151537  -0.312636  5.572395
N    -4.022253  1.808937  3.874264
C    -4.601707  1.145411  5.037099
H    -4.593751  2.512749  3.407909
H    -5.674440  1.004910  4.866843
H    -4.473617  1.742277  5.951215
H    -4.162980  0.152367  5.184250
Pb    0.988679  -3.046784  4.778543
