30
Energy: -609761.4614754  eV PBE+vdW (tier 2 basis)
C    -1.307576  1.357658  -0.997096
C    -0.977187  0.650993  0.272015
O    0.153117  0.018088  0.356627
H    -1.100456  0.720244  -1.864014
H    -0.634396  2.226103  -1.078407
H    -2.336963  1.726650  -1.029238
N    -1.759080  0.694775  1.333607
C    -3.200451  0.880316  1.470210
C    -3.396380  0.720772  3.011034
O    -2.566687  0.025929  3.616223
H    -1.430278  0.257777  2.222487
H    -3.518355  1.868422  1.116355
C    -4.044244  -0.248326  0.718669
C    -3.196050  -1.403394  0.305492
N    -2.962012  -1.747110  -1.015853
C    -2.254264  -2.113310  1.019159
C    -1.906156  -2.582964  -1.087841
N    -1.432160  -2.812940  0.148720
H    -4.531334  0.189065  -0.161700
H    -4.850738  -0.571898  1.390168
H    -3.536601  -1.468831  -1.809709
H    -2.115046  -2.134784  2.096652
H    -1.539893  -3.026712  -2.008016
N    -4.474509  1.297265  3.545423
C    -4.838534  1.185729  4.959923
H    -5.044244  1.901462  2.960189
H    -4.714236  2.154482  5.458833
H    -4.183464  0.449458  5.432045
H    -5.882177  0.863923  5.049364
Pb    0.808357  -2.097842  0.610677
