30
Energy: -609761.5325585  eV PBE+vdW (tier 2 basis)
C    -0.584737  0.952872  0.779933
C    -0.207772  -0.400655  1.276399
O    1.038859  -0.756842  1.235036
H    -0.140556  1.145855  -0.203578
H    -0.144811  1.689431  1.471372
H    -1.663737  1.124287  0.741851
N    -1.088110  -1.217063  1.831199
C    -2.540323  -1.283039  1.634277
C    -2.985578  -2.449216  2.549838
O    -2.200556  -3.407566  2.662869
H    -0.748337  -2.111554  2.221803
H    -3.017557  -0.332047  1.890650
C    -2.896506  -1.677685  0.131254
C    -1.761415  -2.431872  -0.471599
N    -1.364856  -3.689015  -0.055266
C    -0.692438  -1.943244  -1.191259
C    -0.102498  -3.913836  -0.456513
N    0.351506  -2.853968  -1.156787
H    -3.064767  -0.768606  -0.457980
H    -3.836621  -2.244549  0.125951
H    -1.886253  -4.280647  0.595588
H    -0.613237  -1.001637  -1.723957
H    0.436381  -4.839174  -0.276723
N    -4.199574  -2.402272  3.104463
C    -5.170989  -1.305401  3.071548
H    -4.433888  -3.224597  3.658786
H    -4.806045  -0.424912  3.616400
H    -6.084535  -1.649851  3.563898
H    -5.436455  -1.027903  2.043617
Pb    2.317409  -1.909294  -0.181070
