30
Energy: -609762.3320097  eV PBE+vdW (tier 2 basis)
C    -0.510461  2.146744  -0.968908
C    -1.180647  1.300263  0.069409
O    -0.594725  0.252389  0.467177
H    -1.141028  2.950516  -1.363004
H    0.395465  2.588550  -0.529071
H    -0.178178  1.504442  -1.794388
N    -2.386857  1.717626  0.505230
C    -3.346176  1.180101  1.492539
C    -2.783096  1.155880  2.926390
O    -1.702749  0.580917  3.247028
H    -2.692978  2.587347  0.077154
H    -4.147937  1.930164  1.494119
C    -4.070581  -0.141286  1.068566
C    -3.203852  -1.340669  0.907437
N    -2.732735  -1.797177  -0.296189
C    -2.569874  -2.138301  1.853973
C    -1.816310  -2.785682  -0.067448
N    -1.683086  -3.018018  1.228579
H    -4.612062  0.071048  0.136417
H    -4.839001  -0.342548  1.829174
H    -3.024677  -1.470387  -1.214979
H    -2.814449  -2.235322  2.910675
H    -1.287862  -3.301194  -0.863817
N    -3.509431  1.770836  3.851547
C    -3.148946  1.814835  5.273017
H    -4.350597  2.264498  3.566314
H    -3.929163  2.361183  5.808599
H    -3.072574  0.799003  5.677819
H    -2.188405  2.327095  5.404512
Pb    -0.235028  -1.004853  2.349131
