30
Energy: -609762.3300934  eV PBE+vdW (tier 2 basis)
C    -1.007737  -1.603586  -0.270333
C    -0.945715  -0.776041  0.976653
O    -1.869692  -0.898580  1.831331
H    -0.254395  -1.337757  -1.019172
H    -2.008960  -1.513199  -0.710519
H    -0.878702  -2.660579  0.004406
N    0.103793  0.062786  1.095556
C    0.518421  1.020125  2.142384
C    0.843587  0.338992  3.485530
O    0.031929  -0.401808  4.112486
H    0.749820  0.016346  0.312064
H    1.471921  1.408250  1.760876
C    -0.379181  2.295808  2.273226
C    -1.787186  2.066603  2.698219
N    -2.852259  1.999737  1.838063
C    -2.320289  1.730638  3.938250
C    -3.956656  1.587502  2.531209
N    -3.673039  1.406139  3.810784
H    -0.348837  2.813523  1.304583
H    0.117321  2.963706  2.992161
H    -2.836034  2.233738  0.847516
H    -1.857229  1.858633  4.915581
H    -4.928387  1.443827  2.068229
N    2.047959  0.580450  3.988318
C    2.515233  0.049353  5.273606
H    2.700026  1.143683  3.449654
H    1.859023  0.384736  6.085125
H    3.528389  0.418839  5.449960
H    2.525311  -1.046821  5.249373
Pb    -2.252435  -0.904044  4.090880
