30
Energy: -609762.3322157  eV PBE+vdW (tier 2 basis)
C    -0.485093  2.190334  -0.968083
C    -1.124871  1.342656  0.088339
O    -0.506495  0.319527  0.500762
H    -0.136088  1.543844  -1.783290
H    -1.141627  2.967150  -1.373730
H    0.408333  2.667847  -0.540053
N    -2.340290  1.732502  0.524097
C    -3.277539  1.185338  1.527376
C    -2.704010  1.200196  2.957229
O    -1.612859  0.648498  3.282248
H    -2.673993  2.585311  0.082818
H    -4.099375  1.913292  1.522824
C    -3.968838  -0.161635  1.130124
C    -3.071082  -1.338511  0.972911
N    -2.597425  -1.793020  -0.230323
C    -2.410141  -2.112134  1.921251
C    -1.654947  -2.756732  -0.000197
N    -1.506640  -2.975037  1.296303
H    -4.527630  0.022821  0.202245
H    -4.721832  -0.374638  1.902844
H    -2.904444  -1.481659  -1.149556
H    -2.646044  -2.207801  2.980096
H    -1.119667  -3.265390  -0.796433
N    -3.433356  1.823368  3.874410
C    -3.064030  1.903821  5.292055
H    -4.284870  2.296410  3.585034
H    -3.847459  2.452630  5.820393
H    -2.972562  0.898393  5.719124
H    -2.109086  2.430635  5.405377
Pb    -0.109041  -0.908018  2.394804
