30
Energy: -609762.2335218  eV PBE+vdW (tier 2 basis)
C    0.134776  0.448963  0.561771
C    -0.128009  -0.160156  1.904086
O    0.825741  -0.263341  2.724494
H    0.916739  -0.131518  0.053742
H    0.538179  1.460372  0.709330
H    -0.749192  0.505829  -0.081879
N    -1.392327  -0.553359  2.158310
C    -2.059453  -1.121754  3.351670
C    -1.604059  -0.485806  4.684213
O    -0.559960  -0.843370  5.310325
H    -2.032814  -0.393993  1.384486
H    -3.107008  -0.820382  3.215433
C    -2.104878  -2.682412  3.367970
C    -0.874090  -3.364549  3.861151
N    -0.796821  -3.996977  5.076277
C    0.425497  -3.390378  3.371349
C    0.502525  -4.344827  5.315553
N    1.281403  -3.981323  4.306098
H    -2.335834  -3.010353  2.344128
H    -2.967295  -2.979691  3.981006
H    -1.579201  -4.190835  5.698366
H    0.771056  -3.143133  2.370697
H    0.825220  -4.860714  6.215001
N    -2.416427  0.431314  5.193159
C    -2.194488  1.142893  6.454235
H    -3.254127  0.674204  4.669833
H    -1.738769  2.122754  6.260236
H    -1.535129  0.552096  7.094474
H    -3.159293  1.289688  6.950036
Pb    1.611040  -1.326247  4.608450
