30
Energy: -609761.6046306  eV PBE+vdW (tier 2 basis)
C    1.332834  -0.397251  2.132031
C    0.364062  0.688937  2.481676
O    0.781082  1.766713  3.069617
H    1.849659  -0.723367  3.045337
H    0.853093  -1.264525  1.667756
H    2.095856  -0.014425  1.437377
N    -0.907212  0.505248  2.192572
C    -2.100972  1.299285  2.479731
C    -3.231123  0.209942  2.426562
O    -2.966023  -0.843446  1.840470
H    -1.243666  -0.410676  1.808242
H    -2.017683  1.760396  3.473515
C    -2.375956  2.383747  1.384334
C    -1.277253  3.385079  1.360468
N    -1.203920  4.458919  2.227427
C    -0.035266  3.327940  0.761858
C    0.038103  4.983172  2.186505
N    0.789978  4.296981  1.299669
H    -3.348308  2.854197  1.584191
H    -2.455629  1.889734  0.407047
H    -1.979002  4.842627  2.765451
H    0.313658  2.635657  0.003091
H    0.340422  5.880028  2.719581
N    -4.406660  0.524104  2.981178
C    -5.563809  -0.375465  2.971329
H    -4.487685  1.387406  3.508632
H    -5.361877  -1.192782  2.274381
H    -6.454248  0.173596  2.646018
H    -5.735693  -0.788175  3.972978
Pb    2.431238  3.230406  2.671973
