30
Energy: -609761.2274434  eV PBE+vdW (tier 2 basis)
C    1.497508  1.520351  0.522491
C    0.895919  0.730684  1.634527
O    1.673671  0.080895  2.424002
H    0.760717  2.064572  -0.077235
H    2.238606  2.224481  0.923329
H    2.046812  0.825670  -0.131323
N    -0.431326  0.707882  1.761077
C    -1.311766  -0.165192  2.565116
C    -1.322361  0.150521  4.062433
O    -0.254370  0.395754  4.738791
H    -0.927714  1.271837  1.074175
H    -2.311794  0.077069  2.187425
C    -1.115150  -1.694009  2.296329
C    -2.307510  -2.449925  2.786247
N    -2.250728  -3.513879  3.666887
C    -3.663882  -2.232243  2.590880
C    -3.540136  -3.894702  3.935500
N    -4.410772  -3.124463  3.314398
H    -0.189292  -2.059319  2.761990
H    -0.983097  -1.807636  1.209248
H    -1.418825  -4.021004  3.951990
H    -4.145049  -1.507534  1.936493
H    -3.777628  -4.737383  4.577626
N    -2.491582  0.095773  4.663266
C    -2.744824  0.254148  6.095006
H    -3.288227  -0.189368  4.087089
H    -1.822572  0.533118  6.607366
H    -3.132948  -0.689987  6.497854
H    -3.500471  1.035781  6.237821
Pb    1.941790  0.092110  4.623202
