30
Energy: -609762.3299854  eV PBE+vdW (tier 2 basis)
C    -0.727070  -1.521490  -0.264080
C    -0.793975  -0.708770  0.992410
O    -1.760852  -0.896926  1.785491
H    -0.539488  -2.570645  0.007126
H    0.047636  -1.193492  -0.964988
H    -1.705151  -1.494772  -0.760820
N    0.194252  0.188793  1.185627
C    0.484817  1.154968  2.265297
C    0.765588  0.475869  3.619362
O    -0.034997  -0.324906  4.183750
H    0.889348  0.190968  0.443854
H    1.435534  1.603588  1.948641
C    -0.494127  2.373518  2.349897
C    -1.907803  2.055398  2.690437
N    -2.916250  1.936350  1.769501
C    -2.488678  1.669777  3.893775
C    -4.030540  1.447349  2.392986
N    -3.809224  1.264862  3.684976
H    -0.438897  2.900020  1.387093
H    -0.081672  3.064141  3.099817
H    -2.857643  2.184109  0.783905
H    -2.089879  1.809460  4.897445
H    -4.963779  1.251373  1.873487
N    1.917087  0.785175  4.202555
C    2.332940  0.262966  5.508825
H    2.565237  1.396763  3.714188
H    1.603280  0.539219  6.278813
H    3.305093  0.695143  5.758210
H    2.418009  -0.829575  5.470140
Pb    -2.279794  -0.961233  4.017279
