30
Energy: -609761.6338717  eV PBE+vdW (tier 2 basis)
C    -2.336983  2.343595  0.476030
C    -1.591084  1.098093  0.813098
O    -0.298065  1.099920  0.740870
H    -3.421798  2.214122  0.440433
H    -2.107052  3.083293  1.259837
H    -1.980756  2.769134  -0.469170
N    -2.205667  0.015716  1.269789
C    -3.590826  -0.420055  1.027980
C    -3.712183  -1.764617  1.780759
O    -2.771393  -2.570313  1.660892
H    -1.611182  -0.778193  1.542768
H    -4.301902  0.331309  1.390178
C    -3.837631  -0.690146  -0.521389
C    -2.546877  -1.008596  -1.194354
N    -1.798896  -2.132161  -0.903180
C    -1.686433  -0.169296  -1.869965
C    -0.539148  -1.949812  -1.331873
N    -0.427138  -0.745945  -1.933161
H    -4.580349  -1.491974  -0.624098
H    -4.264661  0.205286  -0.987903
H    -2.115255  -2.871407  -0.263007
H    -1.896217  0.798356  -2.313166
H    0.246579  -2.694476  -1.245778
N    -4.840035  -1.983329  2.458245
C    -5.138575  -3.233659  3.159543
H    -5.519870  -1.231573  2.528827
H    -4.341143  -3.950843  2.950066
H    -6.098467  -3.632787  2.812232
H    -5.191810  -3.053406  4.239924
Pb    1.206815  0.597761  -0.835426
