30
Energy: -609761.6183933  eV PBE+vdW (tier 2 basis)
C    -1.337331  -0.990471  3.658977
C    -0.602183  -0.057311  2.768405
O    0.639837  -0.184278  2.558036
H    -2.418767  -0.821457  3.668050
H    -0.965389  -0.818132  4.683413
H    -1.098737  -2.032920  3.416027
N    -1.245328  0.994906  2.179081
C    -2.451984  0.878582  1.361346
C    -2.401285  -0.453583  0.576448
O    -1.299350  -0.925760  0.152926
H    -0.570917  1.660568  1.805411
H    -3.358824  0.924078  1.981526
C    -2.480381  2.094435  0.367653
C    -1.353869  2.004660  -0.611948
N    -1.481633  1.479837  -1.875280
C    0.022442  2.099700  -0.417899
C    -0.239493  1.232736  -2.384458
N    0.702940  1.583574  -1.519914
H    -2.418491  3.015912  0.963362
H    -3.452203  2.116053  -0.141454
H    -2.357475  1.335085  -2.373883
H    0.561789  2.644763  0.355641
H    -0.072493  0.820830  -3.375372
N    -3.554992  -1.062883  0.348985
C    -3.730539  -2.313944  -0.394173
H    -4.390887  -0.652814  0.761711
H    -4.507874  -2.178698  -1.154787
H    -4.040635  -3.111545  0.292345
H    -2.786326  -2.587059  -0.869769
Pb    1.038378  -0.429866  0.215594
