30
Energy: -609761.6158034  eV PBE+vdW (tier 2 basis)
C    -3.710091  -0.261681  1.048287
C    -2.731515  -0.472600  2.162506
O    -3.086356  -0.673812  3.332877
H    -4.507666  -1.010476  1.123978
H    -3.260662  -0.298226  0.050044
H    -4.185379  0.720760  1.184801
N    -1.394228  -0.457731  1.829138
C    -0.316744  -0.477047  2.811970
C    -0.196761  -1.855897  3.512271
O    0.455452  -2.012419  4.598929
H    -1.148280  -0.193677  0.879112
H    0.610104  -0.418937  2.220275
C    -0.297630  0.789704  3.752633
C    -0.651254  0.537167  5.173209
N    -1.800137  -0.090018  5.551380
C    0.108922  0.666376  6.339357
C    -1.717404  -0.399424  6.872190
N    -0.571654  0.050274  7.401363
H    -0.978421  1.530757  3.311497
H    0.701417  1.239031  3.726170
H    -2.513291  -0.370033  4.825162
H    0.990601  1.283287  6.506236
H    -2.497967  -0.918851  7.421155
N    -0.691953  -2.895490  2.870747
C    -0.579740  -4.288304  3.299089
H    -1.200892  -2.692862  2.011717
H    -1.377039  -4.537205  4.012329
H    0.396868  -4.458269  3.762010
H    -0.679840  -4.931228  2.419910
Pb    1.039537  -1.715171  6.791661
