30
Energy: -609761.3881077  eV PBE+vdW (tier 2 basis)
C    -0.076152  0.532351  0.012118
C    -0.130751  0.044096  1.427522
O    0.839184  -0.161456  2.148030
H    0.873487  0.228466  -0.438702
H    -0.106021  1.632576  0.013687
H    -0.914086  0.172048  -0.596831
N    -1.406653  -0.202074  1.967808
C    -1.434385  -0.379748  3.398932
C    -0.743554  -1.704611  3.791891
O    -0.164850  -1.852820  4.930935
H    -2.227421  0.172898  1.498342
H    -0.817107  0.401963  3.876651
C    -2.874859  -0.269739  3.985214
C    -2.764695  -0.432917  5.463700
N    -3.087055  -1.579463  6.144928
C    -2.043580  0.329366  6.377527
C    -2.527481  -1.537953  7.385656
N    -1.876449  -0.388302  7.564874
H    -3.543184  -1.022527  3.545348
H    -3.279892  0.721067  3.735909
H    -3.660681  -2.342095  5.787238
H    -1.754156  1.376023  6.296539
H    -2.628059  -2.332229  8.119615
N    -0.828208  -2.708484  2.948103
C    -0.204785  -4.022205  3.098065
H    -1.246152  -2.472275  2.045963
H    -0.870868  -4.782494  2.677528
H    -0.026622  -4.229398  4.155695
H    0.750241  -4.042330  2.556110
Pb    0.457798  -0.623731  6.704609
