30
Energy: -609761.6157921  eV PBE+vdW (tier 2 basis)
C    -3.573308  -0.145430  0.843566
C    -2.739316  -0.400625  2.061304
O    -3.231111  -0.521041  3.192614
H    -3.946018  0.888546  0.888025
H    -4.453424  -0.798962  0.868016
H    -3.034665  -0.283115  -0.100253
N    -1.379433  -0.522011  1.872011
C    -0.415148  -0.600277  2.963802
C    -0.502296  -1.954184  3.715949
O    0.011265  -2.124958  4.872418
H    -1.012845  -0.316787  0.946567
H    0.568509  -0.653565  2.471791
C    -0.369049  0.696711  3.861215
C    -0.892443  0.537794  5.242476
N    -2.130446  0.037068  5.512424
C    -0.250604  0.643484  6.479875
C    -2.218239  -0.223823  6.843009
N    -1.096359  0.138342  7.479876
H    -0.923583  1.480115  3.326404
H    0.666787  1.047670  3.928478
H    -2.786375  -0.206232  4.721209
H    0.664966  1.180372  6.723001
H    -3.099321  -0.644419  7.319657
N    -1.022189  -2.970493  3.057006
C    -1.089817  -4.347450  3.543436
H    -1.413681  -2.760220  2.140319
H    -0.168940  -4.600574  4.077760
H    -1.203509  -5.013690  2.683739
H    -1.953010  -4.478483  4.209753
Pb    0.385601  -1.795764  7.106550
