30
Energy: -609761.4799677  eV PBE+vdW (tier 2 basis)
C    -0.632573  -1.361151  2.045688
C    -0.523200  0.122865  2.106317
O    0.626563  0.645153  2.373523
H    -0.320338  -1.734912  1.060655
H    -1.644103  -1.722133  2.246344
H    0.057688  -1.774697  2.791186
N    -1.566658  0.951613  1.986923
C    -2.791058  0.902725  1.149233
C    -3.178521  -0.503179  0.630004
O    -2.585824  -1.013428  -0.337262
H    -1.308034  1.914925  2.209141
H    -3.608522  1.311045  1.757874
C    -2.554941  1.883543  -0.066656
C    -1.151705  1.769661  -0.556152
N    -0.661506  0.605385  -1.101110
C    -0.043641  2.556046  -0.309610
C    0.679953  0.663488  -1.139065
N    1.104789  1.852223  -0.664724
H    -2.737199  2.914149  0.263429
H    -3.293421  1.658583  -0.847462
H    -1.296460  -0.222723  -1.187266
H    -0.002612  3.584212  0.039037
H    1.316015  -0.123351  -1.532503
N    -4.205107  -1.082910  1.264698
C    -4.777080  -2.373503  0.878800
H    -4.654401  -0.581168  2.025317
H    -4.190797  -2.784601  0.053421
H    -5.816761  -2.238377  0.556922
H    -4.753575  -3.062276  1.731625
Pb    2.330029  1.716794  1.351674
