30
Energy: -609762.2378021  eV PBE+vdW (tier 2 basis)
C    1.288937  2.106063  2.935874
C    -0.206769  2.186208  2.958968
O    -0.758846  2.962776  3.790871
H    1.655092  1.960853  3.960265
H    1.686305  3.072530  2.593313
H    1.683277  1.312980  2.292088
N    -0.867177  1.399131  2.084556
C    -2.296407  1.168935  1.797881
C    -3.012285  2.416988  1.257338
O    -2.866842  3.567080  1.768837
H    -0.248139  0.848397  1.495930
H    -2.272790  0.445580  0.973750
C    -3.098462  0.436613  2.928200
C    -3.260575  1.206474  4.192142
N    -2.505958  1.009605  5.320723
C    -4.008915  2.343724  4.467819
C    -2.754442  2.022076  6.202035
N    -3.657961  2.861403  5.716225
H    -2.598867  -0.523405  3.115675
H    -4.088167  0.192018  2.516319
H    -1.870571  0.231901  5.486477
H    -4.862081  2.730644  3.913184
H    -2.268611  2.101210  7.169856
N    -3.820378  2.267042  0.212375
C    -4.086233  1.069158  -0.594881
H    -4.274353  3.131759  -0.083928
H    -4.536024  0.268128  0.003716
H    -3.173139  0.709353  -1.086541
H    -4.800689  1.345418  -1.375213
Pb    -2.487926  4.461358  3.901148
