30
Energy: -609762.3316736  eV PBE+vdW (tier 2 basis)
C    -0.366539  2.065549  -0.910942
C    -1.085388  1.264123  0.130550
O    -0.541358  0.208015  0.564223
H    -0.961702  2.881157  -1.334633
H    0.544938  2.486113  -0.461956
H    -0.039846  1.394922  -1.715909
N    -2.287157  1.728398  0.529822
C    -3.284798  1.242824  1.506004
C    -2.754571  1.230241  2.952514
O    -1.702914  0.624687  3.310055
H    -2.556220  2.597324  0.076040
H    -4.061441  2.018212  1.474556
C    -4.042357  -0.062996  1.091920
C    -3.211097  -1.291837  0.971006
N    -2.727865  -1.784021  -0.213592
C    -2.624517  -2.092549  1.945153
C    -1.849095  -2.797065  0.052795
N    -1.752677  -3.010836  1.355201
H    -4.557954  0.148266  0.144974
H    -4.831880  -0.225448  1.840082
H    -2.988573  -1.464386  -1.144208
H    -2.896259  -2.163542  2.997291
H    -1.319718  -3.342902  -0.722474
N    -3.479139  1.890281  3.847530
C    -3.149424  1.953339  5.275686
H    -4.294463  2.408328  3.532115
H    -2.189592  2.463401  5.421322
H    -3.938656  2.510592  5.786277
H    -3.086456  0.943043  5.695850
Pb    -0.267283  -1.024229  2.476745
