30
Energy: -609761.3765955  eV PBE+vdW (tier 2 basis)
C    -0.549061  -1.802966  -0.668276
C    -1.097401  -1.051625  0.497141
O    -2.243266  -1.389767  0.954827
H    -1.255253  -1.709142  -1.506257
H    -0.496167  -2.871587  -0.419150
H    0.437586  -1.453821  -0.989616
N    -0.374946  -0.046745  1.006699
C    -0.729928  0.957740  2.033656
C    -0.749789  0.357174  3.447585
O    -1.616965  -0.518846  3.799665
H    0.519277  0.107035  0.546213
H    0.096222  1.679974  2.005005
C    -2.032293  1.753055  1.724377
C    -2.403081  2.667134  2.842093
N    -2.007439  3.989859  2.939574
C    -3.096611  2.430629  4.016686
C    -2.491066  4.476323  4.124899
N    -3.143331  3.547198  4.797495
H    -2.868095  1.070011  1.511279
H    -1.876362  2.292521  0.779332
H    -1.555963  4.544511  2.217877
H    -3.573346  1.506309  4.342480
H    -2.347764  5.506910  4.434730
N    0.155997  0.763738  4.311408
C    0.225114  0.345041  5.715503
H    0.811667  1.480575  4.009501
H    1.241226  0.520961  6.078959
H    -0.018281  -0.717729  5.799214
H    -0.484404  0.933641  6.312773
Pb    -3.404280  -1.454109  2.857327
