30
Energy: -609762.2330818  eV PBE+vdW (tier 2 basis)
C    2.018397  0.739820  1.202146
C    0.886559  0.285364  2.070577
O    1.140691  -0.135274  3.233358
H    2.552001  1.549854  1.718507
H    2.733505  -0.085882  1.087238
H    1.707249  1.089523  0.212311
N    -0.353928  0.369673  1.549580
C    -1.704712  0.095764  2.090570
C    -1.895706  0.543810  3.557048
O    -1.541624  -0.156199  4.554367
H    -0.373936  0.732274  0.599540
H    -2.349112  0.750295  1.487964
C    -2.225905  -1.344651  1.789193
C    -1.748006  -2.416018  2.709638
N    -2.550343  -3.023526  3.641962
C    -0.475658  -2.909433  2.969942
C    -1.778427  -3.811827  4.447972
N    -0.506121  -3.760016  4.079533
H    -1.943640  -1.581158  0.753064
H    -3.324230  -1.305639  1.800446
H    -3.560275  -2.919084  3.718488
H    0.419898  -2.811869  2.361378
H    -2.180793  -4.401279  5.266469
N    -2.529455  1.696424  3.730036
C    -2.843645  2.297036  5.028614
H    -2.814755  2.215877  2.903317
H    -2.101655  3.066846  5.277946
H    -2.841191  1.521665  5.798179
H    -3.833819  2.760632  4.972067
Pb    0.384635  -1.391005  5.006548
