30
Energy: -609761.5573022  eV PBE+vdW (tier 2 basis)
C    0.265867  2.126420  0.917989
C    -0.394531  0.820010  0.677273
O    0.262503  -0.269539  0.713662
H    0.852530  2.100545  1.844460
H    0.987909  2.280189  0.098227
H    -0.429226  2.971516  0.915724
N    -1.716145  0.748149  0.356668
C    -2.803334  1.341073  1.138600
C    -2.428865  1.283774  2.643149
O    -1.596408  0.432976  3.084327
H    -1.941988  -0.177896  -0.004772
H    -2.980099  2.386920  0.848213
C    -4.119913  0.521924  0.843354
C    -3.827404  -0.944968  0.901383
N    -3.529326  -1.711570  -0.217548
C    -3.358552  -1.697694  1.959484
C    -2.863389  -2.831177  0.176858
N    -2.712806  -2.841875  1.500574
H    -4.498461  0.816753  -0.144222
H    -4.886673  0.805599  1.575147
H    -3.834233  -1.516659  -1.170894
H    -3.486819  -1.506758  3.021254
H    -2.522470  -3.599896  -0.510003
N    -3.020997  2.164682  3.435322
C    -2.841783  2.270624  4.885982
H    -3.636179  2.849925  3.000295
H    -2.453252  3.265640  5.133398
H    -3.806579  2.128760  5.387436
H    -2.134995  1.507838  5.218438
Pb    -0.555382  -1.653282  2.428222
