30
Energy: -609761.4334267  eV PBE+vdW (tier 2 basis)
C    0.172929  -0.220825  0.138714
C    -0.036721  -0.287973  1.611509
O    0.698741  -1.080349  2.305523
H    -0.066534  -1.197351  -0.306373
H    1.236862  -0.033679  -0.061150
H    -0.432931  0.553725  -0.342714
N    -0.970378  0.485176  2.162513
C    -1.199264  0.728183  3.589836
C    -1.856277  -0.489524  4.267604
O    -1.117724  -1.413679  4.769551
H    -1.354054  1.235815  1.561660
H    -0.221998  0.846955  4.086304
C    -1.989583  2.075310  3.738726
C    -1.511076  3.119435  2.793490
N    -0.420042  3.943642  2.990591
C    -1.925211  3.390008  1.493845
C    -0.247653  4.671193  1.840547
N    -1.131403  4.345208  0.918716
H    -1.936594  2.387611  4.790191
H    -3.055152  1.920298  3.510540
H    0.083119  4.089444  3.860575
H    -2.795630  2.990345  0.975356
H    0.527213  5.425549  1.741194
N    -3.166393  -0.566362  4.356954
C    -3.930214  -1.658194  4.967873
H    -3.705880  0.209404  3.977641
H    -4.660074  -1.231060  5.664895
H    -3.252425  -2.324345  5.504806
H    -4.464666  -2.214488  4.187278
Pb    0.899015  -2.202467  4.202800
