30
Energy: -609761.5331502  eV PBE+vdW (tier 2 basis)
C    -0.222158  0.817142  1.057404
C    0.007524  -0.592615  1.482784
O    1.211889  -1.071996  1.435755
H    0.267754  1.467186  1.800139
H    -1.278068  1.095672  1.006493
H    0.265215  1.020089  0.096716
N    -0.960428  -1.342911  1.982476
C    -2.408287  -1.248460  1.767794
C    -2.984532  -2.410811  2.612451
O    -2.302608  -3.448800  2.680832
H    -0.720626  -2.287571  2.326792
H    -2.790220  -0.268824  2.071684
C    -2.779849  -1.522412  0.241273
C    -1.719585  -2.357126  -0.391086
N    -1.463705  -3.671155  -0.045769
C    -0.592081  -1.942565  -1.066560
C    -0.224233  -4.003583  -0.443817
N    0.350836  -2.957932  -1.073218
H    -2.843216  -0.570218  -0.298412
H    -3.773676  -1.986382  0.195654
H    -2.057345  -4.243321  0.558526
H    -0.405537  -0.985082  -1.540992
H    0.211808  -4.989450  -0.313767
N    -4.196871  -2.270230  3.155062
C    -5.049626  -1.078334  3.175179
H    -4.523027  -3.093214  3.659673
H    -5.276328  -0.723023  2.162004
H    -4.600322  -0.269264  3.765734
H    -5.997853  -1.350746  3.646631
Pb    2.387153  -2.280063  -0.022434
