30
Energy: -609761.4011392  eV PBE+vdW (tier 2 basis)
C    -1.549948  -2.140640  -0.566215
C    -0.939414  -1.431487  0.592896
O    0.257900  -1.728439  0.946412
H    -2.580896  -1.832961  -0.769571
H    -1.514692  -3.225286  -0.398524
H    -0.933982  -1.939823  -1.455930
N    -1.642293  -0.485482  1.217643
C    -1.177068  0.500961  2.212181
C    -1.216648  -0.118139  3.624292
O    -0.507846  -1.173221  3.862082
H    -2.585292  -0.328555  0.863715
H    -0.110273  0.691804  2.007049
C    -1.992354  1.803487  1.944236
C    -1.891151  2.900080  2.947308
N    -0.766315  3.666029  3.195545
C    -2.838171  3.364480  3.849330
C    -1.085925  4.541604  4.203546
N    -2.321459  4.370306  4.623767
H    -3.059525  1.537489  1.876050
H    -1.697923  2.146835  0.939591
H    0.093217  3.681994  2.655711
H    -3.879187  3.057817  3.937443
H    -0.380746  5.277051  4.579221
N    -1.937333  0.429966  4.566881
C    -2.056167  -0.032082  5.949547
H    -2.357168  1.353652  4.342440
H    -3.106450  -0.274933  6.154501
H    -1.748663  0.779784  6.619986
H    -1.433660  -0.913954  6.110027
Pb    1.171435  -2.267338  2.902836
