30
Energy: -609762.2389332  eV PBE+vdW (tier 2 basis)
C    -1.841709  0.789836  -0.144827
C    -1.450692  0.315954  1.221441
O    -0.605323  -0.619898  1.319203
H    -0.967684  1.263401  -0.614978
H    -2.674509  1.500735  -0.148846
H    -2.100057  -0.078565  -0.764272
N    -2.050982  0.923519  2.265752
C    -1.964432  0.757204  3.729520
C    -0.575824  1.096142  4.294042
O    0.499466  0.687287  3.762837
H    -2.698000  1.655188  1.984591
H    -2.648289  1.525973  4.109319
C    -2.548379  -0.585145  4.290034
C    -1.806505  -1.814154  3.895791
N    -2.197568  -2.667192  2.895100
C    -0.547267  -2.267478  4.267272
C    -1.186921  -3.550176  2.645512
N    -0.159206  -3.334323  3.454323
H    -3.598808  -0.643318  3.974433
H    -2.561918  -0.498882  5.386106
H    -3.097594  -2.658015  2.419749
H    0.030328  -1.984730  5.145688
H    -1.245949  -4.322952  1.885050
N    -0.516251  1.845545  5.390510
C    -1.603170  2.495938  6.133900
H    0.434072  2.017033  5.720800
H    -2.146235  3.210591  5.502176
H    -1.154121  3.053708  6.960246
H    -2.297854  1.762849  6.561071
Pb    1.219380  -1.201074  2.576458
