30
Energy: -609761.5069599  eV PBE+vdW (tier 2 basis)
C    0.492338  0.122241  0.382648
C    0.213052  0.021928  1.849862
O    1.182097  -0.202701  2.681909
H    1.192304  0.948236  0.185235
H    -0.410332  0.289541  -0.213186
H    0.973056  -0.806986  0.046153
N    -1.033020  0.149136  2.255025
C    -1.653150  -0.001291  3.571368
C    -3.135978  -0.339975  3.187623
O    -3.485711  -0.070913  2.033669
H    -1.819854  0.225990  1.563947
H    -1.166399  -0.815457  4.123634
C    -1.625795  1.325767  4.401255
C    -0.223465  1.710839  4.710104
N    0.500701  1.177290  5.759420
C    0.708321  2.372701  3.937033
C    1.808354  1.462643  5.591336
N    1.971911  2.189461  4.465505
H    -2.216230  1.190266  5.317130
H    -2.113733  2.118742  3.819557
H    0.109354  0.699977  6.569498
H    0.544653  2.941589  3.027955
H    2.583991  1.220034  6.312109
N    -3.951270  -0.863886  4.112624
C    -3.661758  -1.259824  5.485898
H    -4.905188  -0.999795  3.780051
H    -2.608065  -1.537747  5.601673
H    -4.258065  -2.144853  5.732042
H    -3.916300  -0.465602  6.202298
Pb    3.194183  0.721649  3.027630
