30
Energy: -609762.3320946  eV PBE+vdW (tier 2 basis)
C    -0.189286  2.017633  -0.812611
C    -0.963187  1.240121  0.207642
O    -0.470102  0.163201  0.650505
H    0.740292  2.377660  -0.348953
H    0.106547  1.343471  -1.626859
H    -0.733357  2.872299  -1.227994
N    -2.157104  1.747365  0.577135
C    -3.199953  1.295087  1.521751
C    -2.710747  1.251174  2.982136
O    -1.695765  0.599550  3.363650
H    -2.380764  2.627429  0.120305
H    -3.944099  2.100976  1.475096
C    -3.996008  0.023404  1.074849
C    -3.209577  -1.235936  0.968801
N    -2.707497  -1.736743  -0.204599
C    -2.684579  -2.065282  1.953572
C    -1.875526  -2.783216  0.080264
N    -1.828571  -3.010470  1.383259
H    -4.473800  0.261647  0.114528
H    -4.813754  -0.113087  1.797415
H    -2.926650  -1.400031  -1.139809
H    -2.989922  -2.132927  2.996555
H    -1.341659  -3.342090  -0.682419
N    -3.430621  1.935543  3.862494
C    -3.136443  1.974750  5.299469
H    -4.214067  2.490471  3.529645
H    -2.159532  2.441450  5.474119
H    -3.914074  2.562425  5.793507
H    -3.128654  0.959823  5.713108
Pb    -0.299539  -1.095697  2.558438
