30
Energy: -609761.6439029  eV PBE+vdW (tier 2 basis)
C    0.135022  0.761598  0.194699
C    0.170672  0.400315  1.644267
O    1.308043  0.247880  2.234296
H    0.616655  -0.042168  -0.380619
H    0.716796  1.676716  0.020588
H    -0.882563  0.903717  -0.182269
N    -0.974942  0.218457  2.277596
C    -1.259910  -0.287882  3.615560
C    -2.686706  -0.917886  3.435797
O    -3.350040  -0.528425  2.471074
H    -1.879774  0.238842  1.754069
H    -0.505201  -1.031733  3.904131
C    -1.338806  0.843724  4.699940
C    -0.073060  1.618912  4.729936
N    0.104314  2.806498  4.047316
C    1.195521  1.253577  5.134898
C    1.419759  3.110444  4.004490
N    2.123241  2.170060  4.658650
H    -1.522481  0.372938  5.674335
H    -2.201092  1.490699  4.488345
H    -0.644821  3.394550  3.685066
H    1.490415  0.407704  5.748932
H    1.824773  4.012648  3.556576
N    -3.086299  -1.791198  4.366134
C    -4.407578  -2.425775  4.358966
H    -2.429521  -2.081350  5.083637
H    -4.993863  -1.994960  3.543420
H    -4.914517  -2.241525  5.313087
H    -4.306729  -3.506429  4.203246
Pb    3.280691  0.777051  3.099837
