30
Energy: -609761.3018504  eV PBE+vdW (tier 2 basis)
C    -0.481087  0.103645  -0.064493
C    -0.321876  0.052077  1.417675
O    0.822762  -0.219050  1.902017
H    -0.168884  -0.862573  -0.486427
H    0.203698  0.860336  -0.472542
H    -1.503148  0.326540  -0.387917
N    -1.400636  0.280532  2.180763
C    -1.542920  0.173596  3.646957
C    -0.766605  1.284008  4.365692
O    0.480540  1.157745  4.629645
H    -2.264985  0.448880  1.672645
H    -2.610240  0.343451  3.828078
C    -1.238781  -1.228720  4.232886
C    -2.061513  -2.317407  3.657797
N    -2.807229  -3.189200  4.432915
C    -2.249226  -2.776160  2.352176
C    -3.401941  -4.081951  3.590521
N    -3.076872  -3.852234  2.326553
H    -1.385290  -1.160700  5.320929
H    -0.146714  -1.479495  4.117070
H    -2.911899  -3.172469  5.443154
H    -1.802407  -2.404969  1.435129
H    -4.061831  -4.868715  3.943820
N    -1.391545  2.376771  4.767002
C    -2.803961  2.746675  4.601519
H    -0.797792  3.039954  5.268758
H    -3.125238  2.628849  3.560673
H    -2.904851  3.802917  4.866689
H    -3.447410  2.160832  5.270141
Pb    2.029880  -0.254167  3.802176
