30
Energy: -609762.2384113  eV PBE+vdW (tier 2 basis)
C    1.421088  1.909523  3.125020
C    -0.065479  2.074368  3.040824
O    -0.634147  2.862998  3.849939
H    1.895597  2.859697  2.839933
H    1.818074  1.110906  2.489764
H    1.701157  1.719018  4.168978
N    -0.701578  1.345382  2.100579
C    -2.115928  1.204827  1.703169
C    -2.717163  2.503634  1.142858
O    -2.547441  3.631939  1.693879
H    -0.071907  0.773040  1.544746
H    -2.071043  0.498786  0.865052
C    -3.041432  0.496976  2.751642
C    -3.254434  1.247379  4.019747
N    -2.599209  0.982241  5.195423
C    -3.956266  2.419840  4.269186
C    -2.856105  1.987715  6.082337
N    -3.671827  2.888565  5.553383
H    -2.613129  -0.494653  2.950706
H    -4.009538  0.320032  2.261264
H    -2.022987  0.165412  5.387255
H    -4.742284  2.867678  3.663511
H    -2.440982  2.016994  7.085230
N    -3.449656  2.423391  0.036315
C    -3.718942  1.260653  -0.819812
H    -3.830740  3.319014  -0.270711
H    -4.352228  1.595223  -1.646042
H    -4.259864  0.475119  -0.278890
H    -2.791902  0.858030  -1.248035
Pb    -2.279704  4.456277  3.870754
