30
Energy: -609761.5572399  eV PBE+vdW (tier 2 basis)
C    -0.331533  2.594134  0.814123
C    -0.721300  1.188497  0.544200
O    0.149997  0.264411  0.462083
H    0.230008  2.948076  -0.067379
H    -1.186697  3.262691  0.953418
H    0.358161  2.651512  1.664592
N    -2.021413  0.850239  0.318990
C    -3.137153  1.157943  1.216301
C    -2.630520  1.111555  2.682003
O    -1.602287  0.440204  3.004071
H    -2.077980  -0.084753  -0.083285
H    -3.554614  2.153833  1.008070
C    -4.272330  0.090016  0.966931
C    -3.674534  -1.281129  0.909934
N    -3.320166  -1.914049  -0.274194
C    -2.970134  -1.964914  1.880844
C    -2.404375  -2.883600  -0.001640
N    -2.142150  -2.923327  1.303934
H    -4.787156  0.342452  0.030555
H    -5.016411  0.168210  1.769557
H    -3.738702  -1.743884  -1.188349
H    -3.044670  -1.855568  2.959204
H    -1.971125  -3.529778  -0.759078
N    -3.323861  1.805594  3.571797
C    -3.044445  1.878936  5.008535
H    -4.105131  2.362325  3.229748
H    -2.850607  2.920928  5.289514
H    -3.911090  1.512188  5.571378
H    -2.168386  1.268688  5.236661
Pb    -0.209397  -1.341430  2.140481
