30
Energy: -609761.6440411  eV PBE+vdW (tier 2 basis)
C    -0.316667  1.716956  0.420160
C    -0.095530  0.893818  1.647446
O    1.103020  0.540265  1.969350
H    0.017652  1.140891  -0.454775
H    0.296654  2.626964  0.461591
H    -1.365881  1.994485  0.278932
N    -1.147108  0.524528  2.357682
C    -1.266259  -0.395443  3.483001
C    -2.740052  -0.914760  3.333942
O    -3.511096  -0.219077  2.667465
H    -2.115431  0.727911  2.019144
H    -0.525381  -1.200823  3.389777
C    -1.116947  0.311070  4.876106
C    0.188047  1.013617  4.960741
N    0.343690  2.358816  4.689281
C    1.474683  0.515351  5.017705
C    1.656686  2.640834  4.542782
N    2.382999  1.525315  4.730895
H    -1.190828  -0.454832  5.658897
H    -1.956643  1.003760  5.024525
H    -0.409066  3.045169  4.663065
H    1.797938  -0.491980  5.263364
H    2.052265  3.635287  4.360427
N    -3.053592  -2.044122  3.977404
C    -4.398851  -2.625346  3.972585
H    -2.318896  -2.563888  4.447058
H    -4.392404  -3.589678  3.450711
H    -5.071283  -1.937131  3.454237
H    -4.744891  -2.771386  5.002269
Pb    3.210173  0.721430  2.638232
