30
Energy: -609761.6437871  eV PBE+vdW (tier 2 basis)
C    -0.166749  1.572009  0.353929
C    0.002827  0.810478  1.628331
O    1.186477  0.472417  2.015313
H    -1.208466  1.844668  0.158262
H    0.198727  0.952129  -0.477549
H    0.448553  2.481378  0.373888
N    -1.077515  0.477433  2.313025
C    -1.244445  -0.386339  3.476166
C    -2.712510  -0.910850  3.293373
O    -3.453509  -0.249211  2.561302
H    -2.031143  0.663901  1.925946
H    -0.503145  -1.196376  3.452055
C    -1.148582  0.387015  4.838183
C    0.154749  1.090167  4.941425
N    0.326696  2.420389  4.612128
C    1.436026  0.592514  5.074485
C    1.645719  2.692291  4.505650
N    2.359318  1.585605  4.776636
H    -1.257015  -0.339680  5.653671
H    -1.990893  1.087705  4.918658
H    -0.421687  3.106075  4.521905
H    1.744954  -0.402435  5.381495
H    2.052341  3.675995  4.291927
N    -3.055857  -2.005645  3.979953
C    -4.401069  -2.586166  3.947296
H    -2.342574  -2.501855  4.504873
H    -4.376375  -3.571749  3.467239
H    -5.051452  -1.920305  3.374475
H    -4.786973  -2.688344  4.968003
Pb    3.265574  0.679787  2.759957
