28
Energy: -15633.4456816 eV PBE+vdW (tier 2 basis)
C    -0.400804  0.025106  -0.536393
C    0.010706  0.023747  0.927648
O    1.184019  0.160867  1.264483
H    0.508790  0.128646  -1.133557
H    -1.067647  0.869617  -0.763897
H    -0.917987  -0.897923  -0.826871
N    -0.973424  -0.139257  1.871751
C    -2.410662  -0.164618  1.694225
C    -3.022053  0.873585  2.657928
O    -2.459578  1.204739  3.699747
H    -0.667704  0.044807  2.827178
H    -2.644430  0.129232  0.660713
C    -3.044465  -1.573215  1.940412
C    -2.595876  -2.570215  0.868327
C    -2.757772  -2.107654  3.347467
H    -4.135328  -1.435298  1.842061
H    -3.066364  -3.549053  1.032180
H    -1.507274  -2.718090  0.899290
H    -2.868464  -2.235123  -0.142613
H    -3.273191  -3.064927  3.501167
H    -3.087665  -1.414164  4.131230
H    -1.682504  -2.285598  3.488153
N    -4.239615  1.361556  2.297227
C    -4.971068  2.295106  3.138919
H    -4.642892  1.079013  1.413216
H    -5.917597  2.545925  2.649448
H    -4.393432  3.215473  3.298167
H    -5.181098  1.854565  4.122725
