28
Energy: -15633.229219 eV PBE+vdW (tier 2 basis)
C    0.087180  -0.406894  1.253637
C    -0.707282  -1.006492  2.398302
O    -0.220633  -1.867540  3.127775
H    -0.376342  -0.646044  0.287495
H    1.089499  -0.841649  1.284378
H    0.168550  0.684761  1.333627
N    -1.990877  -0.565363  2.630989
C    -2.882090  0.347310  1.902455
C    -3.390615  -0.333266  0.602439
O    -4.275775  -1.181780  0.661820
H    -2.431714  -1.104600  3.369966
H    -3.789680  0.375570  2.522633
C    -2.401761  1.815280  1.788012
C    -3.559822  2.702824  1.308465
C    -1.848207  2.325968  3.122830
H    -1.586758  1.888349  1.046529
H    -3.989443  2.359244  0.358349
H    -3.222063  3.738037  1.168608
H    -4.369665  2.715595  2.052600
H    -2.611997  2.259789  3.911891
H    -1.550963  3.379578  3.035863
H    -0.977061  1.752336  3.459959
N    -2.780562  0.029818  -0.562724
C    -3.130807  -0.550302  -1.845683
H    -2.090522  0.770187  -0.535418
H    -3.569798  0.199593  -2.519193
H    -3.869737  -1.336556  -1.659908
H    -2.250290  -0.992453  -2.331970
