28
Energy: -15633.6338826 eV PBE+vdW (tier 2 basis)
C    -2.750360  1.330322  1.494216
C    -1.598338  0.629614  2.187053
O    -0.427760  0.986847  2.000051
H    -2.627551  1.213520  0.409852
H    -2.695085  2.403077  1.715179
H    -3.739811  0.954269  1.781136
N    -1.944991  -0.398765  3.008579
C    -1.038274  -1.307942  3.729861
C    -0.333596  -0.637523  4.938360
O    -0.484208  -1.095619  6.071871
H    -2.934294  -0.582358  3.115611
H    -1.695339  -2.050686  4.202068
C    -0.058550  -2.069900  2.798239
C    0.824170  -3.016220  3.619413
C    -0.821261  -2.832067  1.709941
H    0.588610  -1.326945  2.309119
H    1.425800  -2.478374  4.362808
H    1.513240  -3.558994  2.958803
H    0.219680  -3.759532  4.159955
H    -0.120397  -3.360034  1.049585
H    -1.424955  -2.163489  1.082882
H    -1.493021  -3.585664  2.149746
N    0.455937  0.421850  4.631210
C    1.175343  1.172657  5.640209
H    0.437951  0.748384  3.658613
H    1.051191  0.659889  6.599970
H    0.785338  2.197150  5.731741
H    2.245530  1.227532  5.396928
