28
Energy: -15633.1184888 eV PBE+vdW (tier 2 basis)
C    -0.696373  0.097850  -0.100488
C    -0.123861  0.075615  1.307672
O    1.082868  0.070408  1.514601
H    0.004442  -0.399420  -0.777774
H    -0.792121  1.147027  -0.414145
H    -1.682967  -0.377387  -0.180563
N    -1.084317  0.032394  2.296510
C    -0.936272  0.418256  3.697615
C    -0.846056  1.965569  3.795924
O    -0.570588  2.658995  2.822972
H    -2.030832  0.144511  1.951086
H    -1.895202  0.121753  4.154059
C    0.163391  -0.325942  4.526710
C    0.268399  -1.800074  4.119557
C    1.532698  0.362636  4.558030
H    -0.222980  -0.314618  5.558661
H    -0.715914  -2.288332  4.092399
H    0.892164  -2.341334  4.844121
H    0.731527  -1.904205  3.131076
H    2.212365  -0.199993  5.213415
H    1.465598  1.385470  4.954597
H    1.968476  0.413162  3.554755
N    -1.128023  2.542928  5.006953
C    -1.457811  1.925856  6.278778
H    -0.997726  3.549992  4.993041
H    -2.001197  2.653972  6.892447
H    -0.568596  1.598375  6.840298
H    -2.117851  1.060220  6.140344
