28
Energy: -15633.1440152 eV PBE+vdW (tier 2 basis)
C    -0.759369  0.633844  -0.106207
C    -0.757702  -0.000025  1.277424
O    -0.115221  -1.023651  1.502929
H    -1.146778  -0.100385  -0.823436
H    0.277650  0.850498  -0.391178
H    -1.351324  1.554031  -0.186488
N    -1.507732  0.671460  2.204158
C    -1.831821  0.397169  3.614910
C    -1.057905  1.240298  4.658746
O    -1.681957  1.643219  5.642645
H    -1.964279  1.503721  1.850625
H    -2.843694  0.812122  3.724856
C    -1.976780  -1.077743  4.094596
C    -2.850269  -1.896154  3.137695
C    -0.682872  -1.808596  4.470329
H    -2.544510  -0.947484  5.030619
H    -3.131168  -2.847756  3.608858
H    -2.317136  -2.130798  2.208067
H    -3.778681  -1.365527  2.881847
H    -0.932763  -2.776186  4.927683
H    -0.101924  -1.243379  5.212023
H    -0.055728  -1.995136  3.592228
N    0.263608  1.537979  4.505672
C    1.239810  1.096867  3.522390
H    0.600083  2.121398  5.266224
H    2.223931  1.053826  4.004355
H    1.306663  1.785950  2.665671
H    1.010263  0.096236  3.143975
