28
Energy: -15633.4534941 eV PBE+vdW (tier 2 basis)
C    -0.996390  -0.009458  -0.722436
C    -0.514547  -0.287260  0.692998
O    0.607263  -0.737149  0.912291
H    -0.198572  -0.310247  -1.406293
H    -1.202352  1.060377  -0.872762
H    -1.909799  -0.564737  -0.970090
N    -1.376451  -0.022105  1.728861
C    -2.664935  0.638616  1.694749
C    -2.631861  1.793985  2.716847
O    -1.903052  1.758323  3.705538
H    -0.942935  -0.060625  2.651000
H    -2.819259  1.057705  0.689967
C    -3.864016  -0.319427  1.996210
C    -4.031475  -1.352339  0.878195
C    -3.743851  -0.999400  3.363954
H    -4.765170  0.318223  2.008635
H    -4.891086  -2.004713  1.082581
H    -3.142324  -1.993383  0.798449
H    -4.200100  -0.875854  -0.098104
H    -4.634771  -1.609757  3.562591
H    -3.638711  -0.274776  4.181130
H    -2.872468  -1.668362  3.394480
N    -3.492917  2.817979  2.454104
C    -3.659166  3.955581  3.340441
H    -4.042199  2.778484  1.604038
H    -3.422908  4.896725  2.825526
H    -2.964522  3.824139  4.176511
H    -4.684425  4.010456  3.732590
