28
Energy: -15633.3068021 eV PBE+vdW (tier 2 basis)
C    0.393676  2.111710  0.574470
C    0.288306  0.836599  1.385449
O    1.197549  0.011116  1.449265
H    1.340276  2.089697  0.028977
H    0.367458  3.001800  1.218505
H    -0.437462  2.209186  -0.137551
N    -0.891866  0.618932  2.058204
C    -2.001680  1.541397  2.250377
C    -1.664572  2.771384  3.127641
O    -1.991977  3.893894  2.742368
H    -0.886983  -0.243834  2.595882
H    -2.257479  2.000880  1.283744
C    -3.253244  0.766630  2.738666
C    -4.374668  1.705865  3.194065
C    -3.747634  -0.188180  1.644202
H    -2.946750  0.159911  3.610186
H    -5.251335  1.121539  3.503114
H    -4.684632  2.377069  2.381136
H    -4.073127  2.334297  4.041490
H    -4.120188  0.379706  0.779034
H    -4.573874  -0.807889  2.016954
H    -2.956369  -0.859662  1.287228
N    -1.010009  2.604371  4.315852
C    -0.510054  1.399391  4.961788
H    -0.813730  3.491285  4.769438
H    -0.262448  1.649218  5.999498
H    0.393309  1.001303  4.477809
H    -1.271254  0.609632  4.995517
