28
Energy: -15633.1422669 eV PBE+vdW (tier 2 basis)
C    -0.568669  0.133764  -0.094524
C    -0.240270  0.419758  1.364437
O    0.677237  1.164016  1.683062
H    0.364137  0.105706  -0.666657
H    -1.175949  0.964473  -0.480308
H    -1.121269  -0.801775  -0.252235
N    -1.052303  -0.252416  2.255242
C    -1.229086  0.000722  3.687614
C    -2.260303  1.140316  3.868814
O    -2.118424  2.226650  3.318220
H    -1.807503  -0.776966  1.829305
H    -1.636463  -0.936856  4.098396
C    0.077728  0.300105  4.463449
C    -0.220171  0.531402  5.949791
C    1.093232  -0.831329  4.283405
H    0.498438  1.220113  4.038338
H    0.708163  0.774269  6.483032
H    -0.641081  -0.368691  6.425197
H    -0.916388  1.365315  6.111585
H    2.009222  -0.609636  4.847677
H    1.375078  -0.960153  3.232543
H    0.696773  -1.788837  4.656977
N    -3.363042  0.884527  4.645311
C    -3.695725  -0.294380  5.428715
H    -3.964360  1.697484  4.741659
H    -4.730342  -0.194842  5.775468
H    -3.052539  -0.417246  6.312763
H    -3.641571  -1.212330  4.827986
