28
Energy: -15633.2309586 eV PBE+vdW (tier 2 basis)
C    0.275385  1.069846  0.287426
C    0.325080  0.288227  1.582367
O    1.382947  -0.147160  2.031821
H    0.231072  2.146397  0.500929
H    -0.589253  0.815804  -0.336636
H    1.200658  0.867075  -0.258973
N    -0.853040  0.039067  2.262848
C    -2.231114  0.519611  2.090728
C    -3.047100  -0.218908  1.005408
O    -4.221411  0.083390  0.801456
H    -0.662252  -0.449508  3.133275
H    -2.728516  0.187643  3.014310
C    -2.397203  2.083624  2.062714
C    -2.760811  2.705978  0.707543
C    -3.415410  2.522352  3.124764
H    -1.412790  2.471933  2.367458
H    -2.669314  3.798897  0.773053
H    -3.792852  2.463688  0.429700
H    -2.110487  2.371686  -0.109031
H    -4.410152  2.117774  2.892767
H    -3.495579  3.617559  3.159420
H    -3.127095  2.177000  4.128034
N    -2.400022  -1.224968  0.357625
C    -3.053982  -2.069802  -0.621763
H    -1.463966  -1.451532  0.675283
H    -2.477796  -2.103258  -1.556075
H    -4.042322  -1.642397  -0.822246
H    -3.182168  -3.095903  -0.247822
