28
Energy: -15633.2969753 eV PBE+vdW (tier 2 basis)
C    -0.413862  -1.083383  0.162649
C    -0.394598  -1.131799  1.680515
O    0.248366  -1.972180  2.302875
H    -0.732268  -2.061544  -0.218358
H    0.608521  -0.911578  -0.196600
H    -1.070141  -0.306824  -0.250762
N    -1.155079  -0.179304  2.305629
C    -1.184291  -0.024424  3.748184
C    -2.144039  -0.926894  4.558111
O    -1.961182  -1.000767  5.772606
H    -1.650955  0.492872  1.733520
H    -0.197172  -0.342358  4.114330
C    -1.405343  1.453549  4.158922
C    -0.243856  2.342932  3.704757
C    -2.761794  2.001187  3.694567
H    -1.411698  1.428835  5.258366
H    -0.372953  3.366863  4.080658
H    -0.172344  2.402277  2.608727
H    0.716278  1.964102  4.079767
H    -2.828501  2.088799  2.597716
H    -2.924507  3.010584  4.094883
H    -3.594218  1.371104  4.036558
N    -3.176767  -1.610107  3.978222
C    -3.660785  -1.681608  2.608210
H    -3.667310  -2.173269  4.666305
H    -4.623871  -2.204836  2.623772
H    -2.982260  -2.239044  1.947749
H    -3.837245  -0.686861  2.179990
