28
Energy: -15633.6548674 eV PBE+vdW (tier 2 basis)
C    -0.028770  -0.778471  0.074970
C    -0.562588  -1.149263  1.442603
O    -0.972428  -2.290264  1.693999
H    0.284184  0.269507  -0.007893
H    -0.801036  -0.984102  -0.676372
H    0.828542  -1.424464  -0.152507
N    -0.564462  -0.155189  2.370660
C    -0.957543  -0.345651  3.766259
C    -2.501200  -0.248885  3.951607
O    -3.040123  0.617171  4.639852
H    -0.289384  0.777676  2.086404
H    -0.684304  -1.384699  4.011029
C    -0.182069  0.601137  4.702728
C    1.272022  0.140771  4.859973
C    -0.260214  2.078397  4.290828
H    -0.688456  0.512524  5.675438
H    1.330875  -0.886521  5.245297
H    1.813278  0.793081  5.558555
H    1.809929  0.167501  3.900560
H    -1.298636  2.399417  4.149475
H    0.311885  2.287762  3.371660
H    0.184088  2.708677  5.072607
N    -3.166917  -1.234865  3.295458
C    -4.612263  -1.333025  3.285917
H    -2.602707  -1.890264  2.746310
H    -5.017952  -1.179805  2.275040
H    -5.009922  -0.557315  3.948913
H    -4.940830  -2.316835  3.648630
