28
Energy: -15633.2600352 eV PBE+vdW (tier 2 basis)
C    -1.094716  -1.574793  1.415625
C    -1.051985  -0.504049  2.484319
O    -0.190380  -0.490986  3.361957
H    -0.151157  -2.124835  1.459089
H    -1.245528  -1.169500  0.408339
H    -1.920665  -2.274816  1.603356
N    -2.028027  0.469449  2.483855
C    -3.110110  0.752985  1.537369
C    -4.008992  -0.493129  1.327538
O    -4.130974  -1.044627  0.236058
H    -1.874419  1.149962  3.221783
H    -3.733735  1.502977  2.053735
C    -2.677837  1.385623  0.192251
C    -3.890254  2.021588  -0.499596
C    -1.558535  2.412565  0.386172
H    -2.312626  0.573533  -0.454404
H    -3.602272  2.437973  -1.473973
H    -4.297424  2.848441  0.103823
H    -4.688058  1.290084  -0.673275
H    -1.292432  2.866212  -0.577740
H    -0.649907  1.966058  0.807948
H    -1.872803  3.228951  1.055697
N    -4.668728  -0.961071  2.429751
C    -4.631751  -0.472362  3.798026
H    -5.205710  -1.801524  2.240187
H    -5.490570  -0.887169  4.337378
H    -4.721623  0.621703  3.833720
H    -3.711108  -0.761213  4.325305
