28
Energy: -15633.2912706 eV PBE+vdW (tier 2 basis)
C    0.763123  -0.501266  2.044485
C    -0.060766  0.694773  2.487901
O    0.462947  1.692900  2.978914
H    1.816496  -0.236526  2.166492
H    0.582836  -0.769597  0.994950
H    0.546545  -1.387818  2.653787
N    -1.423294  0.645654  2.314054
C    -2.270402  -0.432261  1.817206
C    -3.259017  0.118484  0.753498
O    -4.477563  0.014971  0.877510
H    -1.890648  1.478900  2.663148
H    -1.613594  -1.147643  1.298100
C    -3.017951  -1.203604  2.935352
C    -2.066232  -2.137628  3.689592
C    -3.757161  -0.278683  3.910041
H    -3.771667  -1.812974  2.414292
H    -2.617694  -2.724901  4.436070
H    -1.292343  -1.573460  4.230665
H    -1.565599  -2.847024  3.014573
H    -3.053591  0.326190  4.500909
H    -4.344028  -0.875509  4.620795
H    -4.450809  0.388208  3.384739
N    -2.721986  0.735401  -0.343351
C    -1.332920  0.863905  -0.751601
H    -3.434748  1.077970  -0.979572
H    -0.785207  1.609084  -0.158737
H    -1.311892  1.174044  -1.801900
H    -0.800460  -0.095150  -0.684948
