28
Energy: -15633.2035249 eV PBE+vdW (tier 2 basis)
C    -0.549841  0.402073  0.142028
C    -0.125389  0.201192  1.581822
O    0.941355  0.650366  1.996030
H    -1.627057  0.337698  -0.037813
H    -0.063304  -0.373782  -0.463974
H    -0.180820  1.379589  -0.183857
N    -0.926599  -0.526176  2.434470
C    -2.232099  -1.149595  2.265466
C    -2.322438  -1.944362  0.933623
O    -1.379316  -2.627824  0.550937
H    -0.473869  -0.660342  3.333041
H    -2.247644  -1.969704  3.004056
C    -3.416076  -0.218503  2.667407
C    -3.325074  0.117318  4.163153
C    -3.535189  1.072203  1.847724
H    -4.339666  -0.811999  2.540218
H    -3.275229  -0.791250  4.779972
H    -4.202022  0.693583  4.486493
H    -2.434178  0.724191  4.376663
H    -2.645072  1.702112  1.979355
H    -4.401437  1.655864  2.186911
H    -3.658615  0.893493  0.771185
N    -3.517120  -1.891974  0.276471
C    -3.772394  -2.651109  -0.933301
H    -4.247965  -1.294022  0.638752
H    -4.625923  -3.330609  -0.802745
H    -2.874793  -3.240227  -1.147728
H    -3.974356  -1.986306  -1.784974
