28
Energy: -15633.5440169 eV PBE+vdW (tier 2 basis)
C    0.428601  -0.605952  0.440741
C    0.111357  0.079745  1.755828
O    0.983995  0.335443  2.585451
H    -0.448792  -0.764037  -0.198248
H    0.897883  -1.574584  0.652899
H    1.162669  0.000747  -0.103886
N    -1.205248  0.410094  1.938305
C    -1.692623  0.971275  3.188356
C    -2.562430  -0.103154  3.862456
O    -3.553620  -0.554142  3.284126
H    -1.904180  0.032195  1.306581
H    -0.790781  1.193337  3.772341
C    -2.495870  2.276492  2.982909
C    -3.023453  2.799901  4.323886
C    -1.646250  3.331361  2.269468
H    -3.362637  2.023105  2.349547
H    -2.195319  3.037649  5.009148
H    -3.680458  2.073425  4.820292
H    -3.601830  3.721597  4.177457
H    -0.780227  3.622377  2.882322
H    -2.237959  4.235807  2.073609
H    -1.264941  2.962591  1.309050
N    -2.186531  -0.541694  5.094933
C    -1.031053  -0.132767  5.882824
H    -2.808024  -1.245129  5.482652
H    -0.110659  -0.150098  5.284987
H    -0.909381  -0.844076  6.706829
H    -1.156241  0.870490  6.317136
