28
Energy: -15633.5132539 eV PBE+vdW (tier 2 basis)
C    -0.994729  1.252797  0.384316
C    -0.601277  0.350823  1.539079
O    0.391854  -0.383395  1.452584
H    -0.142940  1.897874  0.136579
H    -1.873874  1.878440  0.580079
H    -1.194489  0.625035  -0.493189
N    -1.401906  0.433901  2.636775
C    -1.407481  -0.338070  3.897942
C    -0.135062  -0.260100  4.776015
O    -0.265848  -0.215836  6.002476
H    -2.159255  1.101694  2.563516
H    -2.148954  0.185861  4.514375
C    -1.942106  -1.797768  3.728792
C    -0.903961  -2.811939  3.233942
C    -2.596689  -2.280010  5.030067
H    -2.731281  -1.715009  2.961977
H    -1.386766  -3.785192  3.069897
H    -0.111584  -2.961241  3.981289
H    -0.428624  -2.500540  2.297644
H    -3.024468  -3.281920  4.889279
H    -3.405285  -1.608472  5.350954
H    -1.867238  -2.330737  5.848941
N    1.059341  -0.275330  4.145058
C    2.304441  -0.262090  4.887738
H    1.060627  -0.411953  3.126066
H    2.559311  -1.258069  5.283048
H    2.221491  0.422809  5.739895
H    3.111752  0.072437  4.226866
