28
Energy: -15633.4754067 eV PBE+vdW (tier 2 basis)
C    -0.352076  -1.689759  -0.295845
C    -0.197189  -1.031198  1.063803
O    0.778988  -0.353403  1.360684
H    -0.447637  -0.904176  -1.056611
H    -1.217092  -2.361075  -0.370382
H    0.560897  -2.252934  -0.522167
N    -1.228815  -1.258872  1.947514
C    -1.329175  -0.564069  3.228283
C    -0.547875  -1.266216  4.361795
O    -0.202284  -0.647301  5.364052
H    -2.064809  -1.710813  1.592694
H    -0.831787  0.411739  3.120781
C    -2.830128  -0.349835  3.566712
C    -3.074922  0.166298  4.987973
C    -3.475719  0.596818  2.543513
H    -3.316132  -1.340942  3.483867
H    -4.152083  0.318491  5.141641
H    -2.568039  1.126604  5.153483
H    -2.711927  -0.526875  5.754059
H    -4.556203  0.676922  2.722006
H    -3.333524  0.267767  1.505309
H    -3.046593  1.605375  2.631801
N    -0.321982  -2.597162  4.175484
C    0.459601  -3.388045  5.105155
H    -0.517582  -2.964328  3.250848
H    0.554113  -2.813333  6.032761
H    1.468791  -3.592525  4.717467
H    -0.039819  -4.342151  5.319321
