28
Energy: -15633.6561805 eV PBE+vdW (tier 2 basis)
C    0.186421  -0.948171  -0.068557
C    -0.029461  -1.295900  1.392424
O    0.411252  -2.330763  1.890077
H    1.264732  -0.915435  -0.267891
H    -0.260789  0.008642  -0.363987
H    -0.235770  -1.750145  -0.686760
N    -0.726048  -0.362152  2.114208
C    -1.187646  -0.626393  3.461945
C    -2.670759  -0.222076  3.519655
O    -3.164822  0.544353  2.690729
H    -1.271177  0.343414  1.621782
H    -1.081308  -1.710851  3.626905
C    -0.355890  0.108490  4.558635
C    1.100173  -0.366618  4.546274
C    -0.451859  1.632794  4.442041
H    -0.800233  -0.188667  5.524803
H    1.173366  -1.458131  4.631461
H    1.656637  0.087231  5.377796
H    1.600515  -0.077763  3.611984
H    -1.487501  1.991868  4.507705
H    -0.037958  1.978935  3.484346
H    0.124127  2.114106  5.243675
N    -3.368362  -0.743456  4.564876
C    -4.762626  -0.433242  4.820284
H    -2.896015  -1.402840  5.171771
H    -5.392795  -1.329530  4.735598
H    -5.081490  0.295200  4.067819
H    -4.894716  0.002101  5.820404
