28
Energy: -15633.5471494 eV PBE+vdW (tier 2 basis)
C    -0.518981  -0.256774  -0.248624
C    -0.290789  -0.222652  1.251247
O    0.851397  -0.090799  1.709410
H    -1.571238  -0.351587  -0.542757
H    0.043072  -1.102155  -0.665120
H    -0.104087  0.658379  -0.688354
N    -1.417293  -0.329424  2.008595
C    -1.605510  -0.451598  3.469319
C    -1.034267  0.661681  4.379882
O    -1.651093  0.934670  5.412877
H    -2.276321  -0.413300  1.479740
H    -2.687815  -0.320396  3.601181
C    -1.282135  -1.861554  4.046527
C    -2.079976  -2.944240  3.312449
C    0.208958  -2.208752  4.104001
H    -1.657110  -1.803944  5.081265
H    -1.950110  -3.917841  3.803336
H    -1.743060  -3.055963  2.271426
H    -3.156631  -2.719474  3.300150
H    0.345346  -3.175008  4.609191
H    0.782162  -1.458060  4.662248
H    0.651910  -2.285791  3.103180
N    0.121361  1.252933  4.009088
C    0.749713  2.261483  4.840475
H    0.621181  0.854450  3.202229
H    1.479033  2.815120  4.239020
H    1.265711  1.818970  5.707067
H    -0.008427  2.954628  5.223951
