28
Energy: -15633.4754696 eV PBE+vdW (tier 2 basis)
C    0.319150  -1.013683  0.542480
C    0.082141  0.219577  1.399966
O    0.875138  1.158196  1.413696
H    0.355349  -1.933036  1.141777
H    1.276598  -0.881491  0.032188
H    -0.468992  -1.135588  -0.214559
N    -1.053318  0.250235  2.168112
C    -2.135722  -0.716990  2.253402
C    -3.445204  0.048412  1.989158
O    -3.732847  1.046749  2.646255
H    -1.204295  1.124196  2.669215
H    -1.978837  -1.478455  1.475503
C    -2.197768  -1.424760  3.634248
C    -3.410414  -2.357468  3.725960
C    -0.896611  -2.173492  3.931614
H    -2.322679  -0.622626  4.380482
H    -3.433619  -2.862923  4.700342
H    -3.370607  -3.141027  2.952653
H    -4.358577  -1.816149  3.612167
H    -0.915352  -2.587601  4.948581
H    -0.022038  -1.515486  3.855879
H    -0.754553  -3.016338  3.237427
N    -4.230552  -0.455005  0.995968
C    -5.508609  0.128476  0.631534
H    -3.918269  -1.290425  0.516883
H    -5.526628  0.406775  -0.430757
H    -5.642400  1.029502  1.239179
H    -6.337484  -0.564573  0.833647
