28
Energy: -15633.3633912 eV PBE+vdW (tier 2 basis)
C    -0.263381  -0.110505  -0.518816
C    0.135244  -0.203129  0.946286
O    1.314263  -0.238632  1.289276
H    0.655181  -0.126632  -1.110946
H    -0.799445  0.826622  -0.729109
H    -0.907190  -0.942120  -0.831792
N    -0.867915  -0.248710  1.882559
C    -2.293685  -0.080519  1.692232
C    -2.776471  1.019470  2.655191
O    -2.207935  1.222936  3.726424
H    -0.547808  -0.143110  2.844621
H    -2.471052  0.235303  0.656080
C    -3.111342  -1.393758  1.931857
C    -2.838479  -2.411212  0.820767
C    -2.856041  -2.001117  3.315192
H    -4.175933  -1.107940  1.878476
H    -3.430744  -3.322750  0.977898
H    -1.779308  -2.704760  0.808563
H    -3.096112  -2.012869  -0.171104
H    -3.507235  -2.871521  3.470243
H    -3.045461  -1.285090  4.124651
H    -1.816773  -2.346000  3.407086
N    -3.891496  1.720588  2.293078
C    -4.583917  1.702898  1.014271
H    -4.164103  2.421488  2.975061
H    -5.436690  2.386884  1.075457
H    -4.978302  0.706451  0.770883
H    -3.943195  2.039768  0.184917
