28
Energy: -15633.4572848 eV PBE+vdW (tier 2 basis)
C    1.348538  0.708353  1.357240
C    0.537300  0.481403  2.618582
O    1.042448  0.535592  3.738706
H    0.769946  0.600297  0.431350
H    2.185247  -0.000841  1.342209
H    1.777386  1.717558  1.393373
N    -0.787649  0.196430  2.417796
C    -1.744592  0.035284  3.506323
C    -2.469373  -1.325380  3.389043
O    -3.681781  -1.412076  3.194476
H    -1.143482  0.197088  1.469195
H    -1.124240  0.017049  4.416173
C    -2.727680  1.224139  3.627861
C    -2.013087  2.443949  4.220543
C    -3.425250  1.580156  2.308923
H    -3.502897  0.889151  4.333880
H    -1.205316  2.795782  3.562295
H    -1.565119  2.218705  5.197703
H    -2.717020  3.276930  4.352415
H    -4.180440  2.358710  2.481159
H    -3.933714  0.710767  1.875758
H    -2.713986  1.988087  1.573959
N    -1.701942  -2.448549  3.524350
C    -0.273090  -2.575053  3.756085
H    -2.238209  -3.301790  3.397420
H    0.296397  -2.652742  2.816292
H    -0.085867  -3.477346  4.350950
H    0.118471  -1.716655  4.312942
