28
Energy: -15633.6220759 eV PBE+vdW (tier 2 basis)
C    -2.318547  -1.975570  0.736536
C    -1.460937  -1.202423  1.716165
O    -0.339543  -0.780358  1.407482
H    -3.290894  -2.278044  1.144054
H    -1.770653  -2.869550  0.413709
H    -2.482254  -1.353851  -0.152439
N    -2.001374  -0.999142  2.949751
C    -1.326491  -0.234224  3.997990
C    -0.336877  -1.151323  4.773223
O    -0.552794  -1.593655  5.901215
H    -2.884001  -1.441072  3.178877
H    -0.715205  0.509839  3.464704
C    -2.343796  0.531698  4.868717
C    -3.383955  -0.352340  5.573294
C    -1.619105  1.443108  5.867694
H    -2.882959  1.180488  4.156381
H    -4.095589  0.278741  6.123039
H    -2.903911  -1.037905  6.280230
H    -3.983840  -0.949306  4.868848
H    -1.094243  0.854267  6.630305
H    -2.338083  2.097449  6.378413
H    -0.883735  2.086299  5.363534
N    0.788984  -1.409157  4.053058
C    1.809075  -2.332198  4.509005
H    0.792124  -1.091278  3.080461
H    1.774426  -3.282314  3.954404
H    1.631101  -2.539351  5.569512
H    2.808075  -1.892830  4.388835
