28
Energy: -15633.2558779 eV PBE+vdW (tier 2 basis)
C    -1.070297  -0.119553  -0.108720
C    -0.800987  -0.511260  1.333933
O    0.082101  -1.304527  1.647670
H    -0.175178  0.369744  -0.512964
H    -1.929204  0.551549  -0.236107
H    -1.236955  -1.030324  -0.696803
N    -1.620137  0.069884  2.263764
C    -1.434407  -0.114480  3.696165
C    -1.696817  -1.531396  4.255202
O    -1.105452  -1.862404  5.282070
H    -2.314154  0.738065  1.950869
H    -0.366192  0.027329  3.915820
C    -2.232323  0.975464  4.465970
C    -3.753996  0.788156  4.387971
C    -1.770402  1.109035  5.920377
H    -1.976234  1.919234  3.951717
H    -4.265263  1.623321  4.884598
H    -4.065504  -0.138435  4.890087
H    -4.130068  0.751250  3.354849
H    -1.981167  0.198845  6.495228
H    -2.285861  1.951253  6.401998
H    -0.689355  1.288972  5.981215
N    -2.600074  -2.386379  3.682934
C    -3.367966  -2.320701  2.450053
H    -2.594669  -3.280526  4.164995
H    -4.110837  -3.126647  2.476165
H    -2.744551  -2.459634  1.554131
H    -3.914789  -1.376416  2.358711
