28
Energy: -15633.646147 eV PBE+vdW (tier 2 basis)
C    -0.343165  -0.173469  -0.475195
C    -0.081450  -0.366414  1.006955
O    0.980435  -0.821691  1.429658
H    -0.243005  -1.142852  -0.979006
H    0.428879  0.489245  -0.885421
H    -1.331249  0.247264  -0.698569
N    -1.102185  0.020455  1.832125
C    -1.073210  -0.194448  3.268496
C    -2.375777  -0.919675  3.634440
O    -3.462393  -0.521893  3.211138
H    -2.006670  0.271157  1.443617
H    -0.192482  -0.826429  3.463629
C    -0.930488  1.131577  4.065067
C    -0.975506  0.883239  5.576878
C    0.350145  1.869226  3.664191
H    -1.799526  1.754022  3.792151
H    -1.928478  0.443497  5.898858
H    -0.845239  1.826794  6.123122
H    -0.164588  0.208469  5.893160
H    1.242868  1.277705  3.912832
H    0.419945  2.829671  4.192784
H    0.379872  2.074858  2.587338
N    -2.232114  -2.003490  4.443915
C    -3.355692  -2.779536  4.933460
H    -1.294570  -2.258375  4.729727
H    -3.441388  -2.713317  6.027445
H    -3.260019  -3.835636  4.647245
H    -4.262950  -2.366956  4.479959
