28
Energy: -15633.5207913 eV PBE+vdW (tier 2 basis)
C    -0.525979  0.156031  -0.164695
C    -0.432316  0.389675  1.331592
O    0.461294  1.072528  1.834581
H    0.410095  -0.300970  -0.508748
H    -0.620218  1.126463  -0.667808
H    -1.367856  -0.482528  -0.458970
N    -1.410290  -0.201717  2.077249
C    -1.420833  -0.133042  3.526019
C    -1.992128  -1.470220  4.014196
O    -2.865560  -2.046516  3.358370
H    -2.088617  -0.835948  1.663885
H    -0.377509  0.011176  3.839372
C    -2.227965  1.105321  4.037730
C    -3.711832  1.054052  3.665304
C    -2.035634  1.355400  5.535807
H    -1.765487  1.946844  3.497257
H    -4.196191  2.006656  3.919763
H    -4.240506  0.253734  4.201480
H    -3.855188  0.884309  2.590609
H    -2.507754  2.304572  5.822823
H    -0.972972  1.422501  5.806730
H    -2.500367  0.566413  6.144912
N    -1.541820  -1.999329  5.187234
C    -0.428308  -1.599957  6.031119
H    -2.021862  -2.862826  5.426971
H    0.242022  -0.925444  5.490492
H    0.151027  -2.487342  6.317338
H    -0.762243  -1.089834  6.946386
