28
Energy: -15633.418043 eV PBE+vdW (tier 2 basis)
C    0.133739  -0.967535  -0.291804
C    -0.493958  -0.325064  0.932151
O    -0.701624  0.881173  1.004276
H    0.154703  -2.064232  -0.258192
H    1.162119  -0.596803  -0.390827
H    -0.418605  -0.645497  -1.182290
N    -0.816255  -1.197447  1.945042
C    -1.289993  -0.745801  3.250705
C    -0.389004  -1.373059  4.334327
O    0.503684  -0.740680  4.886214
H    -0.544574  -2.168520  1.844480
H    -1.086754  0.333460  3.282674
C    -2.807720  -0.966555  3.469550
C    -3.219757  -0.473651  4.862101
C    -3.630513  -0.279526  2.374677
H    -3.018131  -2.052316  3.404437
H    -4.290865  -0.643627  5.033272
H    -3.033540  0.605560  4.959926
H    -2.666928  -0.977499  5.666604
H    -3.451434  0.804206  2.373115
H    -4.703347  -0.450676  2.537114
H    -3.375267  -0.656755  1.376872
N    -0.618256  -2.704317  4.577276
C    0.124619  -3.442041  5.583484
H    -1.478572  -3.109136  4.225166
H    1.083957  -2.935833  5.732075
H    0.302732  -4.470507  5.245863
H    -0.402455  -3.469319  6.549710
