28
Energy: -15633.5682427 eV PBE+vdW (tier 2 basis)
C    1.126797  0.527883  0.541960
C    0.588562  0.390945  1.953697
O    1.326835  0.393467  2.937937
H    0.347224  0.513588  -0.229267
H    1.834609  -0.289264  0.355039
H    1.686706  1.468394  0.467279
N    -0.774486  0.290498  2.048163
C    -1.428159  -0.038802  3.298837
C    -2.415000  -1.177566  3.006204
O    -2.838589  -1.372746  1.863691
H    -1.318875  0.055495  1.220200
H    -0.632987  -0.370164  3.984097
C    -2.150261  1.178060  3.957249
C    -1.133692  2.245948  4.372498
C    -3.247123  1.763378  3.061944
H    -2.628429  0.794513  4.873948
H    -1.635532  3.064749  4.906173
H    -0.632615  2.675748  3.494512
H    -0.352819  1.832923  5.023786
H    -4.004933  1.017723  2.787867
H    -2.821273  2.165004  2.131690
H    -3.755623  2.590084  3.575851
N    -2.832693  -1.945536  4.051700
C    -2.418704  -1.899801  5.443283
H    -3.531069  -2.633433  3.785682
H    -3.063101  -1.248912  6.054389
H    -1.386574  -1.542752  5.529897
H    -2.454195  -2.912426  5.862697
