28
Energy: -15633.0896715 eV PBE+vdW (tier 2 basis)
C    0.857525  0.952763  0.244923
C    0.478064  0.928460  1.712134
O    1.098797  1.568978  2.559696
H    0.374904  0.166454  -0.348554
H    1.945367  0.857495  0.157541
H    0.574414  1.929788  -0.169497
N    -0.605565  0.156573  2.027218
C    -1.229995  0.169379  3.350932
C    -1.406179  1.646246  3.816326
O    -2.148261  2.348310  3.129362
H    -1.149061  -0.219595  1.261091
H    -2.283879  -0.081840  3.160128
C    -0.703624  -0.944873  4.301662
C    -1.472370  -2.246730  4.022360
C    0.803348  -1.214953  4.227485
H    -0.964581  -0.629513  5.324307
H    -1.141115  -3.050611  4.693708
H    -1.300301  -2.591601  2.991192
H    -2.554970  -2.117805  4.161120
H    1.092716  -1.940158  5.000322
H    1.408296  -0.313018  4.354866
H    1.068281  -1.649465  3.253464
N    -0.919026  2.122906  5.004434
C    0.312193  1.778325  5.707347
H    -1.218277  3.088383  5.115445
H    0.495517  2.557656  6.454965
H    1.166050  1.740550  5.018425
H    0.232148  0.824202  6.242461
