28
Energy: -15633.6097148 eV PBE+vdW (tier 2 basis)
C    0.114518  -0.689192  0.004948
C    -0.314000  -1.137796  1.389919
O    -0.226003  -2.303823  1.757367
H    -0.326796  -1.362110  -0.739272
H    1.205323  -0.787428  -0.072292
H    -0.163798  0.345502  -0.232333
N    -0.823671  -0.140805  2.195482
C    -1.075416  -0.343417  3.616160
C    -2.558633  -0.184137  4.015856
O    -2.888904  -0.121050  5.198365
H    -0.728757  0.815160  1.869179
H    -0.838329  -1.405147  3.794086
C    -0.163578  0.522043  4.516936
C    1.304526  0.113961  4.371241
C    -0.364137  2.024766  4.284493
H    -0.497905  0.296343  5.539969
H    1.446907  -0.954822  4.579422
H    1.935961  0.682816  5.066994
H    1.681122  0.306249  3.355221
H    -1.417462  2.315770  4.394300
H    -0.017056  2.342810  3.287741
H    0.216623  2.605395  5.013346
N    -3.441700  -0.149300  2.980979
C    -4.876688  -0.119292  3.178115
H    -3.059943  -0.269229  2.049390
H    -5.345342  -1.067180  2.875785
H    -5.335025  0.700332  2.608285
H    -5.060836  0.038581  4.246318
