28
Energy: -15633.2398134 eV PBE+vdW (tier 2 basis)
C    0.642141  0.766973  0.697842
C    0.072880  -0.234131  1.687405
O    0.782241  -0.851549  2.473428
H    1.250099  1.497304  1.244795
H    -0.118970  1.299903  0.113593
H    1.309807  0.234672  0.008432
N    -1.294105  -0.384205  1.637910
C    -2.000088  -1.390845  2.424299
C    -2.803294  -2.336323  1.506717
O    -2.505410  -3.524153  1.428825
H    -1.792186  0.116352  0.912837
H    -1.209515  -2.034216  2.834243
C    -2.796926  -0.805205  3.621301
C    -3.634676  -1.896133  4.298351
C    -1.843335  -0.137992  4.618125
H    -3.480888  -0.028011  3.243133
H    -4.172244  -1.486157  5.163596
H    -2.997011  -2.716765  4.657130
H    -4.378754  -2.334754  3.619102
H    -1.133639  -0.867748  5.031585
H    -2.406933  0.303133  5.451634
H    -1.256404  0.660861  4.147966
N    -3.826660  -1.832595  0.734674
C    -4.554108  -0.578422  0.842970
H    -4.276123  -2.569078  0.197264
H    -5.078714  -0.394721  -0.102117
H    -3.883568  0.272235  1.010835
H    -5.298356  -0.582795  1.655879
