28
Energy: -15633.4882303 eV PBE+vdW (tier 2 basis)
C    -2.329165  1.046179  -0.397500
C    -1.711391  -0.203718  0.195354
O    -1.069131  -1.010668  -0.471079
H    -2.045707  1.100170  -1.451417
H    -1.994330  1.955392  0.120458
H    -3.425574  1.018067  -0.321431
N    -1.893395  -0.403920  1.547740
C    -2.678500  0.398741  2.478618
C    -1.987691  1.725590  2.869843
O    -2.648540  2.724153  3.146635
H    -1.531195  -1.296889  1.872997
H    -3.624712  0.709220  2.008455
C    -3.023219  -0.469468  3.719989
C    -3.617916  0.341149  4.875297
C    -3.965863  -1.615312  3.325504
H    -2.068146  -0.903454  4.070562
H    -4.537684  0.857239  4.567528
H    -2.926490  1.104374  5.250399
H    -3.867877  -0.330714  5.707267
H    -4.129737  -2.288201  4.177463
H    -3.579422  -2.218537  2.493583
H    -4.945604  -1.218381  3.021628
N    -0.627762  1.674646  2.907778
C    0.192824  2.823339  3.236733
H    -0.189761  0.835828  2.541943
H    0.895293  2.584891  4.046681
H    -0.476288  3.625509  3.566143
H    0.763984  3.173774  2.364830
