28
Energy: -15633.6725407 eV PBE+vdW (tier 2 basis)
C    -0.581283  -1.965132  -0.189396
C    -0.378652  -1.310666  1.161313
O    0.725447  -0.889377  1.523338
H    -0.280342  -1.256235  -0.970745
H    -1.614463  -2.282892  -0.375655
H    0.081655  -2.835906  -0.264992
N    -1.490274  -1.205685  1.944728
C    -1.450911  -0.606767  3.278837
C    -1.032300  -1.707487  4.289372
O    -1.848592  -2.367540  4.930601
H    -2.339348  -1.680825  1.659494
H    -0.655463  0.153202  3.237384
C    -2.779573  0.067104  3.653263
C    -2.652700  0.755809  5.018103
C    -3.228878  1.068531  2.582345
H    -3.536170  -0.730121  3.749004
H    -3.604221  1.225977  5.299565
H    -1.888226  1.547161  4.989072
H    -2.385648  0.042665  5.806610
H    -4.180958  1.533214  2.871511
H    -3.372076  0.602876  1.598723
H    -2.489293  1.874201  2.460568
N    0.316846  -1.878466  4.350528
C    0.927499  -2.955553  5.105531
H    0.863746  -1.400404  3.633223
H    1.819552  -2.594077  5.632634
H    1.217421  -3.796672  4.457031
H    0.196208  -3.316937  5.836011
