28
Energy: -15633.3981515 eV PBE+vdW (tier 2 basis)
C    -0.494537  -0.273868  0.142881
C    -0.737556  -0.402537  1.636695
O    -0.303667  -1.345829  2.291449
H    0.585770  -0.311314  -0.042052
H    -0.900290  0.645547  -0.297561
H    -0.942821  -1.139401  -0.361040
N    -1.465976  0.616127  2.200227
C    -1.932820  0.561967  3.588552
C    -3.137480  1.493400  3.782860
O    -4.138103  1.133482  4.393554
H    -1.942705  1.253640  1.572925
H    -2.316846  -0.448983  3.785683
C    -0.783259  0.808829  4.615052
C    -0.068931  2.153435  4.449088
C    -1.281638  0.604103  6.048097
H    -0.058525  0.012956  4.387892
H    0.848550  2.169455  5.052306
H    -0.688085  2.997470  4.789248
H    0.229198  2.329932  3.405253
H    -0.441476  0.650995  6.753813
H    -1.769207  -0.372349  6.168031
H    -2.010328  1.373007  6.342434
N    -3.027671  2.739815  3.215996
C    -4.060032  3.746031  3.401711
H    -2.104285  3.056079  2.940241
H    -4.031044  4.461454  2.571819
H    -3.943894  4.291123  4.351296
H    -5.033665  3.245797  3.417920
