28
Energy: -15633.3004348 eV PBE+vdW (tier 2 basis)
C    -2.454220  -1.242386  -0.310064
C    -1.202927  -0.901896  0.475759
O    -0.114550  -1.410276  0.217210
H    -3.050830  -1.986125  0.236190
H    -2.143783  -1.683663  -1.260991
H    -3.096651  -0.372776  -0.499614
N    -1.318388  -0.005736  1.514423
C    -2.482358  0.777173  1.930561
C    -2.031365  2.082419  2.613840
O    -2.508205  3.165182  2.288663
H    -0.416055  0.234139  1.915060
H    -3.015867  1.135596  1.039324
C    -3.510690  -0.036951  2.778458
C    -2.916514  -0.695183  4.027462
C    -4.739885  0.813563  3.112282
H    -3.839243  -0.849338  2.110309
H    -2.700756  0.040870  4.815908
H    -1.995778  -1.249146  3.795642
H    -3.629929  -1.413768  4.452135
H    -4.490136  1.631386  3.802868
H    -5.514644  0.198342  3.588810
H    -5.173825  1.269729  2.212336
N    -1.071532  1.954847  3.581478
C    -0.575903  3.098366  4.327880
H    -0.844174  1.028306  3.923573
H    -0.715739  3.992558  3.712247
H    0.490437  2.968628  4.548014
H    -1.122492  3.243138  5.272239
