28
Energy: -15633.6529652 eV PBE+vdW (tier 2 basis)
C    -2.433828  -2.003007  0.512138
C    -1.739147  -1.049415  1.466505
O    -1.242122  0.012457  1.088194
H    -1.726913  -2.288205  -0.276803
H    -3.266231  -1.475397  0.030015
H    -2.817404  -2.909204  0.996616
N    -1.711927  -1.445727  2.771737
C    -1.016603  -0.691067  3.793649
C    -0.559709  -1.711957  4.847424
O    -1.146350  -2.785875  4.997285
H    -2.028857  -2.368793  3.059804
H    -0.144863  -0.211799  3.319231
C    -1.910508  0.450366  4.378539
C    -3.096756  -0.082529  5.185378
C    -1.103422  1.484239  5.169308
H    -2.297114  0.954658  3.479199
H    -3.774344  0.738268  5.456667
H    -2.769768  -0.567335  6.116759
H    -3.675693  -0.818844  4.613170
H    -0.743280  1.082698  6.127927
H    -1.728748  2.356251  5.403063
H    -0.238737  1.848314  4.594748
N    0.509207  -1.334324  5.598764
C    1.040401  -2.141204  6.681351
H    0.955823  -0.451841  5.381397
H    2.081135  -2.433602  6.484852
H    0.425764  -3.044248  6.752792
H    0.996993  -1.600876  7.637290
