28
Energy: -15633.3040077 eV PBE+vdW (tier 2 basis)
C    0.020147  -0.395993  0.571214
C    -0.484436  -0.558583  1.991610
O    0.205849  -1.098435  2.852081
H    -0.488452  0.366856  -0.024126
H    -0.089834  -1.361126  0.056816
H    1.090009  -0.169391  0.621244
N    -1.778382  -0.174678  2.303631
C    -2.707921  0.737605  1.623547
C    -2.958005  0.330866  0.148525
O    -3.056032  1.145129  -0.765651
H    -1.958935  -0.319498  3.294748
H    -3.679913  0.544744  2.110406
C    -2.417694  2.241339  1.882856
C    -1.139201  2.786593  1.238304
C    -3.637021  3.113527  1.551109
H    -2.273552  2.289835  2.977090
H    -0.998459  3.835849  1.531754
H    -1.195147  2.749265  0.143387
H    -0.244985  2.241530  1.567133
H    -4.550128  2.726788  2.027559
H    -3.810611  3.158166  0.469994
H    -3.480914  4.136305  1.919877
N    -3.133388  -1.011138  -0.021613
C    -3.347803  -1.610873  -1.323252
H    -2.929643  -1.608046  0.772860
H    -4.155189  -2.352879  -1.277907
H    -2.437333  -2.100099  -1.702598
H    -3.629163  -0.813123  -2.018534
