33
Energy: -244918.06048 eV PBE+vdW (tier 2 basis)
C    -0.170310  1.736790  0.747373
C    0.028989  0.809444  1.902841
O    1.153542  0.749972  2.490471
H    -1.099751  2.308803  0.846888
H    -0.228400  1.176011  -0.198501
H    0.679216  2.423148  0.690876
N    -0.970941  0.010915  2.346548
C    -1.881533  -0.767336  1.494042
C    -1.015874  -1.715182  0.614370
O    0.241380  -1.822180  0.822429
H    -0.742398  -0.440779  3.230997
H    -2.422668  -1.422689  2.193586
C    -2.965104  0.049897  0.741976
C    -4.115471  -0.805892  0.248982
C    -4.952506  -1.478190  1.153572
C    -4.366108  -0.929585  -1.127531
C    -6.005567  -2.265640  0.691188
C    -5.423667  -1.718856  -1.589961
C    -6.239655  -2.391924  -0.681225
H    -2.528167  0.590861  -0.105993
H    -3.332431  0.802523  1.454887
H    -4.805642  -1.366130  2.230236
H    -3.750947  -0.379641  -1.843018
H    -6.656221  -2.771069  1.403658
H    -5.616828  -1.792330  -2.659485
H    -7.068144  -3.001834  -1.038557
N    -1.627540  -2.422757  -0.311664
C    -0.974302  -3.399481  -1.182438
H    -2.633214  -2.246887  -0.443317
H    -1.726945  -3.805290  -1.863189
H    -0.549456  -4.218799  -0.589932
H    -0.178275  -2.925578  -1.769255
Ba    2.383939  -1.304315  1.905144
