33
Energy: -244918.022731 eV PBE+vdW (tier 2 basis)
C    -0.394685  -0.070005  -0.235536
C    -0.432690  0.006812  1.254476
O    0.553611  0.487106  1.908085
H    -1.318664  -0.467000  -0.668616
H    0.443675  -0.712710  -0.539219
H    -0.203187  0.928437  -0.649991
N    -1.506191  -0.442453  1.906486
C    -1.576395  -0.484289  3.368413
C    -2.356516  -1.663938  4.002822
O    -1.824611  -2.175008  4.985071
H    -2.269672  -0.825733  1.355403
H    -0.556264  -0.718552  3.692278
C    -1.990855  0.881282  4.005247
C    -0.889446  1.525823  4.813588
C    -0.183458  0.783280  5.786555
C    -0.558301  2.884163  4.640134
C    0.815816  1.388008  6.563939
C    0.442584  3.490144  5.417773
C    1.136005  2.743122  6.381820
H    -2.851153  0.721088  4.672686
H    -2.333712  1.566343  3.219891
H    -0.446719  -0.264527  5.959216
H    -1.108931  3.484918  3.914054
H    1.320268  0.807505  7.337236
H    0.656650  4.552096  5.291057
H    1.887635  3.220271  7.010746
N    -3.566279  -2.038152  3.527697
C    -4.386558  -1.430208  2.486902
H    -3.967125  -2.822836  4.038446
H    -5.441183  -1.615608  2.715885
H    -4.193296  -1.861516  1.490761
H    -4.260917  -0.340304  2.456957
Ba    2.012398  1.400397  3.585327
