33
Energy: -244918.176496 eV PBE+vdW (tier 2 basis)
C    -0.704029  -0.774225  0.164524
C    -0.274266  -0.457143  1.561030
O    0.923621  -0.653795  1.933008
H    -0.519046  0.086029  -0.498203
H    -1.765000  -1.036753  0.096442
H    -0.094496  -1.606397  -0.204736
N    -1.156775  0.061528  2.443224
C    -2.125723  1.093271  2.089492
C    -1.335510  2.412436  1.826628
O    -0.058697  2.422862  1.901404
H    -0.808954  0.108193  3.401761
H    -2.605478  0.808474  1.142192
C    -3.218478  1.203603  3.183089
C    -4.342198  2.159942  2.848308
C    -4.560779  3.301754  3.634089
C    -5.186154  1.920032  1.750372
C    -5.596150  4.187587  3.328027
C    -6.216315  2.808916  1.441605
C    -6.420923  3.945377  2.228496
H    -2.750292  1.501602  4.133783
H    -3.611917  0.185941  3.324506
H    -3.928278  3.489965  4.503447
H    -5.061832  1.019137  1.145328
H    -5.764999  5.061094  3.956566
H    -6.871486  2.605153  0.595647
H    -7.232123  4.632560  1.992089
N    -2.042317  3.478468  1.513902
C    -1.523910  4.815447  1.239757
H    -3.062677  3.368619  1.558815
H    -1.923792  5.519975  1.979224
H    -1.843434  5.133390  0.240114
H    -0.433379  4.807983  1.291742
Ba    2.172787  1.450975  2.228332
