33
Energy: -244918.369114 eV PBE+vdW (tier 2 basis)
C    -0.158722  1.696705  1.203516
C    -0.239065  0.511920  2.118560
O    0.789830  -0.216524  2.301571
H    0.279692  1.403611  0.241769
H    0.525465  2.430089  1.654926
H    -1.126282  2.179588  1.031581
N    -1.415601  0.277107  2.699884
C    -1.854127  -0.585451  3.800883
C    -1.184883  -1.936467  3.957532
O    -0.696108  -2.591594  2.982849
H    -2.171421  0.926781  2.447372
H    -1.709744  -0.018500  4.733716
C    -3.399140  -0.814838  3.616783
C    -4.131501  0.492390  3.437998
C    -4.518087  0.918281  2.156420
C    -4.403162  1.316540  4.540880
C    -5.164989  2.145215  1.982886
C    -5.048874  2.538909  4.365960
C    -5.426468  2.956836  3.086460
H    -3.773251  -1.353179  4.496627
H    -3.546068  -1.467789  2.745403
H    -4.355074  0.267202  1.294638
H    -4.130473  0.993267  5.547745
H    -5.480739  2.455612  0.987623
H    -5.270409  3.163284  5.230527
H    -5.938398  3.909000  2.954270
N    -1.195120  -2.483871  5.173893
C    -1.695216  -1.934735  6.438815
H    -0.876994  -3.451255  5.195460
H    -1.335351  -0.911481  6.593933
H    -1.309408  -2.556801  7.251362
H    -2.791510  -1.951073  6.480426
Ba    1.405197  -2.474776  1.757730
