33
Energy: -244918.658124 eV PBE+vdW (tier 2 basis)
C    -2.140127  -3.006275  0.802324
C    -1.550300  -2.038459  1.775590
O    -0.467212  -1.429606  1.506567
H    -3.059594  -3.476317  1.165341
H    -1.404339  -3.785333  0.564196
H    -2.356736  -2.471669  -0.133242
N    -2.194834  -1.826771  2.927562
C    -1.915786  -0.752125  3.893214
C    -0.671734  -1.076769  4.748197
O    0.483634  -0.811455  4.289594
H    -3.129505  -2.234798  3.005565
H    -1.641549  0.146659  3.318406
C    -3.208623  -0.448683  4.688360
C    -4.392786  -0.246241  3.771280
C    -5.331061  -1.275418  3.601460
C    -4.546020  0.943505  3.046768
C    -6.399636  -1.122325  2.714158
C    -5.614695  1.096983  2.164380
C    -6.538835  0.062701  1.992077
H    -3.024220  0.438340  5.310065
H    -3.444532  -1.281677  5.371046
H    -5.259749  -2.186094  4.202795
H    -3.845868  1.768861  3.192381
H    -7.133314  -1.920081  2.605361
H    -5.737978  2.032922  1.620773
H    -7.378169  0.190410  1.309934
N    -0.840624  -1.607735  5.946554
C    0.229583  -1.960786  6.879017
H    -1.796460  -1.775498  6.250897
H    0.420609  -3.041281  6.847659
H    -0.076437  -1.682301  7.892760
H    1.139120  -1.418931  6.609329
Ba    1.653774  -0.513751  2.169631
