33
Energy: -244918.762524 eV PBE+vdW (tier 2 basis)
C    -1.160055  -1.120969  -0.241403
C    -0.858196  -0.722802  1.166606
O    0.343272  -0.559576  1.551903
H    -0.788913  -0.335850  -0.915359
H    -2.228378  -1.272815  -0.426340
H    -0.614184  -2.040101  -0.490334
N    -1.878562  -0.529797  2.007712
C    -1.765505  -0.026897  3.380971
C    -1.284848  -1.165574  4.305126
O    -0.032329  -1.305579  4.492986
H    -2.831218  -0.705882  1.677659
H    -0.944771  0.704813  3.391676
C    -3.059993  0.727363  3.793003
C    -4.359450  -0.026129  3.614256
C    -4.996799  -0.639177  4.707414
C    -4.970282  -0.115298  2.350422
C    -6.180963  -1.360655  4.532709
C    -6.150093  -0.841410  2.175356
C    -6.749423  -1.477944  3.263584
H    -3.079553  1.649060  3.193843
H    -2.937129  1.041656  4.838455
H    -4.599329  -0.499383  5.715939
H    -4.568151  0.451953  1.505908
H    -6.673016  -1.809389  5.394990
H    -6.618170  -0.884856  1.192548
H    -7.676774  -2.032832  3.129381
N    -2.171004  -1.978402  4.844238
C    -1.849033  -3.102934  5.721194
H    -3.161597  -1.788147  4.648783
H    -2.721465  -3.316020  6.345632
H    -0.996790  -2.849013  6.358878
H    -1.608622  -3.997301  5.131366
Ba    2.029220  -0.897936  3.254635
