33
Energy: -244918.321786 eV PBE+vdW (tier 2 basis)
C    0.152224  0.492365  -0.100579
C    -0.310600  0.154416  1.279454
O    0.242333  0.711788  2.297695
H    0.119153  1.579229  -0.250047
H    -0.442700  0.002718  -0.877793
H    1.201057  0.180857  -0.208518
N    -1.278103  -0.727295  1.427071
C    -1.813848  -1.305307  2.652395
C    -2.501700  -2.610347  2.128670
O    -2.745718  -2.685010  0.923503
H    -1.703423  -1.218124  0.613386
H    -0.990770  -1.542412  3.342045
C    -2.873864  -0.398874  3.339404
C    -2.371377  0.657288  4.295406
C    -1.741018  0.300046  5.506721
C    -2.624041  2.023885  4.065145
C    -1.422027  1.265619  6.473624
C    -2.305079  2.995611  5.027998
C    -1.711620  2.620071  6.242760
H    -3.558936  -1.046147  3.906507
H    -3.484046  0.062042  2.552084
H    -1.555853  -0.752004  5.730260
H    -3.127226  2.328163  3.146200
H    -0.991986  0.954298  7.426359
H    -2.563764  4.039485  4.846235
H    -1.516133  3.364583  7.014678
N    -2.816596  -3.571806  3.015862
C    -2.499467  -3.639634  4.436581
H    -3.299478  -4.365794  2.600243
H    -2.631011  -4.673555  4.769033
H    -3.163307  -3.008316  5.046026
H    -1.452666  -3.368808  4.629144
Ba    0.617597  2.068977  4.175190
