33
Energy: -244918.409795 eV PBE+vdW (tier 2 basis)
C    -0.667525  -0.178222  -0.221973
C    -0.372331  -0.217931  1.240037
O    0.674805  -0.789931  1.683891
H    0.144329  0.356990  -0.734242
H    -1.618649  0.311098  -0.455051
H    -0.677176  -1.201019  -0.621134
N    -1.221549  0.367138  2.093565
C    -0.947776  0.442477  3.527317
C    -1.004086  -0.956985  4.173019
O    0.091043  -1.395207  4.669948
H    -2.067297  0.818279  1.742092
H    0.114872  0.708111  3.624336
C    -1.710431  1.594543  4.237379
C    -3.212261  1.604621  4.138000
C    -3.999057  1.164101  5.210227
C    -3.850232  2.060435  2.971590
C    -5.389851  1.138468  5.105276
C    -5.241572  2.020014  2.859140
C    -6.012216  1.548258  3.923540
H    -1.295501  2.522415  3.814998
H    -1.397209  1.571459  5.290438
H    -3.520868  0.850875  6.140046
H    -3.266972  2.517547  2.166175
H    -5.991789  0.811380  5.952472
H    -5.725282  2.386820  1.954677
H    -7.098279  1.531619  3.844150
N    -2.078618  -1.731853  4.197717
C    -3.403285  -1.598843  3.587114
H    -1.916537  -2.613217  4.687460
H    -4.172324  -1.648080  4.365301
H    -3.549349  -2.428519  2.883706
H    -3.509592  -0.645951  3.068882
Ba    2.137564  -1.765890  3.382907
