33
Energy: -244918.049568 eV PBE+vdW (tier 2 basis)
C    0.439638  0.759835  1.760095
C    -0.101054  -0.509955  2.335954
O    0.403096  -1.014335  3.388093
H    -0.033023  1.633079  2.237545
H    0.284483  0.834468  0.678464
H    1.511116  0.811344  1.984955
N    -1.166348  -1.116217  1.772431
C    -2.280745  -0.419460  1.155611
C    -2.899347  0.525540  2.210762
O    -2.664768  0.352545  3.448968
H    -1.315973  -2.109499  1.977934
H    -1.937746  0.159739  0.285656
C    -3.350330  -1.464021  0.690855
C    -2.713578  -2.670396  0.052084
C    -2.176615  -2.604747  -1.241332
C    -2.610096  -3.869625  0.774715
C    -1.546876  -3.716184  -1.797910
C    -1.975460  -4.982671  0.217201
C    -1.439793  -4.903786  -1.067976
H    -4.037546  -0.956465  0.000855
H    -3.946378  -1.772850  1.562741
H    -2.267796  -1.688634  -1.828041
H    -3.083531  -3.954931  1.756928
H    -1.147062  -3.661391  -2.809622
H    -1.920154  -5.915647  0.776632
H    -0.953523  -5.772067  -1.510271
N    -3.713264  1.475781  1.783067
C    -4.455634  2.391529  2.654610
H    -3.850069  1.567561  0.779549
H    -3.763417  3.014969  3.232892
H    -5.097916  1.827809  3.340959
H    -5.077654  3.035613  2.028108
Ba    -1.276930  -0.776157  5.179089
