33
Energy: -244918.43086 eV PBE+vdW (tier 2 basis)
C    1.291404  -1.164651  2.135803
C    0.020956  -0.379182  2.260404
O    0.014320  0.713798  2.915478
H    1.999703  -0.573466  1.536853
H    1.154157  -2.138841  1.655134
H    1.749724  -1.304642  3.122454
N    -1.061979  -0.884070  1.669137
C    -2.384048  -0.342839  1.345823
C    -3.037812  0.588143  2.360544
O    -2.788372  0.571957  3.603746
H    -0.926083  -1.783896  1.189545
H    -2.286894  0.211842  0.396938
C    -3.333938  -1.569665  1.092120
C    -2.715792  -2.565840  0.142101
C    -2.701032  -2.322304  -1.240049
C    -2.111264  -3.734412  0.635094
C    -2.096550  -3.227998  -2.109549
C    -1.504350  -4.641124  -0.238675
C    -1.493488  -4.386001  -1.609787
H    -4.280308  -1.183513  0.690961
H    -3.555005  -2.041682  2.059725
H    -3.185225  -1.431391  -1.645412
H    -2.155259  -3.960622  1.702862
H    -2.106255  -3.037936  -3.182025
H    -1.058745  -5.555173  0.151933
H    -1.029663  -5.096057  -2.293066
N    -3.978672  1.383159  1.856471
C    -4.870606  2.232282  2.643839
H    -4.119312  1.372496  0.849384
H    -5.006462  1.798328  3.638701
H    -5.841795  2.285006  2.141871
H    -4.468997  3.250966  2.730483
Ba    -0.975358  1.463328  4.970160
