33
Energy: -244918.051998 eV PBE+vdW (tier 2 basis)
C    -1.189708  0.477041  -0.206004
C    -1.025977  0.312687  1.269701
O    0.127968  0.394799  1.810247
H    -0.592748  -0.289208  -0.719795
H    -0.794913  1.454276  -0.513949
H    -2.230950  0.395528  -0.534800
N    -2.098921  0.068116  2.017457
C    -2.077833  -0.147537  3.468458
C    -3.360111  -0.940734  3.899502
O    -4.113341  -0.457100  4.733432
H    -3.002681  0.034545  1.549430
H    -1.196462  -0.772959  3.680831
C    -2.003523  1.175149  4.263503
C    -0.670697  1.534143  4.852967
C    0.055517  0.622186  5.652875
C    -0.137629  2.832338  4.697176
C    1.252821  0.996621  6.280384
C    1.056443  3.214018  5.330184
C    1.762163  2.295839  6.122201
H    -2.744909  1.061809  5.077551
H    -2.377947  1.997173  3.641205
H    -0.346460  -0.374990  5.839978
H    -0.690525  3.568709  4.111462
H    1.766530  0.285648  6.928489
H    1.416947  4.238446  5.229101
H    2.668500  2.599886  6.645536
N    -3.575285  -2.143596  3.311222
C    -2.711913  -2.920980  2.429585
H    -4.440747  -2.583200  3.618647
H    -1.652109  -2.731336  2.639536
H    -2.908351  -2.722628  1.365908
H    -2.892954  -3.985391  2.612485
Ba    1.970804  1.082702  3.182498
