33
Energy: -244918.179132 eV PBE+vdW (tier 2 basis)
C    -0.745538  -0.693933  0.006539
C    -0.294415  -0.424933  1.406498
O    0.907086  -0.645207  1.753711
H    -0.505509  0.160229  -0.645886
H    -1.819503  -0.893224  -0.066191
H    -0.186341  -1.556721  -0.373687
N    -1.160828  0.066931  2.319397
C    -2.118371  1.126696  2.016427
C    -1.311037  2.452756  1.877503
O    -0.032401  2.433541  1.878293
H    -0.797666  0.074379  3.273528
H    -2.558356  0.919117  1.030133
C    -3.258407  1.159540  3.064030
C    -4.400960  2.087033  2.707370
C    -4.683109  3.210012  3.501760
C    -5.204206  1.832835  1.583179
C    -5.739527  4.064866  3.175144
C    -6.255067  2.688477  1.255961
C    -6.522261  3.807861  2.049391
H    -2.845654  1.435125  4.046373
H    -3.623643  0.125427  3.148915
H    -4.088168  3.404471  4.396304
H    -5.030803  0.944742  0.971240
H    -5.957770  4.922665  3.810127
H    -6.878406  2.473249  0.388977
H    -7.349927  4.469231  1.796858
N    -1.989452  3.571773  1.738383
C    -1.391339  4.896947  1.579255
H    -3.010461  3.506294  1.836006
H    -0.721531  4.911635  0.711827
H    -0.828903  5.181370  2.477429
H    -2.197441  5.617697  1.420454
Ba    2.198555  1.426875  2.087185
