33
Energy: -244919.256942 eV PBE+vdW (tier 2 basis)
C    0.189123  0.575822  0.853788
C    -0.661428  0.912950  2.040385
O    -0.358816  0.497551  3.186387
H    1.193271  0.993806  1.010856
H    -0.206179  0.949868  -0.096328
H    0.305288  -0.513982  0.792930
N    -1.750954  1.679860  1.821414
C    -2.731742  2.206962  2.791692
C    -2.048426  2.867783  4.005866
O    -1.825597  2.227980  5.068761
H    -1.912485  1.949949  0.855473
H    -3.225660  3.017527  2.240609
C    -3.894072  1.246086  3.162586
C    -3.642737  -0.001310  3.979993
C    -4.061432  -0.064489  5.324048
C    -3.073721  -1.155937  3.410271
C    -3.894351  -1.231527  6.082081
C    -2.890703  -2.320995  4.166974
C    -3.296687  -2.362918  5.508434
H    -4.358734  0.951879  2.209546
H    -4.642528  1.861734  3.681187
H    -4.539272  0.804528  5.777560
H    -2.792833  -1.158351  2.357145
H    -4.257725  -1.266013  7.109326
H    -2.467188  -3.209060  3.698052
H    -3.190544  -3.281123  6.085603
N    -1.724626  4.156686  3.913772
C    -1.911175  5.072970  2.784607
H    -1.307384  4.543313  4.759649
H    -2.975188  5.260879  2.590150
H    -1.421861  4.695274  1.878930
H    -1.444235  6.026837  3.045051
Ba    -0.924614  -0.054398  5.539495
