33
Energy: -244918.511161 eV PBE+vdW (tier 2 basis)
C    -0.628735  2.598787  1.809006
C    -1.043362  1.184670  1.557459
O    -0.704367  0.600378  0.484694
H    -0.794373  2.925375  2.840935
H    -1.216294  3.247227  1.141554
H    0.427049  2.730788  1.546172
N    -1.788211  0.578553  2.493202
C    -2.547101  -0.685222  2.406571
C    -1.640026  -1.920579  2.412286
O    -0.947053  -2.225427  1.391155
H    -2.036136  1.163517  3.286016
H    -3.139632  -0.696838  3.327539
C    -3.563321  -0.727990  1.233288
C    -4.497798  0.456428  1.260919
C    -5.582084  0.481830  2.149061
C    -4.275664  1.559301  0.426132
C    -6.423245  1.592770  2.204541
C    -5.118746  2.670395  0.478525
C    -6.190510  2.689879  1.372151
H    -4.119235  -1.673346  1.323151
H    -3.036680  -0.762288  0.268415
H    -5.790664  -0.380632  2.786121
H    -3.453023  1.542519  -0.292687
H    -7.271539  1.596183  2.887725
H    -4.948575  3.515431  -0.187699
H    -6.853969  3.552708  1.409709
N    -1.626506  -2.711376  3.477162
C    -2.338063  -2.556441  4.752576
H    -1.043365  -3.542099  3.375702
H    -2.001443  -3.353478  5.421119
H    -3.422128  -2.657904  4.619299
H    -2.101851  -1.596168  5.225125
Ba    -0.076808  -1.387076  -0.718587
