33
Energy: -244918.603904 eV PBE+vdW (tier 2 basis)
C    -0.475078  -0.647063  0.089080
C    -0.751071  0.116158  1.344139
O    -0.286452  -0.287434  2.453560
H    -0.755300  -0.106414  -0.820913
H    -1.052737  -1.582943  0.128661
H    0.585590  -0.919838  0.043281
N    -1.507587  1.218199  1.251551
C    -2.143599  2.003015  2.329390
C    -1.134217  2.831989  3.136353
O    -0.341933  2.290038  3.965052
H    -1.858158  1.420938  0.319668
H    -2.795073  2.704844  1.792354
C    -3.068816  1.162388  3.249196
C    -4.088154  0.380009  2.457671
C    -5.224327  1.018140  1.940736
C    -3.896376  -0.983358  2.199541
C    -6.145918  0.305841  1.173675
C    -4.820073  -1.698095  1.435281
C    -5.943244  -1.051954  0.916871
H    -3.556754  1.863885  3.942365
H    -2.473265  0.472654  3.865268
H    -5.408666  2.072904  2.156595
H    -3.031921  -1.502086  2.620833
H    -7.032376  0.807966  0.788346
H    -4.671434  -2.762373  1.256098
H    -6.669010  -1.609126  0.326239
N    -1.165266  4.147494  2.976839
C    -0.322434  5.092952  3.711352
H    -1.809755  4.529889  2.290530
H    0.686207  5.126703  3.279854
H    -0.257766  4.793088  4.762196
H    -0.773900  6.086557  3.644038
Ba    0.587920  0.143739  4.650347
