33
Energy: -244918.429918 eV PBE+vdW (tier 2 basis)
C    -0.690068  -3.425542  0.275287
C    -0.817339  -2.212701  1.136143
O    0.111743  -1.349595  1.192883
H    -0.562033  -3.106984  -0.768757
H    -1.553147  -4.095996  0.339877
H    0.217601  -3.976899  0.554413
N    -1.940033  -2.037253  1.851224
C    -2.216693  -0.810682  2.610311
C    -1.341288  -0.728439  3.881198
O    -0.357090  0.080388  3.863324
H    -2.688454  -2.717420  1.741147
H    -1.850071  0.023823  1.995851
C    -3.721270  -0.553743  2.821240
C    -3.933999  0.809736  3.444302
C    -4.199290  0.946035  4.811909
C    -3.843264  1.963488  2.651647
C    -4.361616  2.210467  5.381258
C    -4.005940  3.227231  3.218562
C    -4.259925  3.352430  4.586553
H    -4.185264  -1.337165  3.433236
H    -4.196179  -0.599213  1.829273
H    -4.318440  0.060233  5.438042
H    -3.690166  1.874680  1.573074
H    -4.587507  2.301927  6.442928
H    -3.962426  4.114947  2.588420
H    -4.402146  4.338219  5.027237
N    -1.548523  -1.477021  4.954520
C    -2.549894  -2.511733  5.214913
H    -0.908470  -1.272862  5.722483
H    -2.843175  -3.019706  4.293299
H    -3.436785  -2.089135  5.703037
H    -2.103931  -3.254831  5.884058
Ba    1.356078  0.504317  2.186107
