33
Energy: -244918.488203 eV PBE+vdW (tier 2 basis)
C    -2.927800  -1.905151  0.629244
C    -1.862780  -1.394501  1.541500
O    -0.636607  -1.430728  1.201098
H    -2.737690  -2.963094  0.403113
H    -2.873791  -1.359318  -0.322616
H    -3.934408  -1.801521  1.046446
N    -2.217363  -0.892757  2.729238
C    -1.279628  -0.198455  3.616467
C    -0.218783  -1.159831  4.179989
O    0.976925  -1.043053  3.750454
H    -3.210231  -0.696866  2.898878
H    -0.702893  0.504905  2.996138
C    -2.039912  0.644811  4.679408
C    -3.188119  1.396363  4.050040
C    -2.971556  2.581045  3.333175
C    -4.490699  0.876507  4.130802
C    -4.035337  3.232178  2.709551
C    -5.555635  1.527607  3.501730
C    -5.326767  2.703243  2.786888
H    -1.309083  1.329554  5.130187
H    -2.417122  0.007738  5.486792
H    -1.971424  3.016964  3.287408
H    -4.687432  -0.012679  4.735856
H    -3.860952  4.164797  2.174270
H    -6.565005  1.127690  3.590391
H    -6.156705  3.219848  2.306841
N    -0.498546  -2.092861  5.080671
C    -1.774903  -2.481783  5.686176
H    0.320726  -2.611039  5.399113
H    -1.754723  -3.563838  5.854113
H    -2.609782  -2.255312  5.019168
H    -1.919466  -1.981531  6.652063
Ba    1.765492  -1.203927  1.444411
