31
Energy: -244761.327408 eV PBE+vdW (tier 2 basis)
C    -1.03216  2.38437  1.76405
C    -0.57460  1.04295  2.24228
O    0.65271  0.75699  2.30021
H    -0.65999  3.15732  2.45217
H    -2.12004  2.48369  1.68547
H    -0.57595  2.59248  0.78640
N    -1.52857  0.15295  2.60631
C    -1.36402  -1.22493  3.11008
C    -0.49247  -1.28017  4.38855
O    0.77309  -1.26440  4.31643
H    -2.48379  0.49962  2.57362
H    -2.37556  -1.53508  3.39543
C    -0.85051  -2.23670  2.03903
C    -1.89997  -2.78326  1.11804
N    -2.32032  -2.18304  -0.06740
C    -2.60513  -3.95962  1.19655
C    -3.22916  -2.95153  -0.68428
N    -3.41098  -4.02967  0.08081
H    -0.41041  -3.09477  2.56483
H    -0.03528  -1.78447  1.45878
H    -1.97009  -1.31396  -0.46199
H    -2.58180  -4.75263  1.93473
H    -3.71824  -2.74053  -1.62994
H    -4.04348  -4.79732  -0.14766
N    -1.10094  -1.37452  5.56325
C    -2.53797  -1.39527  5.87819
H    -0.46504  -1.45578  6.35826
H    -2.64084  -1.34826  6.96621
H    -3.00820  -2.32556  5.53542
H    -3.05140  -0.52405  5.45561
Ba    2.70114  0.02617  3.47457
