31
Energy: -244761.031007 eV PBE+vdW (tier 2 basis)
C    -1.38082  3.31843  0.44997
C    -0.72687  2.34310  1.36936
O    0.18723  2.69606  2.15886
H    -1.94797  2.84829  -0.35902
H    -0.59781  3.95880  0.02043
H    -2.04858  3.98939  1.01251
N    -1.10226  1.02115  1.35470
C    -2.50834  0.62973  1.45932
C    -2.97155  0.94202  2.93058
O    -2.14604  1.44661  3.74994
H    -0.50281  0.47078  1.97373
H    -3.10011  1.27343  0.79188
C    -2.70765  -0.85473  1.04479
C    -2.63723  -1.14368  -0.42500
N    -1.46206  -1.23802  -1.16643
C    -3.64606  -1.45458  -1.30309
C    -1.73451  -1.59138  -2.42968
N    -3.05999  -1.72052  -2.52149
H    -3.69148  -1.20160  1.38566
H    -1.98206  -1.48333  1.58565
H    -0.51734  -1.09555  -0.81852
H    -4.71692  -1.53109  -1.15621
H    -1.01389  -1.74917  -3.22560
H    -3.55455  -1.99628  -3.37047
N    -4.22767  0.69413  3.25875
C    -4.81668  0.94598  4.58188
H    -4.85759  0.34298  2.54184
H    -4.13361  0.60181  5.36466
H    -5.75493  0.38902  4.65404
H    -5.02585  2.01548  4.71175
Ba    -0.16704  2.75876  4.63721
