31
Energy: -244761.745027 eV PBE+vdW (tier 2 basis)
C    -1.68209  -2.88231  1.49733
C    -1.37821  -1.57245  2.14857
O    -0.40859  -0.85766  1.77125
H    -2.56622  -3.38450  1.90406
H    -0.81631  -3.55137  1.60048
H    -1.82318  -2.71918  0.41935
N    -2.18412  -1.16579  3.15645
C    -2.06971  0.10957  3.88151
C    -0.83915  0.07655  4.83814
O    0.29677  0.34429  4.35247
H    -2.90870  -1.81581  3.45275
H    -1.81402  0.88498  3.14425
C    -3.39780  0.48228  4.56968
C    -4.53809  0.85726  3.66309
N    -5.74845  1.30419  4.18761
C    -4.70073  0.88462  2.30157
C    -6.60741  1.59353  3.20290
N    -5.98068  1.34230  2.05269
H    -3.19780  1.33746  5.23447
H    -3.73436  -0.34321  5.22231
H    -5.97456  1.41372  5.17528
H    -4.02903  0.62260  1.49525
H    -7.62136  1.96351  3.32075
H    -6.39845  1.47364  1.13172
N    -0.99964  -0.24287  6.11256
C    0.08780  -0.31824  7.09842
H    -1.93010  -0.47603  6.44774
H    -0.32812  -0.12352  8.09132
H    0.84538  0.43505  6.86570
H    0.54255  -1.31730  7.09039
Ba    1.74338  0.21569  2.34094
