31
Energy: -244761.280412 eV PBE+vdW (tier 2 basis)
C    2.68428  -0.29870  2.08043
C    1.49796  -0.67539  2.90519
O    1.61678  -0.95231  4.13308
H    3.18485  0.56662  2.53650
H    2.44478  -0.06395  1.03812
H    3.40664  -1.12784  2.10237
N    0.29447  -0.70935  2.29439
C    -1.00949  -1.13579  2.83898
C    -1.37999  -0.32938  4.10976
O    -1.02507  -0.72412  5.26096
H    0.29776  -0.46913  1.30595
H    -1.73064  -0.86594  2.05840
C    -1.09274  -2.67566  3.05233
C    -2.47664  -3.25051  2.96827
N    -2.92201  -3.98734  1.87292
C    -3.53118  -3.24021  3.84845
C    -4.17549  -4.41310  2.07114
N    -4.55608  -3.95830  3.26738
H    -0.65043  -2.94067  4.02023
H    -0.46332  -3.14925  2.28714
H    -2.37823  -4.22202  1.04397
H    -3.62939  -2.80388  4.83437
H    -4.76655  -5.01881  1.39115
H    -5.46912  -4.13874  3.68504
N    -2.08457  0.78539  3.95598
C    -2.55996  1.41985  2.71654
H    -2.31567  1.26529  4.82669
H    -3.02957  2.37014  2.98617
H    -3.31509  0.80179  2.21463
H    -1.72817  1.63597  2.03601
Ba    1.14387  -0.93866  6.51845
