31
Energy: -244761.044586 eV PBE+vdW (tier 2 basis)
C    -1.37091  3.31837  0.49183
C    -0.64468  2.32202  1.33082
O    0.31108  2.66282  2.07507
H    -1.99204  2.86827  -0.28829
H    -0.62474  3.97731  0.02562
H    -1.99860  3.96781  1.12144
N    -0.99711  0.99435  1.28768
C    -2.38654  0.57092  1.46502
C    -2.76004  0.81600  2.97390
O    -1.89449  1.30902  3.75824
H    -0.34983  0.43288  1.84553
H    -3.03098  1.22858  0.86323
C    -2.58622  -0.89952  1.00384
C    -2.60254  -1.12865  -0.47807
N    -1.47415  -1.17313  -1.29311
C    -3.65910  -1.42138  -1.30486
C    -1.81881  -1.48032  -2.55077
N    -3.14544  -1.62830  -2.56669
H    -3.54111  -1.27845  1.39000
H    -1.81810  -1.53509  1.47319
H    -0.51222  -1.02664  -0.99835
H    -4.71767  -1.52144  -1.09618
H    -1.14644  -1.59369  -3.39503
H    -3.68713  -1.87922  -3.39427
N    -3.98652  0.52700  3.37308
C    -4.48919  0.71746  4.74163
H    -4.65470  0.18506  2.68714
H    -5.44601  0.19641  4.83326
H    -4.64263  1.78399  4.94906
H    -3.78048  0.29579  5.46187
Ba    0.11234  2.62675  4.57117
