31
Energy: -244761.707521 eV PBE+vdW (tier 2 basis)
C    -0.24119  -2.00403  0.59185
C    -0.40608  -0.89625  1.58058
O    0.51911  -0.06584  1.79790
H    -0.04929  -1.56480  -0.39808
H    -1.10761  -2.67038  0.52456
H    0.64638  -2.59825  0.84760
N    -1.58715  -0.80237  2.23313
C    -1.97156  0.26169  3.17026
C    -1.23740  0.07457  4.53243
O    -0.04382  0.48243  4.62505
H    -2.26090  -1.54349  2.05804
H    -1.56887  1.20480  2.77190
C    -3.51701  0.36305  3.28243
C    -4.26585  0.81608  2.06299
N    -4.45305  2.15275  1.71604
C    -4.98945  0.09866  1.14276
C    -5.25065  2.24949  0.64422
N    -5.57583  1.00560  0.28571
H    -3.75454  1.04617  4.11178
H    -3.93968  -0.61379  3.56570
H    -4.10360  2.96382  2.22208
H    -5.16564  -0.96648  1.05026
H    -5.57919  3.16673  0.16551
H    -6.19156  0.77404  -0.49449
N    -1.86067  -0.50910  5.54378
C    -1.26810  -0.75199  6.86641
H    -2.81378  -0.83583  5.41123
H    -0.77495  -1.73247  6.88877
H    -2.06642  -0.73693  7.61450
H    -0.54130  0.03305  7.09103
Ba    2.10066  0.87406  3.43806
