31
Energy: -244761.051048 eV PBE+vdW (tier 2 basis)
C    -1.37272  1.45115  -0.04390
C    -1.16049  0.62792  1.18231
O    -0.20093  -0.18436  1.26672
H    -1.19399  0.80970  -0.91769
H    -0.62920  2.26117  -0.10032
H    -2.37618  1.88158  -0.11377
N    -2.02361  0.73091  2.24041
C    -2.39486  2.02622  2.79991
C    -1.12807  2.59728  3.54257
O    -0.04959  1.93212  3.53084
H    -1.81771  0.03043  2.95510
H    -2.60605  2.71325  1.96709
C    -3.64857  1.91344  3.70663
C    -4.93739  1.61528  2.99035
N    -5.76690  0.55241  3.33318
C    -5.61183  2.29805  2.00730
C    -6.89101  0.58002  2.60600
N    -6.80156  1.63516  1.79351
H    -3.77927  2.85056  4.26709
H    -3.46996  1.14627  4.47506
H    -5.59034  -0.13985  4.05868
H    -5.36389  3.20266  1.46573
H    -7.71762  -0.12057  2.66864
H    -7.52401  1.91100  1.12808
N    -1.22038  3.77799  4.12991
C    -0.11928  4.45137  4.83465
H    -2.09688  4.28932  4.06480
H    0.60676  4.85255  4.11631
H    0.37645  3.74768  5.51111
H    -0.53650  5.27674  5.41783
Ba    1.72456  0.27254  2.78590
