31
Energy: -244761.549520 eV PBE+vdW (tier 2 basis)
C    -0.10082  1.65487  0.94379
C    -0.23179  1.14549  2.34068
O    0.64629  1.38017  3.21721
H    -0.94943  1.40171  0.29953
H    0.81825  1.25188  0.49508
H    0.01864  2.74733  0.97135
N    -1.32970  0.41981  2.65841
C    -1.60059  -0.10516  4.00374
C    -0.56418  -1.20432  4.39208
O    0.40024  -0.84308  5.13219
H    -1.99151  0.22013  1.91223
H    -1.37465  0.70026  4.71728
C    -3.07460  -0.52010  4.19015
C    -4.06482  0.60324  4.32764
N    -5.36809  0.35590  4.75151
C    -4.01029  1.95383  4.09410
C    -6.07583  1.49150  4.77993
N    -5.25975  2.46907  4.38321
H    -3.12709  -1.13865  5.10003
H    -3.39996  -1.17543  3.36794
H    -5.75501  -0.55009  5.01241
H    -3.20597  2.58757  3.74525
H    -7.11598  1.59509  5.07349
H    -5.53347  3.44840  4.30638
N    -0.64173  -2.45874  3.96659
C    -1.58461  -3.11755  3.05502
H    0.09270  -3.05917  4.34601
H    -2.45841  -3.50295  3.59547
H    -1.06844  -3.96681  2.59578
H    -1.89452  -2.44514  2.24922
Ba    2.23310  0.82893  5.04129
