31
Energy: -244760.304155 eV PBE+vdW (tier 2 basis)
C    -0.66946  1.37915  0.43326
C    -0.29978  0.92559  1.80596
O    0.58271  1.60061  2.47396
H    -1.12196  2.37955  0.48971
H    -1.36916  0.71136  -0.07585
H    0.23943  1.46914  -0.17690
N    -0.83851  -0.13666  2.37208
C    -1.92031  -1.03605  1.94354
C    -2.53445  -1.47114  3.31163
O    -1.74794  -1.58501  4.25751
H    -0.56800  -0.39890  3.34007
H    -2.63591  -0.50078  1.30990
C    -1.29980  -2.26994  1.20541
C    -2.18635  -3.45611  0.98101
N    -2.80665  -3.75866  -0.22862
C    -2.50525  -4.49441  1.82153
C    -3.46543  -4.92156  -0.13949
N    -3.29235  -5.37105  1.10661
H    -0.44924  -2.60961  1.81264
H    -0.88193  -1.93419  0.24563
H    -2.74359  -3.21811  -1.08855
H    -2.22173  -4.67972  2.85063
H    -4.02336  -5.40997  -0.93145
H    -3.67024  -6.25070  1.45742
N    -3.85055  -1.72343  3.38648
C    -4.88034  -1.48790  2.37398
H    -4.16316  -1.98099  4.32194
H    -5.02625  -0.41747  2.17542
H    -5.82610  -1.88768  2.75134
H    -4.65367  -2.00858  1.43491
Ba    2.11213  3.01001  3.55952
