31
Energy: -244760.668184 eV PBE+vdW (tier 2 basis)
C    0.03904  0.38684  0.03667
C    0.10062  0.45513  1.52338
O    1.24481  0.65042  2.09665
H    -0.96239  0.20764  -0.36449
H    0.69264  -0.42830  -0.30679
H    0.44022  1.32154  -0.38030
N    -0.97076  0.31693  2.30228
C    -2.41138  0.12195  1.96778
C    -2.65485  -1.09831  1.02402
O    -2.90484  -0.90326  -0.17333
H    -0.77030  0.38968  3.29970
H    -2.87998  -0.09350  2.93802
C    -3.03241  1.42495  1.39997
C    -4.51241  1.39467  1.16633
N    -5.10816  0.69158  0.12720
C    -5.52942  2.08047  1.78302
C    -6.42171  0.92463  0.10338
N    -6.68994  1.77010  1.10614
H    -2.53552  1.67844  0.45293
H    -2.82284  2.24114  2.10328
H    -4.57649  0.04883  -0.47377
H    -5.52056  2.76876  2.61913
H    -7.13962  0.50835  -0.59480
H    -7.61728  2.13308  1.32160
N    -2.57915  -2.30666  1.59922
C    -2.80095  -3.56244  0.87678
H    -2.45003  -2.36583  2.60516
H    -2.72723  -3.36997  -0.19668
H    -3.79588  -3.96554  1.10518
H    -2.04383  -4.29533  1.17571
Ba    3.52909  1.00457  2.60550
