31
Energy: -244761.592490 eV PBE+vdW (tier 2 basis)
C    1.46607  1.63171  0.95655
C    0.85144  0.51679  1.73836
O    1.54710  -0.19203  2.52053
H    1.97452  2.32377  1.64146
H    0.75193  2.19398  0.34591
H    2.24283  1.21210  0.30002
N    -0.46991  0.29389  1.57392
C    -1.31768  -0.78878  2.11466
C    -1.36510  -0.76502  3.66599
O    -0.41704  -1.23070  4.36092
H    -0.94055  0.93293  0.93779
H    -2.32385  -0.54271  1.75179
C    -0.93723  -2.19185  1.54464
C    -2.08322  -3.14673  1.38596
N    -2.73125  -3.35793  0.16998
C    -2.69592  -3.99785  2.27273
C    -3.68212  -4.29108  0.30052
N    -3.67162  -4.68157  1.57728
H    -0.17461  -2.65404  2.18293
H    -0.46376  -2.03840  0.56555
H    -2.50358  -2.91592  -0.71910
H    -2.50693  -4.18752  3.32182
H    -4.33166  -4.66496  -0.48498
H    -4.28790  -5.39717  1.96318
N    -2.45449  -0.23909  4.21126
C    -2.69884  -0.09785  5.65014
H    -3.16709  0.13843  3.59069
H    -3.77004  -0.22052  5.83954
H    -2.39331  0.89973  5.99289
H    -2.14066  -0.86443  6.19380
Ba    2.06247  -1.10819  4.71228
