31
Energy: -244760.791759 eV PBE+vdW (tier 2 basis)
C    -0.82361  0.29054  -0.39277
C    -0.74129  -0.30955  0.96749
O    0.20520  -1.07408  1.29497
H    0.06381  0.90165  -0.60926
H    -1.73286  0.87202  -0.57096
H    -0.79643  -0.53995  -1.11660
N    -1.73146  -0.07367  1.89201
C    -2.12274  1.28628  2.25500
C    -1.00933  1.85002  3.19895
O    -0.04753  1.08793  3.53995
H    -1.59049  -0.65765  2.71827
H    -2.08107  1.90460  1.34588
C    -3.59775  1.37159  2.75821
C    -4.12911  0.30728  3.67047
N    -4.79040  -0.82918  3.20548
C    -4.26990  0.27146  5.03672
C    -5.31605  -1.51686  4.22609
N    -4.99699  -0.85923  5.34447
H    -4.23366  1.39436  1.86188
H    -3.75861  2.33766  3.24997
H    -4.92232  -1.08581  2.22866
H    -3.95398  0.97107  5.80109
H    -5.89998  -2.42943  4.15782
H    -5.29011  -1.14139  6.28003
N    -1.03517  3.11752  3.58429
C    -1.93906  4.21012  3.19756
H    -0.26813  3.38194  4.20471
H    -2.71458  4.36850  3.95813
H    -2.40020  4.02081  2.22347
H    -1.34658  5.12806  3.11782
Ba    1.85786  -0.53174  3.08792
