31
Energy: -244761.012687 eV PBE+vdW (tier 2 basis)
C    -2.03935  3.11373  1.04522
C    -1.03121  2.12246  1.51772
O    -0.11263  2.44568  2.31317
H    -2.62624  2.77176  0.18768
H    -1.50741  4.03713  0.77499
H    -2.72189  3.38725  1.86450
N    -1.07634  0.82199  1.06874
C    -2.30792  0.03034  1.14613
C    -2.63342  -0.18485  2.66260
O    -1.76877  0.15675  3.53063
H    -0.27124  0.29833  1.41934
H    -3.13018  0.60839  0.70103
C    -2.13517  -1.30696  0.37265
C    -2.23336  -1.22363  -1.12041
N    -1.30239  -0.61016  -1.95563
C    -3.16223  -1.78419  -1.96175
C    -1.64091  -0.78705  -3.24008
N    -2.77085  -1.49752  -3.25181
H    -2.89964  -2.02166  0.69921
H    -1.17397  -1.76367  0.66003
H    -0.46856  -0.10879  -1.66071
H    -4.04460  -2.37652  -1.75058
H    -1.09745  -0.42455  -4.10675
H    -3.25676  -1.79309  -4.09907
N    -3.80150  -0.68825  3.02963
C    -4.95940  -1.07316  2.21558
H    -3.90733  -0.82014  4.03728
H    -4.99363  -2.16265  2.08272
H    -4.94130  -0.57532  1.24156
H    -5.86952  -0.76161  2.74006
Ba    -0.01080  1.57695  4.66831
