31
Energy: -244760.935011 eV PBE+vdW (tier 2 basis)
C    -2.21773  4.24050  0.76509
C    -1.26308  3.10459  0.89563
O    -0.05102  3.29481  1.18375
H    -3.23518  3.94594  0.49193
H    -1.82679  4.89464  -0.03198
H    -2.23241  4.85607  1.67451
N    -1.68003  1.81797  0.65329
C    -2.83258  1.25625  1.35390
C    -2.32410  0.75924  2.75198
O    -1.18235  1.13064  3.15952
H    -0.88422  1.17852  0.62682
H    -3.51057  2.09062  1.59371
C    -3.67461  0.28596  0.47962
C    -2.98857  -0.83058  -0.25148
N    -2.68187  -0.75883  -1.60910
C    -2.67424  -2.11528  0.12081
C    -2.21573  -1.93358  -2.04857
N    -2.19996  -2.76231  -1.00105
H    -4.19267  0.91157  -0.26100
H    -4.48658  -0.14559  1.08187
H    -2.83718  0.04497  -2.21541
H    -2.78539  -2.62859  1.06786
H    -1.91675  -2.17072  -3.06484
H    -1.91218  -3.73997  -1.04710
N    -3.13240  0.02126  3.49573
C    -2.84486  -0.41563  4.86942
H    -4.06421  -0.18060  3.14253
H    -1.80837  -0.75826  4.94220
H    -3.51746  -1.24104  5.11926
H    -3.01418  0.40682  5.57644
Ba    0.92927  2.54358  3.34667
