31
Energy: -244760.693012 eV PBE+vdW (tier 2 basis)
C    -0.10584  -0.80084  1.81788
C    0.15435  0.55031  1.23625
O    1.37798  0.94699  1.09409
H    0.16775  -1.57213  1.08153
H    -1.14503  -0.96654  2.11321
H    0.53298  -0.94808  2.69762
N    -0.82963  1.34775  0.85155
C    -2.26650  1.04380  0.71192
C    -2.70410  1.83869  -0.54957
O    -2.22894  2.98414  -0.69593
H    -0.59285  2.25348  0.42367
H    -2.38116  -0.03393  0.54339
C    -3.13975  1.40245  1.94437
C    -3.24295  2.82381  2.43179
N    -3.18906  3.96640  1.64482
C    -3.58115  3.25460  3.69233
C    -3.47799  5.04546  2.37837
N    -3.72193  4.62370  3.62423
H    -2.81604  0.78726  2.79538
H    -4.15559  1.05020  1.69938
H    -2.89941  3.95014  0.64864
H    -3.75860  2.70446  4.60849
H    -3.50607  6.07212  2.03092
H    -3.98835  5.23055  4.39808
N    -3.58217  1.25717  -1.36231
C    -4.15307  1.89775  -2.55235
H    -3.88304  0.30701  -1.15952
H    -3.69179  2.87986  -2.68053
H    -5.23750  2.00784  -2.43179
H    -3.95219  1.27796  -3.43371
Ba    3.71699  1.13199  0.82860
