31
Energy: -244760.973147 eV PBE+vdW (tier 2 basis)
C    0.22741  -0.66132  0.17494
C    0.16503  -0.01343  1.51543
O    1.21598  0.26925  2.15348
H    0.86689  -1.55218  0.27379
H    0.72930  -0.00919  -0.55396
H    -0.74465  -0.97434  -0.21609
N    -1.03924  0.25837  2.10305
C    -2.11684  0.95576  1.40989
C    -1.63730  2.43151  1.17969
O    -0.54148  2.82160  1.67697
H    -0.92711  0.54977  3.07586
H    -2.25931  0.48894  0.42457
C    -3.42494  0.82272  2.25921
C    -4.74674  0.95271  1.56659
N    -5.35935  -0.09130  0.87242
C    -5.66939  1.97100  1.57309
C    -6.58892  0.26547  0.48119
N    -6.78390  1.51927  0.89675
H    -3.40585  1.55009  3.08258
H    -3.38367  -0.17102  2.73034
H    -4.97945  -1.02509  0.72668
H    -5.64011  2.94968  2.03733
H    -7.29625  -0.35132  -0.06503
H    -7.64747  2.04410  0.75404
N    -2.40391  3.22785  0.44951
C    -2.08786  4.62786  0.13270
H    -3.24394  2.83509  0.03335
H    -2.96234  5.08306  -0.33966
H    -1.24166  4.68256  -0.56347
H    -1.84690  5.17677  1.04923
Ba    1.86196  2.62775  2.56652
