31
Energy: -244761.116286 eV PBE+vdW (tier 2 basis)
C    -1.79930  3.54052  0.87915
C    -0.93884  2.50822  1.52955
O    0.05184  2.83419  2.23587
H    -2.39687  3.15610  0.04649
H    -1.15180  4.35113  0.51965
H    -2.48013  3.99240  1.61797
N    -1.21421  1.17767  1.36130
C    -2.56698  0.65413  1.54099
C    -2.96015  0.87289  3.05057
O    -2.09568  1.31653  3.86292
H    -0.49173  0.58578  1.77566
H    -3.26089  1.25140  0.93010
C    -2.65655  -0.82893  1.11798
C    -2.51518  -1.10039  -0.35452
N    -2.90734  -2.31975  -0.90152
C    -2.02274  -0.37177  -1.40768
C    -2.67191  -2.33932  -2.21916
N    -2.13652  -1.15951  -2.53650
H    -3.62673  -1.22805  1.44874
H    -1.90083  -1.41136  1.67279
H    -3.31538  -3.10487  -0.39625
H    -1.59361  0.61999  -1.45018
H    -2.88119  -3.15960  -2.89873
H    -1.85561  -0.89175  -3.47965
N    -4.20405  0.60883  3.41325
C    -4.73393  0.76721  4.77548
H    -4.86806  0.32182  2.69777
H    -4.92131  1.82642  4.99338
H    -4.02421  0.35759  5.50095
H    -5.67723  0.21858  4.84573
Ba    -0.06586  2.59388  4.71689
