31
Energy: -244761.279754 eV PBE+vdW (tier 2 basis)
C    0.75252  0.10735  -0.19222
C    0.36389  0.33176  1.22951
O    1.16589  0.83726  2.06599
H    0.98659  1.08048  -0.64959
H    -0.02219  -0.38578  -0.78869
H    1.67412  -0.48905  -0.23199
N    -0.88369  -0.01202  1.61655
C    -1.44625  0.27063  2.94565
C    -0.73040  -0.58521  4.03052
O    0.15607  -0.00035  4.72633
H    -1.49423  -0.40982  0.90639
H    -1.15948  1.29907  3.20944
C    -2.98627  0.21487  2.83661
C    -3.77729  0.57699  4.05937
N    -5.16295  0.70177  3.98870
C    -3.45516  0.85203  5.36404
C    -5.66541  1.03606  5.18283
N    -4.63662  1.12948  6.02637
H    -3.31387  -0.77516  2.48569
H    -3.25683  0.92522  2.03764
H    -5.73719  0.57295  3.15642
H    -2.50256  0.87886  5.87639
H    -6.71258  1.20098  5.41771
H    -4.72512  1.37316  7.01247
N    -0.98686  -1.87399  4.21779
C    -1.89702  -2.78216  3.50924
H    -0.44029  -2.29430  4.97112
H    -2.91927  -2.70914  3.90158
H    -1.54467  -3.80527  3.67333
H    -1.88318  -2.59698  2.43060
Ba    2.33732  1.15433  4.18522
