31
Energy: -244761.279607 eV PBE+vdW (tier 2 basis)
C    0.52244  0.51401  -0.32219
C    0.18455  0.73271  1.11328
O    0.96851  1.34331  1.89504
H    -0.22916  -0.06482  -0.86910
H    1.49450  0.00818  -0.39860
H    0.63793  1.49453  -0.80800
N    -0.99707  0.26752  1.57327
C    -1.52100  0.52764  2.92245
C    -0.66617  -0.21549  3.98967
O    0.18598  0.47994  4.62405
H    -1.59549  -0.21287  0.90503
H    -1.33334  1.58790  3.14648
C    -3.04967  0.30696  2.89362
C    -3.81652  0.63021  4.14217
N    -5.20949  0.63232  4.13022
C    -3.46491  0.96166  5.42600
C    -5.68862  0.94835  5.33880
N    -4.63728  1.15014  6.13432
H    -3.28677  -0.72411  2.59121
H    -3.43102  0.95527  2.08718
H    -5.80491  0.43438  3.32681
H    -2.49758  1.08229  5.89553
H    -6.73540  1.02688  5.61632
H    -4.70520  1.40743  7.11862
N    -0.77487  -1.51777  4.22271
C    -1.61494  -2.53855  3.58491
H    -0.15105  -1.85482  4.95775
H    -1.67769  -2.38313  2.50333
H    -2.61743  -2.56647  4.03057
H    -1.14421  -3.51244  3.75173
Ba    2.20189  1.84183  3.94281
