31
Energy: -244760.987678 eV PBE+vdW (tier 2 basis)
C    -1.06711  2.12452  -0.67447
C    -0.39874  1.42962  0.46263
O    0.85145  1.26061  0.48062
H    -0.75053  3.17547  -0.73663
H    -2.15906  2.06478  -0.65372
H    -0.71151  1.64586  -1.59989
N    -1.13423  0.92142  1.49651
C    -2.14366  1.70287  2.20055
C    -1.36976  2.69288  3.14650
O    -0.11398  2.79961  3.04274
H    -0.57144  0.32826  2.10886
H    -2.66533  2.31647  1.45116
C    -3.14882  0.74590  2.89859
C    -4.54546  1.25007  3.13005
N    -5.42211  0.56283  3.96682
C    -5.29315  2.26350  2.57958
C    -6.64048  1.11583  3.92790
N    -6.57191  2.15302  3.09255
H    -2.72698  0.39570  3.85378
H    -3.22279  -0.14271  2.25137
H    -5.20019  -0.26502  4.51869
H    -5.04627  3.02867  1.85415
H    -7.51663  0.78372  4.47688
H    -7.35926  2.76037  2.86401
N    -2.06627  3.40570  4.01791
C    -1.48151  4.38878  4.94169
H    -3.07512  3.28290  4.04442
H    -1.01881  5.21020  4.38185
H    -0.73091  3.90970  5.58053
H    -2.28032  4.79122  5.56985
Ba    2.26389  2.44525  2.13651
