31
Energy: -244761.176319 eV PBE+vdW (tier 2 basis)
C    -2.09348  0.75141  -0.53826
C    -1.46184  0.07349  0.62890
O    -0.29514  -0.40801  0.56872
H    -2.07208  0.08188  -1.40878
H    -1.48892  1.63169  -0.80344
H    -3.12414  1.07283  -0.35520
N    -2.15920  -0.01737  1.78693
C    -1.55341  -0.56440  3.00053
C    -1.30838  -2.09440  2.87191
O    -0.10127  -2.45962  2.74601
H    -3.09702  0.37285  1.80933
H    -0.52169  -0.18712  3.00692
C    -2.12017  0.01251  4.33281
C    -3.55289  -0.11631  4.75906
N    -3.99196  -1.02579  5.71938
C    -4.64535  0.67340  4.48735
C    -5.27903  -0.80795  6.01972
N    -5.68711  0.21619  5.26684
H    -1.89427  1.08854  4.30075
H    -1.48007  -0.38536  5.13407
H    -3.41758  -1.71798  6.19696
H    -4.75420  1.54438  3.85153
H    -5.87359  -1.35077  6.74834
H    -6.62477  0.61823  5.30201
N    -2.28293  -2.99765  2.84375
C    -3.73508  -2.83754  2.79621
H    -1.94532  -3.95802  2.75005
H    -4.01329  -1.78221  2.80454
H    -4.19878  -3.34651  3.65008
H    -4.11994  -3.29412  1.87550
Ba    1.64093  -1.88426  1.02546
