31
Energy: -244761.484011 eV PBE+vdW (tier 2 basis)
C    -0.78648  2.06558  2.80314
C    -0.79455  0.57192  2.73311
O    -0.61141  -0.02887  1.63816
H    -1.02032  2.46672  3.79495
H    -1.50336  2.46334  2.07165
H    0.20469  2.43389  2.50121
N    -1.00289  -0.10423  3.88658
C    -1.08506  -1.56064  4.10190
C    0.19719  -2.29368  3.63657
O    0.36553  -2.60136  2.41875
H    -1.11230  0.47189  4.71687
H    -1.14489  -1.67378  5.19055
C    -2.35938  -2.21081  3.48364
C    -3.63527  -1.91561  4.21435
N    -4.18612  -2.77030  5.16794
C    -4.52166  -0.87163  4.11159
C    -5.34803  -2.28197  5.62016
N    -5.55693  -1.12524  4.98737
H    -2.21027  -3.29969  3.44742
H    -2.46783  -1.88423  2.44246
H    -3.80952  -3.66979  5.46161
H    -4.51591  0.00542  3.47679
H    -6.00021  -2.74428  6.35469
H    -6.37771  -0.53524  5.12623
N    1.10574  -2.61661  4.54798
C    1.12222  -2.35031  5.99418
H    1.89944  -3.14335  4.17936
H    0.89768  -1.29992  6.20950
H    2.13253  -2.55569  6.36041
H    0.42834  -3.01184  6.52876
Ba    0.50972  -1.63768  0.14511
