31
Energy: -244761.599277 eV PBE+vdW (tier 2 basis)
C    0.59794  3.97021  1.81251
C    0.01432  2.80184  2.54203
O    0.48881  1.64048  2.39283
H    0.08972  4.91958  2.01135
H    0.56840  3.76550  0.73288
H    1.65839  4.07474  2.08144
N    -1.03456  3.04476  3.35937
C    -1.85403  2.10516  4.14925
C    -1.03865  1.31202  5.20450
O    -0.22630  0.40216  4.87229
H    -1.30907  4.02111  3.42714
H    -2.53453  2.75679  4.71172
C    -2.72317  1.15096  3.28049
C    -3.92622  1.79649  2.64710
N    -4.28321  1.59733  1.31665
C    -4.93794  2.55957  3.17956
C    -5.44882  2.19959  1.04554
N    -5.85009  2.79120  2.17191
H    -3.07000  0.32529  3.92133
H    -2.09643  0.69357  2.50429
H    -3.76861  1.04850  0.63151
H    -5.10359  2.93282  4.18268
H    -5.96652  2.20499  0.09157
H    -6.71547  3.32372  2.26540
N    -1.27453  1.61316  6.47396
C    -0.65452  0.94934  7.62633
H    -1.91672  2.37408  6.68118
H    0.26633  1.47128  7.91803
H    -0.42926  -0.09025  7.37352
H    -1.35770  0.97715  8.46454
Ba    1.59904  -0.32315  3.37709
