31
Energy: -244761.552177 eV PBE+vdW (tier 2 basis)
C    1.48225  -0.48645  1.02196
C    0.82675  -0.81565  2.32504
O    1.51164  -1.14463  3.33310
H    0.77846  -0.27956  0.20884
H    2.14002  -1.31703  0.73094
H    2.12959  0.39211  1.15700
N    -0.52345  -0.74433  2.37754
C    -1.42119  -1.03862  3.50954
C    -1.09872  -0.17249  4.75231
O    -0.17405  -0.50313  5.55347
H    -0.97849  -0.44432  1.51952
H    -2.41502  -0.73997  3.15640
C    -1.48053  -2.55098  3.88048
C    -2.21704  -3.41352  2.89949
N    -3.56166  -3.75485  3.03694
C    -1.79429  -4.06457  1.76660
C    -3.94098  -4.57427  2.04815
N    -2.87413  -4.76355  1.26828
H    -1.95293  -2.64680  4.86892
H    -0.46145  -2.94014  3.99175
H    -4.17967  -3.47931  3.79806
H    -0.82060  -4.11049  1.29539
H    -4.92639  -5.00927  1.91267
H    -2.86755  -5.35792  0.43898
N    -1.83063  0.91163  4.97446
C    -2.92870  1.48396  4.18149
H    -1.59789  1.40355  5.83888
H    -2.66523  1.54494  3.12001
H    -3.10348  2.50319  4.53894
H    -3.85691  0.91402  4.31773
Ba    2.25425  -0.95656  5.67612
