31
Energy: -244761.350762 eV PBE+vdW (tier 2 basis)
C    -0.13698  1.82382  0.84067
C    -0.23320  1.22161  2.20297
O    0.65797  1.41490  3.07631
H    0.80844  1.51953  0.37108
H    -0.09973  2.91846  0.94033
H    -0.96656  1.55387  0.17874
N    -1.31322  0.45899  2.49094
C    -1.58009  -0.13353  3.80662
C    -0.54763  -1.25692  4.12826
O    0.44280  -0.93046  4.85172
H    -1.97686  0.29301  1.73898
H    -1.34606  0.63500  4.55689
C    -3.07186  -0.54155  3.96113
C    -4.05470  0.57340  4.17193
N    -4.43929  1.03945  5.42773
C    -4.83315  1.26506  3.27664
C    -5.40343  1.96171  5.30971
N    -5.64346  2.10998  4.00487
H    -3.14673  -1.24350  4.80472
H    -3.40464  -1.10989  3.08323
H    -4.10314  0.69872  6.32627
H    -4.90447  1.20196  2.19755
H    -5.90348  2.48036  6.12168
H    -6.34668  2.73973  3.61722
N    -0.65343  -2.49619  3.66645
C    -1.63011  -3.11265  2.75973
H    0.08539  -3.11685  4.00227
H    -2.50922  -3.47699  3.30589
H    -1.14715  -3.97135  2.28270
H    -1.92772  -2.41955  1.96671
Ba    2.29540  0.72685  4.79307
