31
Energy: -244761.572467 eV PBE+vdW (tier 2 basis)
C    -1.26606  -1.04186  -0.03455
C    -0.97288  -0.28519  1.21909
O    0.17972  0.16687  1.45846
H    -1.09098  -0.37229  -0.89028
H    -2.28997  -1.42615  -0.09109
H    -0.56085  -1.87651  -0.14073
N    -1.98894  -0.08588  2.09122
C    -1.94930  0.80842  3.25566
C    -1.24232  0.15036  4.47431
O    -0.01097  -0.10948  4.37599
H    -2.89117  -0.46993  1.82378
H    -1.25906  1.62512  2.98986
C    -3.31307  1.50271  3.47453
C    -4.56631  0.68161  3.63480
N    -5.81412  1.29890  3.56813
C    -4.83608  -0.64797  3.85764
C    -6.79315  0.40396  3.74233
N    -6.21147  -0.78323  3.91711
H    -3.46205  2.16715  2.60856
H    -3.21308  2.18255  4.33668
H    -5.98347  2.29287  3.41355
H    -4.18141  -1.50188  3.98130
H    -7.86009  0.60784  3.74049
H    -6.71948  -1.65463  4.07086
N    -1.90878  -0.08347  5.59587
C    -1.29302  -0.63316  6.81322
H    -2.88728  0.18080  5.65156
H    -2.07627  -0.78074  7.56119
H    -0.54537  0.06477  7.20938
H    -0.81347  -1.59343  6.59385
Ba    2.08077  0.06989  3.00623
