31
Energy: -244761.238749 eV PBE+vdW (tier 2 basis)
C    0.17613  -0.22171  0.10095
C    -0.14838  0.50008  1.36807
O    0.37792  1.61447  1.64039
H    -0.18473  0.38746  -0.74221
H    -0.27278  -1.21823  0.03185
H    1.26375  -0.30617  -0.01804
N    -1.03737  -0.07208  2.21041
C    -1.68085  0.56233  3.36342
C    -0.76196  0.58662  4.61770
O    0.42365  0.99263  4.49574
H    -1.41447  -0.97105  1.91995
H    -1.79099  1.63296  3.11827
C    -3.12845  0.01745  3.51653
C    -3.38458  -1.46141  3.43626
N    -2.93119  -2.44217  4.32141
C    -4.22883  -2.11985  2.57424
C    -3.47417  -3.63033  4.01886
N    -4.26267  -3.44243  2.95913
H    -3.71855  0.46425  2.70471
H    -3.58668  0.43103  4.42900
H    -2.28381  -2.31308  5.09496
H    -4.82548  -1.74640  1.74934
H    -3.30244  -4.56870  4.53732
H    -4.81905  -4.17557  2.51687
N    -1.25918  0.25061  5.80722
C    -0.50892  0.36952  7.06809
H    -2.26012  0.09890  5.88806
H    -0.43650  1.42072  7.37589
H    0.49525  -0.04584  6.94105
H    -1.03966  -0.18998  7.84371
Ba    1.94961  2.57570  3.24798
