31
Energy: -244761.014717 eV PBE+vdW (tier 2 basis)
C    -2.48945  2.98121  1.59767
C    -1.31577  2.06510  1.69817
O    -0.27489  2.40195  2.32148
H    -3.21660  2.68905  0.83392
H    -2.11462  3.98976  1.37305
H    -3.00329  3.05663  2.56855
N    -1.34865  0.83421  1.09749
C    -2.47946  -0.07612  1.28124
C    -2.55750  -0.42695  2.80794
O    -1.58688  -0.10083  3.56084
H    -0.44374  0.36397  1.15826
H    -3.40667  0.44677  1.00408
C    -2.31561  -1.33911  0.40733
C    -2.44585  -1.12660  -1.07540
N    -2.59103  -2.20381  -1.94632
C    -2.44339  -0.01154  -1.87468
C    -2.67591  -1.77499  -3.21166
N    -2.58934  -0.44439  -3.17830
H    -3.06619  -2.07968  0.71808
H    -1.33928  -1.80458  0.62668
H    -2.62835  -3.18842  -1.68712
H    -2.33803  1.03789  -1.63544
H    -2.79574  -2.39441  -4.09511
H    -2.62612  0.15406  -4.00332
N    -3.63108  -1.02426  3.30135
C    -4.88178  -1.41498  2.64155
H    -3.57551  -1.23576  4.29950
H    -5.71590  -1.17485  3.31034
H    -4.89496  -2.49574  2.44823
H    -5.02700  -0.86560  1.70683
Ba    0.28958  1.32506  4.50677
