31
Energy: -244761.071231 eV PBE+vdW (tier 2 basis)
C    -1.48871  3.32489  0.40622
C    -0.66280  2.36470  1.19457
O    0.34645  2.74883  1.84364
H    -0.80445  3.99718  -0.12993
H    -2.08413  3.96484  1.07527
H    -2.15458  2.84172  -0.31488
N    -0.97986  1.03188  1.20999
C    -2.33421  0.57186  1.49879
C    -2.59677  0.82230  3.03188
O    -1.69960  1.38013  3.73204
H    -0.26371  0.48948  1.69677
H    -3.03997  1.21268  0.94985
C    -2.53778  -0.90391  1.06183
C    -2.54726  -1.13988  -0.42308
N    -1.60054  -1.91735  -1.08258
C    -3.45316  -0.77539  -1.38963
C    -1.90761  -2.03021  -2.38112
N    -3.02912  -1.33299  -2.57667
H    -3.48825  -1.27736  1.46808
H    -1.76430  -1.53123  1.52969
H    -0.80359  -2.38603  -0.65662
H    -4.36686  -0.19643  -1.33036
H    -1.35330  -2.58742  -3.12961
H    -3.50598  -1.25130  -3.47495
N    -3.76665  0.47241  3.53816
C    -4.16509  0.67012  4.93963
H    -4.46674  0.07059  2.92007
H    -5.08736  0.11079  5.11787
H    -4.34795  1.73334  5.13980
H    -3.38282  0.29502  5.60768
Ba    0.32972  2.78074  4.33960
