31
Energy: -244761.031056 eV PBE+vdW (tier 2 basis)
C    -1.38281  3.44289  0.66429
C    -0.76490  2.43424  1.57258
O    0.12852  2.75463  2.39874
H    -2.05581  4.10734  1.22796
H    -1.93418  3.00289  -0.17195
H    -0.58093  4.08425  0.27274
N    -1.15077  1.11675  1.50644
C    -2.56243  0.73486  1.55885
C    -3.06491  1.00461  3.02564
O    -2.25981  1.47853  3.88279
H    -0.57382  0.54208  2.12473
H    -3.12977  1.40473  0.89598
C    -2.76148  -0.73378  1.09191
C    -2.65222  -0.97737  -0.38372
N    -1.45808  -1.04955  -1.09694
C    -3.63773  -1.26211  -1.29651
C    -1.69734  -1.36548  -2.37675
N    -3.01993  -1.49206  -2.50663
H    -3.75717  -1.08294  1.39389
H    -2.05620  -1.38529  1.63263
H    -0.52295  -0.91590  -0.72083
H    -4.71198  -1.34303  -1.17975
H    -0.95619  -1.49923  -3.15821
H    -3.49216  -1.74270  -3.37580
N    -4.33101  0.75490  3.31162
C    -4.95389  0.97072  4.62571
H    -4.94319  0.42917  2.56785
H    -4.30198  0.58290  5.41485
H    -5.90532  0.43231  4.64958
H    -5.14450  2.03905  4.78945
Ba    -0.29708  2.74459  4.86685
