31
Energy: -244761.149904 eV PBE+vdW (tier 2 basis)
C    -2.10048  3.61918  0.80128
C    -1.09288  2.69191  1.39572
O    -0.10795  3.12995  2.04761
H    -1.56369  4.47445  0.36874
H    -2.75323  4.03148  1.58662
H    -2.72745  3.15883  0.03144
N    -1.22066  1.33872  1.23233
C    -2.48897  0.65803  1.48642
C    -2.82048  0.83324  3.01631
O    -1.96655  1.36983  3.78240
H    -0.41029  0.83530  1.59818
H    -3.28311  1.16449  0.91695
C    -2.42268  -0.82733  1.06784
C    -2.32438  -1.08971  -0.40965
N    -2.54274  -2.36376  -0.92835
C    -2.02653  -0.30286  -1.49322
C    -2.39065  -2.36025  -2.25827
N    -2.07886  -1.11235  -2.61123
H    -3.32052  -1.33700  1.44795
H    -1.57561  -1.31222  1.58321
H    -2.78418  -3.19881  -0.39684
H    -1.77200  0.74570  -1.56535
H    -2.50352  -3.21204  -2.92175
H    -1.90614  -0.81354  -3.57090
N    -4.00584  0.43213  3.44360
C    -4.47722  0.52593  4.83274
H    -4.67156  0.07474  2.76204
H    -5.31234  -0.16814  4.96284
H    -4.82324  1.54422  5.05256
H    -3.66971  0.25082  5.51797
Ba    -0.05357  2.87405  4.52880
