31
Energy: -244760.819024 eV PBE+vdW (tier 2 basis)
C    0.19293  -0.77705  0.08363
C    0.05010  -0.13670  1.42779
O    1.04228  0.38253  2.00674
H    -0.54625  -0.38308  -0.62515
H    0.05482  -1.86816  0.14255
H    1.19556  -0.58054  -0.30694
N    -1.16329  -0.08904  2.05442
C    -2.06656  -1.23692  2.17839
C    -1.23968  -2.43133  2.77286
O    -0.09086  -2.21540  3.25535
H    -1.14456  0.51059  2.87840
H    -2.76620  -0.93994  2.97398
C    -2.89650  -1.51809  0.89285
C    -4.32424  -1.94650  1.09823
N    -5.12996  -2.28073  0.01147
C    -5.14826  -2.02431  2.19470
C    -6.37928  -2.54163  0.41520
N    -6.40043  -2.39275  1.73997
H    -2.38674  -2.25006  0.24868
H    -2.91671  -0.57357  0.32787
H    -4.84121  -2.30711  -0.96564
H    -4.97183  -1.83268  3.24571
H    -7.21540  -2.82289  -0.21813
H    -7.22938  -2.52293  2.32035
N    -1.79209  -3.63471  2.78917
C    -1.16276  -4.82728  3.37605
H    -2.72358  -3.74650  2.39818
H    -0.99075  -4.67825  4.44856
H    -0.21052  -5.03887  2.87637
H    -1.83486  -5.67769  3.23558
Ba    2.07717  -0.95215  3.82462
