31
Energy: -244761.303172 eV PBE+vdW (tier 2 basis)
C    2.05004  -1.09174  1.71727
C    1.06165  -1.14621  2.83861
O    1.43469  -1.35475  4.02567
H    2.65301  -2.01038  1.72395
H    2.74787  -0.26036  1.89337
H    1.59711  -0.96281  0.72850
N    -0.24400  -0.96605  2.52661
C    -1.41703  -0.96677  3.42259
C    -1.29575  0.09516  4.54275
O    -0.62322  -0.13692  5.59196
H    -0.43402  -0.75378  1.55064
H    -2.25224  -0.66431  2.78098
C    -1.76730  -2.36815  4.01220
C    -2.55662  -3.26392  3.10463
N    -2.01129  -4.14071  2.16867
C    -3.91488  -3.45586  3.03008
C    -2.98127  -4.83584  1.55784
N    -4.14056  -4.42062  2.07223
H    -2.37293  -2.21559  4.91579
H    -0.85078  -2.87499  4.34188
H    -1.02240  -4.29332  1.98814
H    -4.72631  -3.00622  3.59018
H    -2.84837  -5.59717  0.79576
H    -5.05411  -4.78629  1.80156
N    -1.93624  1.24674  4.39125
C    -2.75392  1.72519  3.26551
H    -1.85176  1.88074  5.18747
H    -2.20367  1.66629  2.31957
H    -2.99034  2.77734  3.44898
H    -3.70035  1.17399  3.19784
Ba    1.61398  -0.76970  6.42055
