31
Energy: -244761.281269 eV PBE+vdW (tier 2 basis)
C    2.81328  -0.57688  2.07535
C    1.61461  -0.89113  2.90828
O    1.73063  -1.20992  4.12625
H    3.37814  0.24071  2.54438
H    2.57710  -0.30059  1.04248
H    3.47697  -1.45389  2.06733
N    0.40334  -0.82198  2.31599
C    -0.92014  -1.17099  2.86862
C    -1.21558  -0.37882  4.16767
O    -0.87229  -0.83050  5.30130
H    0.41053  -0.55561  1.33429
H    -1.63100  -0.82802  2.10752
C    -1.10880  -2.70682  3.03808
C    -2.53213  -3.17898  2.97465
N    -3.05280  -3.85906  1.87583
C    -3.56397  -3.11186  3.87889
C    -4.32911  -4.19833  2.09454
N    -4.65010  -3.74274  3.30787
H    -0.66174  -3.03362  3.98476
H    -0.53460  -3.19880  2.24168
H    -2.54534  -4.11382  1.02994
H    -3.60896  -2.69021  4.87501
H    -4.97666  -4.74585  1.41663
H    -5.56460  -3.86574  3.74277
N    -1.84404  0.78551  4.05721
C    -2.29468  1.48646  2.84465
H    -2.02918  1.25395  4.94500
H    -3.10265  0.93911  2.34286
H    -1.46236  1.65980  2.15280
H    -2.68785  2.46089  3.14840
Ba    1.29395  -1.23029  6.51799
