31
Energy: -244761.046978 eV PBE+vdW (tier 2 basis)
C    -1.62624  3.52032  0.77599
C    -0.91789  2.53189  1.63988
O    -0.00468  2.89094  2.43063
H    -2.27516  4.17196  1.38005
H    -2.21620  3.06261  -0.02327
H    -0.86704  4.17749  0.32850
N    -1.23345  1.20094  1.56983
C    -2.61194  0.73229  1.66213
C    -3.07562  0.92981  3.15521
O    -2.27836  1.45579  3.98786
H    -0.58423  0.63851  2.12318
H    -3.24262  1.39275  1.04880
C    -2.74834  -0.72849  1.15821
C    -2.56801  -0.91942  -0.32280
N    -1.67139  -1.83454  -0.86486
C    -3.24184  -0.39265  -1.39792
C    -1.78804  -1.87350  -2.19839
N    -2.73686  -0.99529  -2.53044
H    -3.73838  -1.11976  1.43394
H    -2.03184  -1.36419  1.69991
H    -1.03354  -2.43364  -0.34421
H    -4.04616  0.33061  -1.45356
H    -1.22122  -2.50195  -2.87796
H    -3.04729  -0.81834  -3.48605
N    -4.30312  0.56725  3.48640
C    -4.88805  0.71054  4.82756
H    -4.91478  0.19777  2.76298
H    -5.16292  1.75599  5.01666
H    -4.17338  0.37094  5.58376
H    -5.78761  0.09114  4.87975
Ba    -0.34580  2.82923  4.90124
