31
Energy: -244761.274963 eV PBE+vdW (tier 2 basis)
C    -0.11527  0.75886  -0.01596
C    -0.15327  0.45729  1.44337
O    0.90438  0.35478  2.12989
H    0.50556  0.01120  -0.52859
H    0.37761  1.73144  -0.16235
H    -1.10400  0.78853  -0.48567
N    -1.35509  0.29690  2.03821
C    -1.53054  0.12793  3.48812
C    -0.91313  -1.21679  3.96013
O    0.19280  -1.16360  4.57656
H    -2.18176  0.41418  1.45624
H    -0.90388  0.88233  3.98491
C    -3.01219  0.42220  3.86071
C    -3.31293  0.68337  5.30714
N    -3.83844  -0.25919  6.18842
C    -3.27688  1.85949  6.01581
C    -4.11521  0.30787  7.37009
N    -3.76930  1.59388  7.27498
H    -3.68322  -0.36139  3.48589
H    -3.28935  1.33669  3.31515
H    -4.05279  -1.23094  5.97778
H    -2.97787  2.85757  5.71804
H    -4.54832  -0.18267  8.23605
H    -3.88776  2.27785  8.02291
N    -1.48472  -2.39287  3.71137
C    -2.65998  -2.73873  2.90250
H    -0.96990  -3.18506  4.09949
H    -2.81493  -2.01869  2.09490
H    -3.56628  -2.81988  3.51680
H    -2.48038  -3.71758  2.44501
Ba    2.48305  -0.41595  3.83509
