31
Energy: -244761.165776 eV PBE+vdW (tier 2 basis)
C    -1.22773  -0.77929  -0.45130
C    -0.99154  -0.26482  0.92720
O    0.16669  0.02493  1.34120
H    -0.58991  -1.65506  -0.63176
H    -0.91598  -0.00896  -1.17260
H    -2.27148  -1.04544  -0.64840
N    -2.05313  -0.09584  1.75163
C    -1.90192  0.51036  3.07384
C    -1.12362  -0.42637  4.04020
O    0.05645  -0.07106  4.33583
H    -2.97356  -0.34285  1.39936
H    -1.17570  1.32378  2.94061
C    -3.15721  1.27553  3.59155
C    -4.49393  0.63449  3.82250
N    -4.97589  0.28722  5.08322
C    -5.55087  0.43195  2.96644
C    -6.25398  -0.10604  5.00599
N    -6.60794  -0.03161  3.72094
H    -3.31743  2.08897  2.86877
H    -2.84651  1.78001  4.51839
H    -4.47408  0.38193  5.96429
H    -5.65453  0.62608  1.90520
H    -6.88702  -0.41237  5.83328
H    -7.54010  -0.25101  3.36741
N    -1.61313  -1.56774  4.51366
C    -2.84800  -2.28307  4.19777
H    -0.96617  -2.06293  5.13118
H    -3.42957  -2.45102  5.11238
H    -2.60104  -3.26082  3.76479
H    -3.45114  -1.72538  3.47914
Ba    2.07096  0.35543  2.89127
