31
Energy: -244760.791207 eV PBE+vdW (tier 2 basis)
C    -0.19341  0.02177  0.56784
C    -0.53113  0.24369  2.01042
O    0.24386  0.90929  2.74432
H    -1.05084  0.18276  -0.09548
H    0.16970  -1.00489  0.40355
H    0.60532  0.71348  0.28127
N    -1.70678  -0.22335  2.55586
C    -2.15520  -1.62409  2.45491
C    -1.01435  -2.54457  3.00814
O    0.13372  -2.04860  3.23639
H    -1.82435  0.14758  3.50052
H    -2.98882  -1.70750  3.16865
C    -2.70382  -2.04025  1.06191
C    -4.05508  -1.48996  0.71519
N    -4.38548  -0.13800  0.65165
C    -5.18569  -2.15953  0.31784
C    -5.65188  0.01317  0.23823
N    -6.14325  -1.21008  0.03188
H    -2.79413  -3.13194  1.02624
H    -1.98340  -1.79031  0.27323
H    -3.77718  0.63954  0.89452
H    -5.37744  -3.21925  0.19795
H    -6.17806  0.95223  0.09993
H    -7.08989  -1.40280  -0.29700
N    -1.26446  -3.81594  3.28387
C    -2.51917  -4.57420  3.21799
H    -0.45446  -4.33730  3.62358
H    -2.56862  -5.16680  2.29486
H    -3.38738  -3.91205  3.29136
H    -2.54685  -5.26316  4.06933
Ba    1.90954  -0.41847  4.05268
