31
Energy: -244760.655986 eV PBE+vdW (tier 2 basis)
C    0.16755  -0.72611  -0.21069
C    0.04706  -0.42338  1.24582
O    1.10575  -0.47210  1.98951
H    0.72626  0.08294  -0.70462
H    -0.79278  -0.84116  -0.71967
H    0.74570  -1.64951  -0.34301
N    -1.10653  -0.09639  1.80516
C    -2.43910  0.10340  1.20674
C    -3.06064  1.23408  2.06289
O    -3.04673  1.05904  3.29151
H    -1.11961  0.09189  2.81624
H    -2.33114  0.37750  0.15345
C    -3.29420  -1.19880  1.36747
C    -4.78025  -1.02490  1.42044
N    -5.44385  -0.50650  2.52931
C    -5.76609  -1.40978  0.54716
C    -6.76630  -0.56557  2.34722
N    -6.97341  -1.11427  1.14529
H    -2.97821  -1.69062  2.29890
H    -3.05402  -1.88995  0.55002
H    -4.97407  -0.09805  3.34208
H    -5.70794  -1.88627  -0.42389
H    -7.52956  -0.23418  3.04311
H    -7.89327  -1.29933  0.74721
N    -3.61184  2.29181  1.45415
C    -3.65965  2.60689  0.02244
H    -3.98695  2.98758  2.09860
H    -4.10420  1.78777  -0.55597
H    -2.66591  2.85112  -0.37516
H    -4.29638  3.48645  -0.10922
Ba    3.22897  -0.58948  3.00550
