31
Energy: -244761.037966 eV PBE+vdW (tier 2 basis)
C    -1.32235  3.39351  0.45100
C    -0.63181  2.40699  1.33044
O    0.32237  2.74837  2.07662
H    -1.91541  4.09900  1.05265
H    -1.96659  2.93587  -0.30548
H    -0.55109  3.99681  -0.04906
N    -1.01306  1.08664  1.32136
C    -2.41245  0.69678  1.49651
C    -2.79168  0.98214  2.99693
O    -1.92339  1.47934  3.77553
H    -0.38324  0.52743  1.90096
H    -3.03821  1.35543  0.87634
C    -2.64054  -0.77836  1.06475
C    -2.64884  -1.03838  -0.41210
N    -1.51390  -1.13751  -1.21321
C    -3.70580  -1.31290  -1.24470
C    -1.85527  -1.45956  -2.46806
N    -3.18598  -1.56334  -2.49608
H    -3.60694  -1.12811  1.44981
H    -1.89088  -1.42044  1.55449
H    -0.55050  -1.01865  -0.91054
H    -4.76920  -1.37409  -1.04573
H    -1.17790  -1.61348  -3.30191
H    -3.72717  -1.81294  -3.32446
N    -4.02489  0.72185  3.39500
C    -4.53195  0.95171  4.75597
H    -4.69420  0.37363  2.71345
H    -5.50531  0.46244  4.84850
H    -4.65322  2.02585  4.94376
H    -3.84254  0.52062  5.48946
Ba    0.10094  2.78035  4.57079
