31
Energy: -244761.053742 eV PBE+vdW (tier 2 basis)
C    -1.07649  3.09210  0.73296
C    -0.40089  2.01737  1.51576
O    0.58020  2.26760  2.26317
H    -0.29826  3.73022  0.29133
H    -1.66229  3.74402  1.39905
H    -1.72756  2.71535  -0.06138
N    -0.82964  0.71576  1.41528
C    -2.23912  0.36453  1.58960
C    -2.57945  0.54643  3.11538
O    -1.68007  0.95629  3.90948
H    -0.21000  0.09210  1.93719
H    -2.85013  1.09261  1.03588
C    -2.53271  -1.06224  1.04821
C    -2.57046  -1.20360  -0.44441
N    -1.45030  -1.30937  -1.26515
C    -3.64889  -1.34446  -1.28274
C    -1.82066  -1.50862  -2.53707
N    -3.15547  -1.52643  -2.55640
H    -3.50756  -1.40239  1.42047
H    -1.80365  -1.77029  1.47368
H    -0.47913  -1.27585  -0.96611
H    -4.71258  -1.35480  -1.07601
H    -1.16084  -1.63794  -3.38897
H    -3.71750  -1.67568  -3.39489
N    -3.81239  0.29521  3.51986
C    -4.28681  0.44006  4.90394
H    -4.50606  0.02117  2.82882
H    -3.58154  -0.03706  5.59210
H    -5.25923  -0.05255  4.98866
H    -4.40052  1.50068  5.16151
Ba    0.40498  2.12180  4.75680
