31
Energy: -244760.789360 eV PBE+vdW (tier 2 basis)
C    -0.97244  0.47868  -0.63936
C    -0.55559  0.08816  0.73519
O    0.59818  -0.36435  0.97029
H    -0.28860  1.22558  -1.06487
H    -2.00734  0.82514  -0.71340
H    -0.86711  -0.41766  -1.27283
N    -1.44150  0.16735  1.78048
C    -2.14905  1.40380  2.09393
C    -1.12495  2.35357  2.79787
O    0.04211  1.91817  3.05919
H    -1.05569  -0.27626  2.61538
H    -2.40477  1.89604  1.14375
C    -3.51755  1.14325  2.79988
C    -3.60461  0.14096  3.91279
N    -3.76416  0.47426  5.25711
C    -3.74239  -1.22621  3.86299
C    -3.99629  -0.62325  5.98878
N    -3.97465  -1.66227  5.15009
H    -4.19736  0.79611  2.00984
H    -3.93811  2.09629  3.14404
H    -3.78157  1.41434  5.64681
H    -3.74136  -1.90530  3.01873
H    -4.17932  -0.65960  7.05809
H    -4.14890  -2.62850  5.42782
N    -1.44901  3.61331  3.05748
C    -2.65181  4.37642  2.69685
H    -0.71140  4.14845  3.51869
H    -3.34422  4.44985  3.54542
H    -3.16108  3.93574  1.83444
H    -2.34175  5.39084  2.42299
Ba    2.24665  0.79197  2.43401
