31
Energy: -244761.545292 eV PBE+vdW (tier 2 basis)
C    -0.00940  1.20749  0.66690
C    -0.09247  0.82520  2.10733
O    0.86862  1.02177  2.90236
H    0.25040  2.27294  0.59331
H    -0.93158  1.02144  0.10630
H    0.81210  0.65240  0.19163
N    -1.23701  0.25752  2.55536
C    -1.46095  -0.13296  3.95397
C    -0.52036  -1.30858  4.36182
O    0.52528  -1.00384  5.01153
H    -1.97057  0.08022  1.87336
H    -1.09949  0.69316  4.58304
C    -2.95216  -0.36833  4.27106
C    -3.80772  0.86384  4.37768
N    -5.09211  0.79491  4.91152
C    -3.63353  2.17719  4.02200
C    -5.67524  1.99935  4.88834
N    -4.79698  2.84699  4.35062
H    -3.00039  -0.90518  5.23164
H    -3.40404  -1.04587  3.53070
H    -5.54796  -0.03952  5.27833
H    -2.79851  2.68945  3.56308
H    -6.67287  2.23894  5.24352
H    -4.97412  3.84085  4.20640
N    -0.75777  -2.57369  4.03947
C    -1.82511  -3.18763  3.24075
H    -0.06625  -3.22307  4.41898
H    -2.12342  -2.53994  2.41078
H    -2.69190  -3.44321  3.86328
H    -1.43118  -4.11434  2.81095
Ba    2.51468  0.44051  4.66398
