21
Energy: -604615.600573 eV PBE+vdW (tier 2 basis)
N    0.174582  -0.528063  0.146399
C    -0.007014  -0.237255  1.620292
C    1.346752  -0.312664  2.344585
O    1.466679  -0.641835  3.496864
H    -0.582908  -0.119569  -0.413288
H    1.070990  -0.146104  -0.185973
H    -0.320174  0.815593  1.696412
C    -1.108526  -1.110817  2.241828
C    -0.783827  -2.550653  2.678867
C    -0.385247  -3.541007  1.620764
O    -0.415585  -4.842810  2.030875
N    -0.022446  -3.216693  0.439753
H    -1.977287  -1.105955  1.566372
H    -1.439716  -0.586998  3.147997
H    -1.670221  -2.950570  3.192430
H    0.016801  -2.538521  3.436856
H    0.232019  -4.006644  -0.160928
H    0.153251  -1.609434  0.043855
O    2.344698  0.084025  1.523880
H    3.186271  0.108837  2.025087
Pb    -0.515780  -6.724607  2.863982
