21
Energy: -604617.382551 eV PBE+vdW (tier 2 basis)
N    0.278275  -0.466985  -0.250627
C    0.144127  0.162555  1.090845
C    0.914030  -0.681551  2.104438
O    1.298771  -1.845159  1.890063
H    -0.463436  -0.131765  -0.872991
H    1.155281  -0.164482  -0.690233
H    0.641176  1.145757  1.098890
C    -1.333132  0.426769  1.499036
C    -2.431577  -0.590908  1.108851
C    -2.337287  -1.973405  1.707696
O    -1.477101  -2.822830  1.300534
N    -3.181168  -2.322971  2.663272
H    -1.621439  1.377295  1.030220
H    -1.354501  0.615036  2.580658
H    -2.482569  -0.726347  0.017454
H    -3.389843  -0.131743  1.385694
H    -3.912057  -1.699053  2.993448
H    -3.150976  -3.263698  3.054535
O    1.146621  -0.048149  3.224190
H    1.652860  -0.603920  3.858112
Pb    0.390113  -2.982420  0.030614
