21
Energy: -604614.958477 eV PBE+vdW (tier 2 basis)
N    1.292078  0.405983  0.718139
C    1.046888  -0.523819  1.797364
C    2.123381  -1.641565  1.783731
O    2.019495  -2.664824  1.129850
H    1.596842  0.004595  -0.165972
H    1.862262  1.211546  0.965303
H    1.154177  0.022219  2.742638
C    -0.381699  -1.122213  1.770502
C    -0.730549  -1.845082  0.466811
C    -2.057203  -2.519611  0.405820
O    -2.387525  -3.199638  -0.652770
N    -2.918844  -2.456294  1.397368
H    -1.067443  -0.278854  1.942083
H    -0.461408  -1.813392  2.624420
H    0.035574  -2.617819  0.263967
H    -0.695610  -1.150108  -0.390863
H    -2.707526  -1.923002  2.237788
H    -3.822951  -2.922033  1.348379
O    3.178055  -1.303068  2.523969
H    3.866096  -1.998458  2.451881
Pb    -2.449554  -4.320445  -2.482486
