21
Energy: -604616.163945 eV PBE+vdW (tier 2 basis)
N    -0.159761  -1.005488  -0.198075
C    -0.277460  -0.277836  1.051569
C    1.190802  -0.253159  1.489806
O    2.007412  0.537566  0.892377
H    -0.578395  -1.930697  -0.210430
H    -0.362867  -0.476556  -1.040210
H    -0.574184  0.766553  0.871151
C    -1.257367  -0.948623  2.022008
C    -1.364272  -0.319453  3.441032
C    -0.913625  -1.242463  4.531358
O    0.236879  -1.847512  4.476181
N    -1.651119  -1.481348  5.586800
H    -1.016832  -2.020256  2.092728
H    -2.244826  -0.898002  1.546995
H    -2.390334  0.008785  3.642351
H    -0.743273  0.589267  3.524498
H    -2.567710  -1.057827  5.701786
H    -1.317047  -2.102510  6.324422
O    1.682572  -1.080647  2.364811
H    0.753485  -1.613778  3.643561
Pb    3.877898  -0.361208  1.773541
