21
Energy: -604616.144656 eV PBE+vdW (tier 2 basis)
N    -0.159277  0.225407  0.071251
C    -0.063808  -0.122445  1.463611
C    1.397492  -0.339800  1.833624
O    2.283296  -0.576478  0.947102
H    -0.108979  -0.567257  -0.566698
H    -0.982539  0.783206  -0.142459
H    -0.363604  0.765828  2.045417
C    -0.970061  -1.325712  1.900112
C    -0.952509  -1.838629  3.368159
C    -1.226052  -0.795831  4.406915
O    -0.325654  0.090098  4.728937
N    -2.373107  -0.715780  5.033771
H    -0.728209  -2.189350  1.264579
H    -1.992303  -1.023683  1.635242
H    0.019202  -2.292230  3.614567
H    -1.696247  -2.641578  3.452858
H    -3.122317  -1.379489  4.857446
H    -2.531112  0.004688  5.739434
O    1.781535  -0.263923  3.077317
H    0.519287  -0.032107  4.201087
Pb    4.046088  -0.418258  2.373441
