21
Energy: -604615.416557 eV PBE+vdW (tier 2 basis)
N    -0.317154  -0.142490  0.219714
C    -0.357153  -0.591966  1.654941
C    1.009971  -0.211973  2.252788
O    1.777807  0.505420  1.650995
H    0.167043  -0.816282  -0.387037
H    0.230988  0.734851  0.171769
H    -1.105575  0.058136  2.132458
C    -0.762906  -2.062445  1.819886
C    -1.949929  -2.586831  0.965696
C    -3.168236  -1.693287  0.842056
O    -4.354676  -2.252840  1.226529
N    -3.074714  -0.513885  0.365877
H    -0.979479  -2.202709  2.886304
H    0.096899  -2.712138  1.601057
H    -2.243800  -3.561219  1.370401
H    -1.613495  -2.783028  -0.064835
H    -1.324933  -0.035842  -0.079835
H    -3.956828  0.002057  0.297704
O    1.176519  -0.732700  3.467767
H    2.037098  -0.432143  3.830290
Pb    -6.203494  -3.106863  1.555169
