21
Energy: -604617.212408 eV PBE+vdW (tier 2 basis)
N    0.087323  -2.235134  0.950698
C    0.140055  -0.746663  0.917624
C    1.604119  -0.305194  0.984901
O    2.466551  -1.000283  1.546406
H    -0.827245  -2.542205  1.296759
H    0.162327  -2.606174  -0.003274
H    -0.298875  -0.393352  -0.028908
C    -0.662626  -0.069967  2.066673
C    -0.056550  0.032998  3.486837
C    -0.060540  -1.222371  4.328954
O    0.559713  -2.282114  3.984776
N    -0.718258  -1.213894  5.475606
H    -1.656349  -0.541877  2.100724
H    -0.853879  0.962044  1.741949
H    -0.612989  0.819352  4.012531
H    0.986151  0.389157  3.452449
H    -1.226215  -0.397521  5.803975
H    -0.700112  -2.033560  6.081315
O    1.967117  0.863288  0.521434
H    1.265730  1.342812  0.036094
Pb    1.943703  -3.129061  2.402280
