21
Energy: -604617.338838 eV PBE+vdW (tier 2 basis)
N    0.773480  0.546523  1.262566
C    -0.004730  -0.185668  2.347708
C    0.872257  -1.338265  2.824267
O    0.574718  -1.905170  3.911927
H    1.382251  1.275236  1.662953
H    0.163583  0.999240  0.567912
H    -0.202487  0.528406  3.155542
C    -1.343823  -0.760369  1.828461
C    -1.283869  -1.987513  0.868320
C    -1.449821  -3.342902  1.543369
O    -0.489761  -3.981367  2.074379
N    -2.662918  -3.877492  1.552358
H    -1.893293  0.053150  1.332752
H    -1.933321  -1.001521  2.723075
H    -0.345284  -2.026379  0.298547
H    -2.084196  -1.873766  0.126847
H    -2.815230  -4.786593  1.985977
H    -3.455248  -3.437679  1.094238
O    1.746777  -1.782459  2.008541
H    1.392737  -0.146131  0.797179
Pb    1.537452  -3.935411  3.143030
