21
Energy: -604617.371492 eV PBE+vdW (tier 2 basis)
N    0.366700  0.197308  -0.181226
C    -0.000235  0.180472  1.292112
C    1.265126  -0.130766  2.080477
O    2.093214  -0.944519  1.558248
H    0.798513  1.091453  -0.458526
H    1.066171  -0.551228  -0.346325
H    -0.404011  1.164740  1.556701
C    -1.025554  -0.952850  1.551483
C    -1.354623  -1.213060  3.048573
C    -0.684883  -2.441306  3.644292
O    0.576396  -2.593409  3.707647
N    -1.470388  -3.399339  4.114512
H    -0.653754  -1.875750  1.081043
H    -1.959616  -0.681896  1.040475
H    -2.440801  -1.310848  3.153718
H    -1.064034  -0.353260  3.670773
H    -2.483334  -3.338609  4.077961
H    -1.061832  -4.227721  4.543996
O    1.338120  0.279289  3.275241
H    -0.448174  0.041780  -0.792622
Pb    2.656690  -1.617739  3.825285
