21
Energy: -604615.691823 eV PBE+vdW (tier 2 basis)
N    -0.824702  0.462615  0.062121
C    -0.285878  0.486456  1.467437
C    1.247976  0.507654  1.292716
O    1.758588  0.244318  0.224376
H    -0.051803  0.082726  -0.527243
H    -1.030547  1.405210  -0.287028
H    -0.614496  1.410619  1.960576
C    -0.710256  -0.752592  2.278288
C    -2.162259  -0.832018  2.787515
C    -3.222225  -1.198449  1.777248
O    -4.367729  -1.706547  2.321748
N    -3.072509  -1.038277  0.521718
H    -0.066624  -0.761312  3.168218
H    -0.456547  -1.662461  1.713183
H    -2.467949  0.115442  3.263736
H    -2.197464  -1.581841  3.590157
H    -1.710906  -0.142091  0.026481
H    -3.869830  -1.327767  -0.052453
O    1.868277  0.812812  2.428069
H    2.838468  0.798868  2.284089
Pb    -6.062305  -2.538309  3.148348
