21
Energy: -604616.053018 eV PBE+vdW (tier 2 basis)
N    -0.239011  -0.730743  0.244040
C    0.384206  -0.815380  1.594404
C    1.541946  -1.818867  1.540336
O    2.151887  -2.012164  0.459521
H    -0.892746  -1.521853  0.145985
H    -0.946655  0.159732  0.360679
H    0.906670  0.147901  1.759513
C    -0.670832  -0.969863  2.708892
C    -1.401311  0.332729  3.103483
C    -2.220663  1.053183  2.035952
O    -1.890154  1.080553  0.820500
N    -3.287858  1.728154  2.453448
H    -0.191043  -1.320460  3.637188
H    -1.387698  -1.757424  2.429679
H    -0.664473  1.070100  3.465123
H    -2.041141  0.106111  3.966440
H    -3.583768  1.742688  3.423452
H    -3.816592  2.286362  1.786754
O    1.994891  -2.439081  2.587713
H    1.477931  -2.270230  3.402411
Pb    1.388469  -1.015925  -1.463260
