21
Energy: -604615.180584 eV PBE+vdW (tier 2 basis)
N    -0.159272  -0.262286  -0.184303
C    -0.093159  -0.102132  1.244928
C    1.332626  0.297406  1.710131
O    2.025807  -0.345583  2.491309
H    -0.185878  0.590553  -0.737308
H    0.436945  -0.976284  -0.597535
H    -0.744109  0.747921  1.507356
C    -0.606936  -1.381205  1.933768
C    -0.891524  -1.255384  3.461512
C    -0.095351  -2.182722  4.340387
O    -0.708247  -2.940964  5.210654
N    1.204347  -2.222838  4.236303
H    0.090002  -2.207110  1.733062
H    -1.543769  -1.643522  1.429659
H    -1.952805  -1.428390  3.666412
H    -0.674147  -0.233795  3.816927
H    1.661474  -1.575505  3.543380
H    1.768791  -2.841129  4.815312
O    1.730336  1.422947  1.132983
H    2.642804  1.642148  1.417823
Pb    -1.854606  -3.973938  6.684971
