21
Energy: -604614.833624 eV PBE+vdW (tier 2 basis)
N    -0.246469  0.255551  0.093700
C    -0.524929  0.161016  1.493522
C    0.747130  0.346190  2.370333
O    1.842711  -0.053748  2.099457
H    0.488116  -0.355625  -0.260594
H    -0.184665  1.193583  -0.293680
H    -1.224145  0.969169  1.751846
C    -1.165574  -1.224213  1.782845
C    -1.456738  -1.589114  3.263993
C    -2.532173  -0.769157  3.915852
O    -3.742253  -1.233219  4.022512
N    -2.262898  0.433941  4.366898
H    -0.484340  -2.002052  1.408731
H    -2.079980  -1.289581  1.178417
H    -0.540671  -1.502917  3.866714
H    -1.766331  -2.639951  3.302808
H    -1.306982  0.811341  4.272092
H    -2.980010  1.014277  4.798203
O    0.443280  1.017693  3.537051
H    1.280100  1.140852  4.035038
Pb    -5.553238  -2.355419  4.329046
