21
Energy: -604617.127449 eV PBE+vdW (tier 2 basis)
N    0.159660  0.933909  0.188925
C    -0.005520  0.047123  1.369805
C    1.237797  -0.844141  1.490842
O    2.017409  -1.034291  0.544710
H    -0.748913  1.302772  -0.108195
H    0.714255  1.757961  0.447950
H    -0.040585  0.659078  2.287088
C    -1.334055  -0.767060  1.337376
C    -1.886921  -1.289804  -0.010660
C    -1.064138  -2.320537  -0.748920
O    -0.029219  -1.994404  -1.416376
N    -1.442826  -3.586901  -0.725460
H    -2.113219  -0.110899  1.748386
H    -1.248353  -1.601174  2.048109
H    -2.062013  -0.464265  -0.716670
H    -2.882862  -1.698907  0.205873
H    -2.290527  -3.890855  -0.254871
H    -0.912798  -4.288211  -1.241846
O    1.497688  -1.447744  2.623628
H    0.904812  -1.201038  3.361868
Pb    1.473519  -0.315132  -1.612603
