21
Energy: -604615.206984 eV PBE+vdW (tier 2 basis)
N    -0.070865  -0.362495  0.179475
C    -0.158664  -0.288059  1.641564
C    1.143218  -0.802412  2.250305
O    1.384760  -1.990980  2.476285
H    -0.013877  0.550191  -0.268095
H    0.682825  -0.949815  -0.173787
H    -0.239722  0.766824  1.930812
C    -1.427611  -1.011739  2.190322
C    -1.984650  -2.146888  1.306436
C    -1.571355  -3.548957  1.597536
O    -2.434080  -4.524684  1.345569
N    -0.396414  -3.857786  2.056992
H    -2.218650  -0.252621  2.226391
H    -1.276480  -1.332828  3.229900
H    -1.664409  -1.915949  0.263755
H    -3.080700  -2.125440  1.302508
H    0.337483  -3.089176  2.253283
H    -0.147246  -4.832130  2.221352
O    2.019869  0.163706  2.467281
H    2.857512  -0.213819  2.812324
Pb    -4.005894  -5.808527  0.819102
