21
Energy: -604616.782876 eV PBE+vdW (tier 2 basis)
N    0.554806  0.096395  0.066218
C    -0.109810  0.276574  1.416271
C    0.997627  0.988865  2.255856
O    0.692602  1.316261  3.479797
H    0.102191  0.615391  -0.694962
H    0.652189  -0.884456  -0.221567
H    -0.933280  0.990334  1.278555
C    -0.609357  -1.043071  2.046832
C    -2.128838  -1.233037  2.097185
C    -2.878475  -0.319310  3.049270
O    -2.310560  0.270520  4.023290
N    -4.182434  -0.176068  2.872303
H    -0.194394  -1.133757  3.059084
H    -0.181124  -1.898113  1.504259
H    -2.339871  -2.261672  2.436468
H    -2.579891  -1.158564  1.096541
H    -4.735286  0.365064  3.534617
H    -4.680789  -0.650501  2.124086
O    2.071013  1.203766  1.714436
H    1.524654  0.515336  0.259950
Pb    -0.620079  1.243947  5.196417
