21
Energy: -604614.974752 eV PBE+vdW (tier 2 basis)
N    -0.326770  0.212353  0.306732
C    0.207471  -0.096060  1.601313
C    1.772001  -0.192275  1.676961
O    2.344092  -0.853299  2.511666
H    -0.182707  1.170800  -0.004676
H    -0.082602  -0.442451  -0.435572
H    -0.028440  0.747284  2.274135
C    -0.394449  -1.389863  2.181930
C    -1.896523  -1.245415  2.438170
C    -2.601301  -2.438373  3.005681
O    -3.872491  -2.378659  3.245637
N    -1.958963  -3.555248  3.272245
H    0.154077  -1.615755  3.107623
H    -0.200559  -2.209917  1.470969
H    -2.421292  -0.973804  1.505502
H    -2.097254  -0.413004  3.134777
H    -0.957253  -3.633716  3.111263
H    -2.439673  -4.366244  3.656836
O    2.349744  0.566358  0.741779
H    3.323653  0.522298  0.850376
Pb    -5.975234  -1.950185  3.528001
