21
Energy: -604616.829817 eV PBE+vdW (tier 2 basis)
N    -0.659014  0.223734  0.609517
C    0.003144  -0.249523  1.837044
C    1.503269  -0.482793  1.694103
O    2.094468  -0.272997  0.576560
H    -0.210605  1.061551  0.229613
H    -0.656906  -0.478057  -0.135523
H    -0.083469  0.567188  2.574353
C    -0.689581  -1.507987  2.434657
C    -2.226407  -1.618982  2.245739
C    -3.049237  -0.380493  2.500897
O    -2.840702  0.690933  1.824414
N    -4.025487  -0.385267  3.384058
H    -0.440914  -1.546316  3.501810
H    -0.263615  -2.415817  1.985631
H    -2.578518  -2.443387  2.877966
H    -2.459803  -1.917020  1.211005
H    -4.251562  -1.209678  3.931295
H    -4.610659  0.441456  3.500975
O    2.179673  -0.870099  2.714839
H    -1.975368  0.545984  1.157266
Pb    4.153926  -0.798214  1.528661
