21
Energy: -604615.809629 eV PBE+vdW (tier 2 basis)
N    0.177046  -0.111820  0.058113
C    -0.036751  0.034615  1.479273
C    1.213600  -0.251020  2.354106
O    1.291709  -1.194552  3.180676
H    0.765624  -0.902058  -0.204744
H    0.546825  0.730531  -0.379601
H    -0.335039  1.074758  1.682805
C    -1.094559  -0.934404  2.002187
C    -2.513665  -1.065311  1.494102
C    -3.159280  -2.227183  2.247847
O    -2.512049  -2.890610  3.136358
N    -4.408116  -2.553053  1.982384
H    -1.170733  -0.720682  3.089132
H    -0.638031  -1.933648  1.822957
H    -2.534116  -1.262103  0.411566
H    -3.102461  -0.151446  1.665258
H    -4.955810  -2.055842  1.284028
H    -4.857007  -3.322141  2.478076
O    2.218905  0.547850  2.116167
H    3.008042  0.315000  2.654035
Pb    -0.362805  -2.825099  4.011316
