21
Energy: -604616.332148 eV PBE+vdW (tier 2 basis)
N    0.693497  -0.468812  0.099861
C    -0.077405  -0.175520  1.290525
C    0.892461  -0.075407  2.463691
O    1.245171  -1.045705  3.199271
H    1.211248  0.320278  -0.282323
H    1.276626  -1.302577  0.136375
H    -0.526975  0.819949  1.161686
C    -1.178736  -1.215269  1.507469
C    -2.114265  -0.894337  2.697476
C    -2.475912  -2.093611  3.528207
O    -1.565629  -2.853204  4.031578
N    -3.736224  -2.376330  3.779719
H    -0.722935  -2.217501  1.612603
H    -1.753740  -1.275103  0.575516
H    -3.017608  -0.382084  2.345645
H    -1.628891  -0.195858  3.402086
H    -4.496937  -1.814112  3.405865
H    -3.980749  -3.169204  4.372884
O    1.451192  1.098001  2.601585
H    2.169411  1.094646  3.272396
Pb    0.647337  -3.092198  4.018918
