21
Energy: -604616.112355 eV PBE+vdW (tier 2 basis)
N    -1.085841  0.661306  1.058923
C    -0.387570  -0.034666  2.128105
C    0.981635  -0.273428  1.492603
O    1.978611  0.456741  1.823053
H    -1.743114  0.124392  0.502903
H    -1.475909  1.559357  1.328268
H    -0.198912  0.693068  2.927931
C    -1.074556  -1.241006  2.811969
C    -1.106995  -2.646365  2.150275
C    -1.722700  -2.736560  0.789082
O    -1.108900  -2.271080  -0.261359
N    -2.895170  -3.285208  0.588078
H    -2.102130  -0.915984  3.030680
H    -0.593397  -1.396533  3.787809
H    -1.646361  -3.316910  2.831533
H    -0.087664  -3.053124  2.063780
H    -3.432144  -3.684735  1.353028
H    -3.283991  -3.353806  -0.353160
O    1.158527  -1.138373  0.530932
H    -0.206898  -1.883838  -0.020621
Pb    3.365795  -0.336088  0.210357
