21
Energy: -604615.709691 eV PBE+vdW (tier 2 basis)
N    -0.683374  0.513480  0.431328
C    -0.237888  -0.032243  1.762836
C    1.102622  -0.732051  1.480379
O    1.603074  -0.730554  0.374745
H    0.139287  0.439976  -0.203298
H    -0.999359  1.486390  0.488181
H    -0.021788  0.821942  2.420252
C    -1.300893  -0.902110  2.458053
C    -1.592979  -2.313635  1.912976
C    -2.387429  -2.402981  0.633699
O    -2.978719  -3.615871  0.421474
N    -2.493162  -1.436549  -0.190708
H    -2.235242  -0.326190  2.526686
H    -0.953434  -1.028063  3.491889
H    -2.147602  -2.863620  2.686180
H    -0.662399  -2.888640  1.767439
H    -1.469566  -0.115641  0.047207
H    -3.058244  -1.632777  -1.022100
O    1.604398  -1.293817  2.579823
H    2.490290  -1.662252  2.377437
Pb    -3.912032  -5.427638  0.117783
