25
Energy: -242283.115541 eV PBE+vdW (tier 2 basis)
N    -0.883596  1.056086  0.884686
C    -0.133531  0.233894  1.887668
C    1.293866  0.014608  1.346958
O    1.543453  0.140254  0.167350
H    -0.503414  0.738694  -0.027514
H    -0.495660  2.006755  0.943988
H    -0.083921  0.790626  2.832800
C    -0.794777  -1.144037  2.106202
C    -2.270775  -1.081575  2.418367
C    -3.204094  -1.792662  1.637575
C    -2.778760  -0.329598  3.502968
C    -4.581712  -1.752316  1.902617
C    -4.146636  -0.268871  3.780429
C    -5.068805  -1.007039  2.999288
O    -6.356850  -0.933560  3.357940
H    -0.260013  -1.649841  2.924018
H    -0.641096  -1.764397  1.211217
H    -2.850318  -2.412921  0.811412
H    -2.093658  0.204968  4.163854
H    -5.266567  -2.348233  1.295881
H    -4.519588  0.284938  4.642851
H    -6.916470  -1.572366  2.878915
O    2.137769  -0.351970  2.312014
H    3.023468  -0.517556  1.924416
Ba    -3.622963  1.158327  0.974860
