25
Energy: -242282.491998 eV PBE+vdW (tier 2 basis)
N    -0.047728  0.482151  0.319155
C    0.325379  -0.065297  1.590267
C    1.699260  -0.753891  1.589748
O    2.244353  -1.334486  0.709825
H    -0.204010  -0.230174  -0.394932
H    0.619917  1.161216  -0.044272
H    0.374763  0.771743  2.315281
C    -0.767173  -1.071371  2.061342
C    -0.774522  -1.393303  3.534558
C    -0.122799  -2.531405  4.059793
C    -1.496012  -0.588779  4.443452
C    -0.181349  -2.853864  5.420695
C    -1.576099  -0.898271  5.809490
C    -0.945401  -2.061114  6.309309
O    -0.996376  -2.462715  7.587604
H    -0.679671  -1.995372  1.472389
H    -1.721388  -0.603998  1.782642
H    0.417689  -3.200902  3.388185
H    -2.042831  0.281292  4.073548
H    0.287502  -3.762294  5.801334
H    -2.187489  -0.278570  6.468828
H    -1.664276  -1.977731  8.106904
O    2.393097  -0.620630  2.874886
H    3.279437  -1.001150  2.689923
Ba    1.443317  -0.201514  5.290067
