25
Energy: -242284.038216 eV PBE+vdW (tier 2 basis)
N    -0.384919  0.926720  2.440404
C    0.177019  -0.377767  2.001403
C    0.033080  -0.456232  0.489217
O    -0.900971  0.089626  -0.117619
H    -0.387049  0.949050  3.464674
H    0.264058  1.673918  2.170641
H    1.242165  -0.486845  2.253365
C    -0.594362  -1.558620  2.673625
C    -2.098668  -1.477253  2.545676
C    -2.881587  -0.844531  3.536654
C    -2.780501  -2.023403  1.439960
C    -4.268213  -0.725897  3.419180
C    -4.170019  -1.920211  1.303153
C    -4.935319  -1.285091  2.305805
O    -6.270983  -1.167792  2.278507
H    -0.309343  -1.562069  3.735211
H    -0.213658  -2.499457  2.254594
H    -2.404584  -0.460884  4.440387
H    -2.224631  -2.559630  0.669607
H    -4.862481  -0.272019  4.212546
H    -4.664809  -2.387051  0.449484
H    -6.675535  -1.696328  1.566571
O    0.958225  -1.186505  -0.090093
H    0.812748  -1.239207  -1.059833
Ba    -2.907664  1.124476  1.136882
