25
Energy: -242282.734637 eV PBE+vdW (tier 2 basis)
N    -0.868745  1.315651  1.339047
C    -0.309837  0.261551  2.247040
C    1.239035  0.366114  2.141682
O    1.720030  0.880439  1.156465
H    -0.095267  1.427790  0.645358
H    -0.813080  2.202777  1.855689
H    -0.655814  0.464251  3.270453
C    -0.724152  -1.158669  1.795900
C    -2.197194  -1.324709  1.502997
C    -2.623508  -1.854499  0.265231
C    -3.199666  -0.980293  2.434078
C    -3.978362  -2.015805  -0.045457
C    -4.561516  -1.134650  2.145200
C    -4.969481  -1.683655  0.906400
O    -6.242955  -1.904420  0.558661
H    -0.418909  -1.879346  2.570315
H    -0.150054  -1.426785  0.897258
H    -1.878220  -2.168215  -0.469040
H    -2.923963  -0.598427  3.418673
H    -4.287699  -2.462718  -0.991034
H    -5.305801  -0.887630  2.904968
H    -6.861845  -1.788862  1.303156
O    1.996385  -0.168861  3.098992
H    1.486465  -0.490666  3.864938
Ba    -3.310847  1.083634  0.131032
