25
Energy: -242283.811975 eV PBE+vdW (tier 2 basis)
N    0.311778  -0.301744  -0.136383
C    0.672718  -0.776422  1.253508
C    2.157051  -1.224885  1.096303
O    2.763806  -1.532011  2.189597
H    1.191260  -0.617071  -0.675601
H    0.214758  0.717537  -0.205844
H    0.606874  0.076377  1.939546
C    -0.262113  -1.927017  1.690458
C    0.049113  -2.566467  3.029425
C    -0.030631  -1.846580  4.239636
C    0.336134  -3.939744  3.112846
C    0.153116  -2.468860  5.477536
C    0.512372  -4.587180  4.346261
C    0.389295  -3.860464  5.547498
O    0.510352  -4.394808  6.777493
H    -0.240747  -2.708787  0.916316
H    -1.293878  -1.541374  1.723976
H    -0.276994  -0.783500  4.230687
H    0.392163  -4.537140  2.201450
H    0.037569  -1.909594  6.406471
H    0.679694  -5.665829  4.369211
H    0.495455  -5.368810  6.757919
O    2.607714  -1.269304  -0.047967
H    -0.534410  -0.734448  -0.524350
Ba    3.118554  -2.651875  4.203006
