25
Energy: -242282.033928 eV PBE+vdW (tier 2 basis)
N    -0.765363  0.684318  0.608898
C    -0.087134  0.259720  1.813408
C    1.410287  -0.011943  1.564760
O    1.854189  -0.259084  0.468676
H    -0.240831  0.364382  -0.211671
H    -0.841636  1.698170  0.550738
H    -0.186962  1.018361  2.600955
C    -0.715233  -1.085549  2.347780
C    -2.181735  -0.887812  2.570661
C    -2.711553  -0.596760  3.848452
C    -3.071816  -0.808410  1.467245
C    -4.060040  -0.263119  4.037518
C    -4.423777  -0.457030  1.636664
C    -4.923273  -0.137989  2.920319
O    -6.187083  0.235411  3.173332
H    -0.200537  -1.382386  3.270624
H    -0.525103  -1.853979  1.583286
H    -2.050779  -0.611557  4.718223
H    -2.698679  -1.017533  0.465721
H    -4.442503  -0.011044  5.027624
H    -5.071551  -0.370414  0.761273
H    -6.679886  0.459357  2.362057
O    2.112882  0.027315  2.712091
H    3.053041  -0.153420  2.503143
Ba    -4.097291  -3.136952  3.074351
