25
Energy: -242282.121107 eV PBE+vdW (tier 2 basis)
N    0.280319  -1.231408  0.372171
C    -0.241677  -0.417406  1.460219
C    0.846969  0.391783  2.174915
O    0.910389  0.535095  3.379460
H    1.191342  -0.900047  0.057621
H    -0.339447  -1.222230  -0.436915
H    -0.964051  0.340636  1.103554
C    -1.030037  -1.293118  2.491381
C    -0.155522  -2.355069  3.091902
C    0.467619  -2.178316  4.351112
C    0.201096  -3.507554  2.349647
C    1.387893  -3.105332  4.857627
C    1.132287  -4.442610  2.838543
C    1.770252  -4.227860  4.081425
O    2.693662  -5.044245  4.612711
H    -1.869051  -1.738946  1.938311
H    -1.441141  -0.634360  3.266056
H    0.251987  -1.276092  4.925025
H    -0.240882  -3.664669  1.365970
H    1.885698  -2.934064  5.813293
H    1.409509  -5.300640  2.222004
H    3.026541  -5.698503  3.970744
O    1.698807  0.944098  1.295623
H    2.341218  1.495521  1.787940
Ba    -1.243390  -4.576043  4.774162
