25
Energy: -242282.874073 eV PBE+vdW (tier 2 basis)
N    0.017400  0.261281  0.348634
C    0.213752  0.017286  1.803137
C    1.614989  -0.488837  2.047445
O    2.260622  -1.061681  1.141628
H    -0.993700  0.101057  0.184292
H    0.153177  1.260272  0.162570
H    0.036095  0.937814  2.380192
C    -0.809493  -1.074517  2.305920
C    -2.209024  -0.746124  1.870864
C    -2.935466  0.293216  2.484030
C    -2.827354  -1.466657  0.835099
C    -4.224925  0.598598  2.083199
C    -4.126006  -1.174645  0.423450
C    -4.834877  -0.135459  1.047276
O    -6.094094  0.212336  0.723725
H    -0.724619  -1.135764  3.400131
H    -0.506446  -2.056919  1.910800
H    -2.497118  0.856701  3.310163
H    -2.312388  -2.318157  0.382041
H    -4.795445  1.387475  2.570937
H    -4.600192  -1.770386  -0.357471
H    -6.458445  -0.371046  0.035937
O    2.160960  -0.425284  3.236639
H    1.612542  0.047116  3.894538
Ba    1.745607  -1.253594  -1.223631
