25
Energy: -242283.420236 eV PBE+vdW (tier 2 basis)
N    -1.246959  0.865936  1.413264
C    -0.473418  -0.060113  2.287702
C    0.868432  -0.433102  1.669347
O    1.806567  -0.881586  2.249960
H    -0.773682  1.776282  1.397994
H    -2.143781  1.055237  1.873581
H    -0.217586  0.406576  3.251482
C    -1.299901  -1.341200  2.592443
C    -1.844570  -2.029045  1.360963
C    -1.058121  -2.917576  0.598963
C    -3.169205  -1.804265  0.925774
C    -1.550757  -3.532338  -0.559120
C    -3.680740  -2.404948  -0.228120
C    -2.881463  -3.300542  -0.974892
O    -3.451079  -3.871686  -2.045171
H    -2.127616  -1.052353  3.255256
H    -0.663690  -2.021340  3.174385
H    -0.044755  -3.160315  0.923821
H    -3.831194  -1.168632  1.517217
H    -0.924520  -4.244069  -1.100547
H    -4.718995  -2.255766  -0.526129
H    -2.903900  -4.584182  -2.423647
O    0.901862  -0.236522  0.262018
H    1.822127  -0.454084  -0.001325
Ba    -1.441061  -0.305363  -1.115219
