25
Energy: -242283.619598 eV PBE+vdW (tier 2 basis)
N    -0.126132  0.124802  0.367224
C    -0.247767  0.564109  1.805458
C    1.141114  0.712142  2.404522
O    1.257465  1.318065  3.516986
H    -0.951003  -0.498348  0.170098
H    0.759459  -0.395365  0.249675
H    -0.771379  1.526979  1.825020
C    -1.095310  -0.504775  2.574211
C    -2.329341  -0.865976  1.792161
C    -3.452477  -0.016104  1.773200
C    -2.368257  -2.039242  1.015666
C    -4.571571  -0.327837  1.019143
C    -3.489047  -2.363224  0.250759
C    -4.600279  -1.506853  0.248622
O    -5.726802  -1.742372  -0.450475
H    -1.332473  -0.072957  3.554880
H    -0.475061  -1.396965  2.747364
H    -3.462399  0.890682  2.380989
H    -1.536016  -2.747114  1.051261
H    -5.449706  0.316175  1.021259
H    -3.508154  -3.291639  -0.321252
H    -5.678087  -2.590892  -0.923468
O    2.140560  0.173111  1.810424
H    -0.130930  0.907494  -0.296569
Ba    3.705592  0.929103  3.702845
