25
Energy: -242283.26962 eV PBE+vdW (tier 2 basis)
N    0.690101  0.714603  0.143666
C    1.022119  -0.354541  1.040847
C    0.749645  -1.712979  0.418823
O    1.097368  -2.779689  0.978535
H    1.197180  0.691987  -0.739327
H    0.810168  1.632584  0.567318
H    2.089554  -0.413549  1.360803
C    0.148425  -0.200629  2.331838
C    0.467858  -1.093596  3.503934
C    1.674335  -0.961292  4.229973
C    -0.470205  -2.026836  3.987424
C    1.929780  -1.710480  5.383109
C    -0.237716  -2.784702  5.146097
C    0.955950  -2.608191  5.879573
O    1.252515  -3.255443  7.018302
H    -0.906974  -0.295312  2.046243
H    0.284974  0.844392  2.648950
H    2.417088  -0.224839  3.917044
H    -1.424789  -2.144682  3.471808
H    2.842429  -1.556309  5.960094
H    -1.013301  -3.459766  5.513691
H    0.482776  -3.722915  7.391313
O    0.128627  -1.700556  -0.730461
H    -0.007033  -2.611727  -1.069667
Ba    1.912526  -3.821413  3.063627
