25
Energy: -242283.550365 eV PBE+vdW (tier 2 basis)
N    -0.518570  -0.420571  -0.195419
C    -0.066291  -0.268249  1.237994
C    1.464635  -0.200903  1.229791
O    2.073383  -0.086009  0.108529
H    -1.350228  0.138437  -0.417203
H    0.264912  -0.159269  -0.819656
H    -0.416358  0.708744  1.603482
C    -0.664999  -1.408924  2.102907
C    -0.544577  -2.752581  1.430514
C    0.594491  -3.558273  1.586502
C    -1.576172  -3.224512  0.592142
C    0.706799  -4.782034  0.933924
C    -1.471883  -4.439838  -0.077106
C    -0.324192  -5.230083  0.088808
O    -0.291233  -6.403482  -0.574187
H    -1.718679  -1.166343  2.298625
H    -0.151801  -1.380833  3.072219
H    1.385029  -3.248504  2.272769
H    -2.513812  -2.666615  0.514548
H    1.582708  -5.411151  1.100279
H    -2.283231  -4.811832  -0.700743
H    0.504958  -6.914193  -0.349442
O    2.082747  -0.208163  2.338524
H    -0.744592  -1.437156  -0.339208
Ba    4.321715  0.171588  1.312610
