25
Energy: -242282.681791 eV PBE+vdW (tier 2 basis)
N    -1.241514  -1.390074  -0.032073
C    -0.901554  -0.610719  1.156067
C    0.521496  -0.116778  0.863123
O    1.492595  -0.953327  0.881086
H    -2.241995  -1.407913  -0.220537
H    -0.888824  -2.345893  0.010510
H    -1.548443  0.275467  1.161161
C    -1.037534  -1.412987  2.463417
C    -0.753633  -0.613012  3.803327
C    -1.705033  0.501405  4.020401
C    -0.675881  -1.575258  4.924417
C    -2.493680  0.587972  5.120763
C    -1.469951  -1.494516  6.024662
C    -2.398022  -0.416011  6.133713
O    -3.204079  -0.271595  7.158862
H    -0.337675  -2.260005  2.432697
H    -2.055017  -1.823156  2.515826
H    -1.770838  1.278992  3.258273
H    0.039804  -2.394577  4.836765
H    -3.201313  1.402822  5.269517
H    -1.404264  -2.234602  6.824020
H    -3.100885  -0.976073  7.830603
O    0.694344  1.084603  0.459777
H    0.259772  -0.178107  3.667706
Ba    2.702470  0.422915  -0.805542
