25
Energy: -242282.990744 eV PBE+vdW (tier 2 basis)
N    0.305779  -0.112460  0.102655
C    -0.137920  -0.197974  1.532476
C    0.856510  0.397214  2.555291
O    0.822411  0.127855  3.726318
H    1.120297  -0.729548  -0.007593
H    0.706209  0.824872  -0.032835
H    -1.040202  0.432684  1.625776
C    -0.493303  -1.644735  1.911403
C    -1.551473  -2.238831  1.014908
C    -1.254167  -3.277315  0.110133
C    -2.887078  -1.772849  1.044011
C    -2.227391  -3.824657  -0.740858
C    -3.870877  -2.299235  0.202600
C    -3.559781  -3.358440  -0.684361
O    -4.566980  -3.841350  -1.423704
H    -0.825415  -1.642991  2.958486
H    0.414749  -2.264824  1.884827
H    -0.245163  -3.693468  0.082016
H    -3.176064  -1.001856  1.761765
H    -1.964628  -4.656240  -1.397910
H    -4.905541  -1.960622  0.268909
H    -4.327448  -4.661291  -1.893809
O    1.704182  1.264036  1.956600
H    2.287578  1.652419  2.641992
Ba    -1.749205  -0.787213  -1.610945
