18
Energy: -602071.254131 eV PBE+vdW (tier 2 basis)
N    0.942136  -0.932289  0.264470
C    0.085796  -0.344102  1.364936
C    1.122691  0.077272  2.426971
O    2.290152  -0.232211  2.300186
H    1.909685  -0.970143  0.693059
H    0.976785  -0.335886  -0.572420
H    -0.435544  0.536592  0.971158
C    -0.977352  -1.380035  1.860341
O    -1.961687  -0.672907  2.597114
C    -0.391746  -2.531456  2.667997
H    -1.473652  -1.768704  0.951535
H    0.652811  -1.874430  -0.028787
H    0.047671  -2.178469  3.609902
H    0.390994  -3.067770  2.111304
H    -1.173764  -3.266093  2.892836
O    0.591423  0.773026  3.427118
H    1.310595  1.030828  4.045154
Pb    -3.495995  -0.165222  3.840127
