18
Energy: -602071.055354 eV PBE+vdW (tier 2 basis)
N    0.096027  -0.386585  -0.020254
C    -0.278996  -0.175228  1.436419
C    0.980138  0.065438  2.294224
O    0.920771  0.526653  3.398980
H    0.320728  0.501782  -0.490034
H    0.938749  -0.980549  -0.087470
H    -0.899412  0.729359  1.482670
C    -1.102889  -1.399860  1.920119
O    -2.177399  -1.583711  0.975859
C    -1.630089  -1.239141  3.339326
H    -0.461698  -2.297464  1.856569
H    -0.691243  -0.835904  -0.514718
H    -2.149794  -2.164824  3.639170
H    -2.311687  -0.377913  3.410893
H    -0.833128  -1.082530  4.075951
O    2.086305  -0.338253  1.630764
H    2.880084  -0.188138  2.188380
Pb    -4.156251  -2.189682  1.255914
