18
Energy: -602071.738049 eV PBE+vdW (tier 2 basis)
N    1.281035  -1.978045  0.880829
C    0.567143  -0.742730  1.372229
C    1.438197  0.018216  2.353479
O    1.102178  1.197904  2.707871
H    1.814871  -1.820960  0.016998
H    0.496055  -2.658493  0.699218
H    0.356279  -0.107216  0.500633
C    -0.805813  -1.205014  1.989478
O    -1.168007  -2.276240  1.111766
C    -1.832845  -0.088011  2.020558
H    -0.620113  -1.600389  3.005847
H    -1.986283  -2.711816  1.407167
H    -2.049331  0.273090  1.007029
H    -1.498428  0.755926  2.636603
H    -2.765772  -0.462256  2.461326
O    2.493115  -0.532687  2.828276
H    1.922396  -2.356266  1.593784
Pb    2.953323  1.415986  4.088909
