18
Energy: -602071.226698 eV PBE+vdW (tier 2 basis)
N    -0.482262  0.185242  -0.086647
C    -0.199371  0.114965  1.394045
C    1.300318  0.498965  1.482405
O    1.991675  0.446300  0.485756
H    -1.127049  -0.561449  -0.379536
H    -0.878438  1.091348  -0.368841
H    -0.829984  0.844265  1.917390
C    -0.483506  -1.323816  1.910234
O    -1.800270  -1.695647  1.453401
C    -0.367133  -1.443342  3.422388
H    0.229107  -2.009989  1.418658
H    0.462836  0.094532  -0.542544
H    0.631217  -1.175577  3.786838
H    -0.534468  -2.490121  3.718940
H    -1.094117  -0.791471  3.927740
O    1.663708  0.855536  2.703387
H    2.616895  1.094720  2.712412
Pb    -3.360157  -2.884462  2.140976
