18
Energy: -602070.637016 eV PBE+vdW (tier 2 basis)
N    0.714743  -0.362727  0.044106
C    0.326686  0.036480  1.351636
C    1.536924  0.334237  2.247390
O    2.693440  0.527371  1.763741
H    1.082894  -1.302051  -0.069139
H    0.079183  -0.103947  -0.703708
H    -0.165358  1.026016  1.273544
C    -0.702883  -0.911993  2.038489
O    -1.073004  -0.191020  3.377847
C    -0.276880  -2.328859  2.319216
H    -1.644043  -0.855211  1.480177
H    -1.606480  -0.755820  3.978098
H    -1.073248  -2.891095  2.825507
H    0.643446  -2.394329  2.914955
H    -0.109999  -2.846761  1.364676
O    1.370450  0.445564  3.536246
H    -0.177851  0.073804  3.799405
Pb    3.665306  1.141506  3.745210
