18
Energy: -602071.238165 eV PBE+vdW (tier 2 basis)
N    0.965261  -0.905203  0.386854
C    -0.042271  -0.463696  1.430563
C    0.806231  -0.113180  2.655454
O    1.986523  -0.342223  2.716228
H    0.674098  -1.758815  -0.110667
H    1.865278  -1.081649  0.888139
H    -0.559422  0.427037  1.051863
C    -1.114416  -1.578334  1.694955
O    -2.146946  -1.014469  2.467933
C    -0.553335  -2.843737  2.332646
H    -1.551219  -1.817646  0.706766
H    1.141446  -0.176262  -0.319123
H    -0.115757  -2.644565  3.321177
H    0.217351  -3.322349  1.710139
H    -1.359854  -3.576961  2.448318
O    0.097427  0.473885  3.667258
H    0.747274  0.710349  4.368201
Pb    -2.668667  0.029821  4.160297
