18
Energy: -602070.682062 eV PBE+vdW (tier 2 basis)
N    0.568969  -0.444455  0.031898
C    0.369702  0.040181  1.361159
C    1.613544  0.115079  2.258077
O    2.780130  0.197990  1.759589
H    1.239173  -1.201437  -0.073776
H    0.721756  0.273249  -0.670621
H    0.026644  1.090562  1.308307
C    -0.792059  -0.773672  1.999387
O    -1.033520  -0.098464  3.385882
C    -0.592005  -2.255271  2.170791
H    -1.709285  -0.529346  1.453712
H    -1.662291  -0.605757  3.943464
H    -1.468234  -2.723519  2.639264
H    0.304409  -2.508099  2.753066
H    -0.503435  -2.707734  1.173565
O    1.488878  0.121009  3.555011
H    -0.114368  -0.025041  3.823741
Pb    3.852990  0.472726  3.776487
