18
Energy: -602071.252198 eV PBE+vdW (tier 2 basis)
N    0.272276  -0.331855  0.186185
C    -0.102240  0.025913  1.606717
C    0.913316  -0.762993  2.458095
O    1.696415  -1.529319  1.931039
H    0.593605  0.475723  -0.361750
H    1.068910  -1.017275  0.306411
H    0.066541  1.101284  1.753171
C    -1.577378  -0.278254  1.956581
O    -1.797051  -1.699591  1.879303
C    -2.573749  0.476259  1.085503
H    -1.689046  0.035640  3.006141
H    -0.492975  -0.786726  -0.326582
H    -2.528351  0.176116  0.028458
H    -2.398503  1.558806  1.147566
H    -3.595726  0.292239  1.437932
O    0.800780  -0.484990  3.747701
H    1.505419  -0.944676  4.253668
Pb    -2.846242  -3.392304  2.387860
