18
Energy: -602070.251444 eV PBE+vdW (tier 2 basis)
N    0.296831  -0.610572  0.228160
C    -0.156261  -0.178496  1.535834
C    1.065871  0.393627  2.218998
O    2.029961  -0.287099  2.759624
H    0.443043  0.131747  -0.453080
H    1.039924  -1.305007  0.189530
H    -0.846833  0.662525  1.393808
C    -0.948488  -1.306768  2.257315
O    -1.711575  -0.736310  3.328068
C    -0.135779  -2.495255  2.765951
H    -1.639049  -1.654449  1.472237
H    1.822097  -1.244269  2.843524
H    0.431983  -2.253595  3.679277
H    0.531162  -2.896356  1.987125
H    -0.801691  -3.324206  3.035580
O    1.234390  1.670683  2.135936
H    2.119222  1.967700  2.454555
Pb    -3.328811  -0.563903  4.570560
