18
Energy: -602071.487932 eV PBE+vdW (tier 2 basis)
N    0.846569  -0.951657  0.475110
C    -0.002079  -0.080009  1.390834
C    0.862576  0.411835  2.568281
O    0.550086  0.325274  3.754983
H    1.772713  -0.537131  0.287781
H    0.974092  -1.888904  0.891434
H    -0.265953  0.814412  0.803854
C    -1.283884  -0.821485  1.820950
O    -0.947278  -1.905465  2.688222
C    -2.099756  -1.335766  0.637922
H    -1.884639  -0.049607  2.336946
H    0.368996  -1.084160  -0.429921
H    -2.325896  -0.535028  -0.080941
H    -3.055559  -1.727686  1.002914
H    -1.602245  -2.169701  0.121143
O    1.974703  0.976892  2.138067
H    2.518718  1.333551  2.877067
Pb    -0.678165  -1.617366  4.765354
