18
Energy: -602070.316543 eV PBE+vdW (tier 2 basis)
N    0.350263  -0.703987  0.040804
C    -0.101179  -0.201344  1.293873
C    0.953268  0.308840  2.266538
O    0.697956  0.462989  3.517620
H    0.426070  -0.014503  -0.701543
H    1.171607  -1.302942  0.061888
H    -0.730958  0.689672  1.110317
C    -1.034557  -1.260112  1.992953
O    -1.615547  -0.645848  3.211144
C    -0.347419  -2.564952  2.349849
H    -1.841501  -1.431403  1.269365
H    -0.252118  0.127867  3.677318
H    0.459684  -2.434884  3.083990
H    0.068697  -3.025868  1.444529
H    -1.070539  -3.281062  2.761147
O    2.121987  0.590544  1.817184
H    2.733258  0.938595  2.508673
Pb    -3.428605  -0.801058  4.257760
