18
Energy: -602071.617074 eV PBE+vdW (tier 2 basis)
N    0.534108  -0.383718  -0.111593
C    0.078907  -0.003198  1.280402
C    1.296932  0.050249  2.185945
O    1.124906  0.465592  3.375545
H    0.818105  0.445175  -0.655170
H    -0.204588  -0.869789  -0.642067
H    -0.463879  0.947506  1.224519
C    -0.845667  -1.068560  1.959995
O    0.029716  -2.096213  2.541296
C    -1.888357  -1.680617  1.043660
H    -1.329898  -0.522152  2.782851
H    -0.518386  -2.869423  2.767069
H    -2.578988  -2.308354  1.623382
H    -1.454293  -2.320622  0.260508
H    -2.504887  -0.896228  0.581172
O    2.326891  -0.613746  1.829095
H    1.365940  -0.998116  -0.028764
Pb    2.240440  -1.451788  4.058158
