18
Energy: -602071.823955 eV PBE+vdW (tier 2 basis)
N    0.455193  -0.354513  -0.067589
C    -0.075040  0.044084  1.289655
C    1.086078  0.555262  2.134998
O    2.236886  0.737486  1.604478
H    1.314558  0.162956  -0.306763
H    -0.239046  -0.229376  -0.815117
H    -0.801117  0.861357  1.177969
C    -0.748045  -1.209178  1.914123
O    0.269429  -2.204749  1.722326
C    -2.082374  -1.565392  1.276385
H    -0.883875  -0.993970  2.985916
H    -0.078738  -3.090247  1.924844
H    -2.488624  -2.466498  1.754835
H    -2.001424  -1.776737  0.200357
H    -2.818072  -0.764463  1.428054
O    0.882130  0.816346  3.366700
H    0.685970  -1.371132  0.026919
Pb    3.080109  1.476760  3.686910
