18
Energy: -602072.121965 eV PBE+vdW (tier 2 basis)
N    -0.546904  -0.217753  0.022953
C    -0.113901  -0.085862  1.440961
C    1.390598  -0.351115  1.480039
O    1.929811  -1.165229  0.702042
H    -1.569700  -0.161453  -0.041492
H    -0.183812  0.557766  -0.543788
H    -0.320274  0.911148  1.855462
C    -0.842555  -1.143281  2.312695
O    -0.590084  -2.429541  1.618989
C    -2.325268  -0.892705  2.499773
H    -0.332718  -1.192443  3.286270
H    -0.986436  -3.171371  2.113050
H    -2.479076  0.053000  3.037263
H    -2.766957  -1.684504  3.119807
H    -2.886231  -0.857366  1.555702
O    2.026192  0.304402  2.405105
H    2.984697  0.077553  2.436739
Pb    0.405845  -2.434145  -0.572794
