18
Energy: -602070.967888 eV PBE+vdW (tier 2 basis)
N    0.963997  -1.342179  0.983636
C    0.112807  -0.232232  1.355690
C    0.813107  0.574549  2.440525
O    0.735387  0.351067  3.693269
H    1.705203  -1.107413  0.326204
H    1.324984  -1.917797  1.739918
H    0.024725  0.433609  0.484300
C    -1.330246  -0.644672  1.696110
O    -1.303328  -1.564145  2.910681
C    -2.030367  -1.369670  0.573637
H    -1.901496  0.236404  2.022300
H    -1.886318  -2.326967  2.724863
H    -3.044554  -1.672090  0.870761
H    -1.453690  -2.237007  0.229422
H    -2.152769  -0.685866  -0.278609
O    1.618057  1.491740  1.992573
H    2.143752  1.922196  2.704993
Pb    -0.490252  -1.004530  5.001726
