18
Energy: -602070.929413 eV PBE+vdW (tier 2 basis)
N    -0.570585  -0.698999  0.324876
C    -0.240871  -0.037200  1.544369
C    1.235616  -0.032425  1.965160
O    1.659154  0.443281  3.063923
H    -0.141237  -1.608456  0.174728
H    -0.494195  -0.125819  -0.510805
H    -0.498590  1.032666  1.441744
C    -1.168454  -0.613477  2.655683
O    -1.141515  0.330273  3.860915
C    -0.882455  -2.023888  3.109939
H    -2.184060  -0.509463  2.254436
H    -2.018629  0.297130  4.291631
H    0.131086  -2.143937  3.520272
H    -0.990841  -2.710030  2.258605
H    -1.609053  -2.352636  3.863502
O    2.063058  -0.545694  1.112093
H    3.000119  -0.492320  1.411807
Pb    0.691450  1.242990  4.931121
