30
Energy: -37701.7971503 eV PBE+vdW (tier 2 basis)
C    2.106985  0.012903  2.545361
C    0.893465  0.420140  3.329963
O    0.921324  1.009368  4.396625
H    1.895021  -0.707322  1.746587
H    2.851872  -0.406190  3.231278
H    2.554251  0.913441  2.101082
N    -0.356515  0.063228  2.770326
C    -1.536170  0.644351  3.373874
C    -2.491600  -0.411532  3.922152
O    -3.701355  -0.097294  4.220645
H    -0.377061  -0.228238  1.796784
H    -1.110109  1.132695  4.282727
C    -2.223252  1.753738  2.559773
C    -2.977050  1.309818  1.277260
C    -4.336198  1.956886  1.158252
O    -5.185716  1.828191  2.100441
N    -4.647898  2.644914  0.074448
H    -1.449707  2.485231  2.295740
H    -2.904139  2.299785  3.228389
H    -3.175747  0.225249  1.296007
H    -2.377644  1.498808  0.378933
H    -3.991156  2.767738  -0.690332
H    -5.570117  3.066499  -0.021045
N    -2.008976  -1.616180  4.135696
C    -2.685631  -2.737524  4.778243
H    -1.035747  -1.730978  3.841787
H    -2.087634  -3.079140  5.631445
H    -2.795288  -3.565845  4.067601
H    -3.669994  -2.421089  5.130209
Ca    -5.479203  0.979043  4.034635
