30
Energy: -37701.8975234 eV PBE+vdW (tier 2 basis)
C    0.353068  -0.467471  0.206350
C    0.159554  -0.258240  1.670778
O    1.184528  -0.095248  2.434138
H    -0.592913  -0.566843  -0.334653
H    0.951354  -1.376472  0.051491
H    0.924476  0.370590  -0.214580
N    -1.063166  -0.246236  2.162939
C    -1.494375  -0.218890  3.558998
C    -2.763265  -1.138072  3.535620
O    -3.350248  -1.257459  2.459960
H    -1.873729  -0.500077  1.565735
H    -0.700432  -0.624758  4.200432
C    -1.946550  1.189597  4.008162
C    -0.876220  2.308062  4.056440
C    0.085147  2.201518  5.214098
O    1.193653  1.582136  5.104136
N    -0.246119  2.750936  6.373048
H    -2.435651  1.102817  4.988535
H    -2.728693  1.520438  3.310525
H    -1.402171  3.270981  4.116659
H    -0.294592  2.325602  3.125814
H    -1.100655  3.288347  6.485147
H    0.381195  2.689887  7.172217
N    -3.174526  -1.700687  4.686121
C    -2.490231  -1.728555  5.973534
H    -4.024316  -2.252988  4.588596
H    -3.128802  -2.256740  6.687309
H    -2.321630  -0.719711  6.375061
H    -1.534456  -2.269224  5.920775
Ca    2.543487  0.490931  3.871162
