30
Energy: -37701.8961475 eV PBE+vdW (tier 2 basis)
C    -0.471742  -1.507221  -0.402880
C    -0.893707  -0.555892  0.662744
O    -0.597263  0.696244  0.565663
H    -0.873805  -1.176605  -1.370169
H    -0.799674  -2.532585  -0.206287
H    0.624089  -1.489763  -0.486164
N    -1.566611  -0.995131  1.706964
C    -2.022773  -0.204192  2.847058
C    -2.353090  -1.292020  3.914190
O    -2.703797  -2.393128  3.490733
H    -1.847634  -1.985168  1.807318
H    -1.207231  0.462966  3.159195
C    -3.299580  0.594187  2.465358
C    -3.694686  1.744051  3.392045
C    -2.786866  2.955346  3.371371
O    -1.937274  3.145512  2.442446
N    -2.915964  3.849398  4.340505
H    -4.138114  -0.114107  2.417739
H    -3.185216  0.975329  1.440311
H    -3.827238  1.406277  4.429725
H    -4.690185  2.107746  3.083759
H    -3.604687  3.738505  5.079288
H    -2.374758  4.710751  4.328484
N    -2.306891  -0.987945  5.228113
C    -1.707632  0.150141  5.911804
H    -2.586385  -1.773005  5.816431
H    -0.868393  -0.178797  6.538476
H    -2.443085  0.648707  6.557820
H    -1.319981  0.878875  5.193066
Ca    -0.671608  2.751352  0.769835
