30
Energy: -37701.9988083 eV PBE+vdW (tier 2 basis)
C    -0.476660  0.648890  -0.089383
C    -0.906943  -0.142847  1.108602
O    -0.620953  -1.337710  1.266291
H    -0.731260  0.092501  -0.999107
H    0.618345  0.739844  -0.066801
H    -0.913151  1.652660  -0.136587
N    -1.648469  0.514920  2.065178
C    -1.890130  -0.094503  3.369739
C    -3.046856  -1.126265  3.289633
O    -4.164654  -0.930959  3.901144
H    -1.887255  1.490982  1.923156
H    -0.985229  -0.679018  3.610188
C    -2.103029  0.976401  4.443069
C    -1.957614  0.437639  5.891380
C    -2.990087  1.002437  6.835463
O    -4.229553  0.791440  6.622562
N    -2.608361  1.704771  7.887330
H    -3.083363  1.455391  4.301403
H    -1.355066  1.763944  4.286587
H    -0.942068  0.615026  6.264637
H    -2.105769  -0.653676  5.915272
H    -1.628534  1.884362  8.085303
H    -3.298782  2.071479  8.540174
N    -2.800731  -2.186773  2.563354
C    -3.715216  -3.282830  2.273794
H    -1.867832  -2.142695  2.070556
H    -4.670024  -3.131032  2.782738
H    -3.265614  -4.227063  2.604546
H    -3.882056  -3.340047  1.191022
Ca    -5.544088  -0.227269  5.283756
