30
Energy: -37702.1866922 eV PBE+vdW (tier 2 basis)
C    0.637514  1.106755  2.872209
C    0.109074  -0.276764  2.691546
O    0.896157  -1.282495  2.855426
H    -0.136209  1.870787  2.752053
H    1.443417  1.288640  2.147824
H    1.085486  1.188191  3.872139
N    -1.165542  -0.432127  2.367525
C    -1.892108  -1.708742  2.323062
C    -1.481354  -2.532813  1.082091
O    -0.423481  -3.245042  1.133351
H    -1.824704  0.429036  2.393765
H    -1.574439  -2.323558  3.182839
C    -3.408380  -1.451682  2.437416
C    -3.855361  -0.630402  3.666381
C    -3.828569  0.878408  3.426770
O    -2.952064  1.407442  2.708977
N    -4.774624  1.609636  4.024233
H    -3.904272  -2.430617  2.470677
H    -3.778400  -0.933086  1.538697
H    -3.215378  -0.840140  4.538833
H    -4.865523  -0.947393  3.954766
H    -5.508364  1.199983  4.589827
H    -4.764273  2.619728  3.912261
N    -2.221603  -2.487256  -0.007841
C    -1.947032  -3.203337  -1.255114
H    -3.049471  -1.896621  0.014289
H    -1.298556  -4.058211  -1.049550
H    -1.460347  -2.534065  -1.976400
H    -2.894753  -3.553640  -1.676365
Ca    1.435162  -3.171616  2.179314
