30
Energy: -37701.9984621 eV PBE+vdW (tier 2 basis)
C    -0.804929  0.773868  -0.160231
C    -1.140260  -0.062079  1.038088
O    -0.836008  -1.259047  1.132623
H    -1.247639  1.775790  -0.139127
H    -1.125282  0.247685  -1.067166
H    0.288296  0.871145  -0.216908
N    -1.813120  0.556498  2.068751
C    -1.955557  -0.098046  3.366267
C    -3.101688  -1.141670  3.332297
O    -4.173107  -0.995562  4.032519
H    -2.068924  1.534356  1.977833
H    -1.029190  -0.677052  3.524807
C    -2.109418  0.934692  4.486352
C    -1.853685  0.353357  5.902909
C    -2.828224  0.867509  6.933512
O    -4.074275  0.627407  6.806489
N    -2.388570  1.557078  7.971116
H    -3.105290  1.398870  4.429241
H    -1.387245  1.740497  4.304024
H    -0.818135  0.540101  6.210872
H    -1.979400  -0.740921  5.901084
H    -1.401666  1.758175  8.101908
H    -3.038333  1.890622  8.681002
N    -2.910983  -2.171738  2.548530
C    -3.866126  -3.252029  2.321177
H    -2.024118  -2.107485  1.981611
H    -3.427731  -3.950925  1.604513
H    -4.805938  -2.861033  1.910976
H    -4.073623  -3.787259  3.256199
Ca    -5.463336  -0.386380  5.541789
