30
Energy: -37702.0862996 eV PBE+vdW (tier 2 basis)
C    0.063077  -0.406241  0.264102
C    0.108425  0.316368  1.569133
O    1.215558  0.846796  1.958818
H    0.806928  -1.214007  0.260585
H    0.352092  0.294546  -0.532142
H    -0.926426  -0.816867  0.043260
N    -1.001725  0.397209  2.286223
C    -1.217453  1.237627  3.469991
C    -0.584911  0.619063  4.738339
O    0.686314  0.567685  4.827194
H    -1.919040  0.020303  1.847981
H    -0.643260  2.171087  3.334657
C    -2.704798  1.654324  3.557127
C    -3.820054  0.575519  3.548894
C    -4.194459  0.059829  2.159395
O    -3.316579  -0.262810  1.333702
N    -5.496384  -0.060399  1.880303
H    -2.883519  2.344254  2.720789
H    -2.818967  2.271084  4.460071
H    -4.703207  0.996690  4.046174
H    -3.549812  -0.327506  4.121935
H    -6.225790  0.204147  2.531114
H    -5.775009  -0.441557  0.980003
N    -1.349644  0.199122  5.728207
C    -0.875666  -0.362928  6.994677
H    -2.355441  0.270667  5.603549
H    0.172437  -0.094036  7.142452
H    -0.975680  -1.455861  6.982635
H    -1.480085  0.044074  7.812064
Ca    2.423077  0.954816  3.640763
