30
Energy: -37702.0117392 eV PBE+vdW (tier 2 basis)
C    -1.726665  -1.176224  0.467670
C    -1.535113  -0.304241  1.661195
O    -1.536016  0.977784  1.526202
H    -1.734071  -2.239602  0.725166
H    -0.926370  -0.982553  -0.259889
H    -2.672856  -0.909742  -0.023245
N    -1.370087  -0.864738  2.849729
C    -1.317206  -0.093244  4.094587
C    -0.028628  0.752647  4.147472
O    -0.129923  2.008471  3.910602
H    -1.504313  -1.934666  3.004176
H    -2.123785  0.657969  4.061758
C    -1.566529  -0.973785  5.338623
C    -2.828694  -1.860140  5.272228
C    -2.593913  -3.196852  4.572395
O    -1.859195  -3.286614  3.562146
N    -3.211612  -4.269365  5.075182
H    -1.666163  -0.287530  6.190376
H    -0.701378  -1.608679  5.556786
H    -3.650085  -1.349322  4.743437
H    -3.192456  -2.029085  6.293659
H    -3.796740  -4.227024  5.901027
H    -3.105378  -5.166539  4.609383
N    1.166984  0.240076  4.384593
C    1.591570  -1.152363  4.567624
H    1.911426  0.938304  4.415589
H    0.913350  -1.841735  4.058650
H    1.658302  -1.402125  5.633930
H    2.587007  -1.258860  4.123699
Ca    -1.038462  2.895776  2.189254
