30
Energy: -37701.906369 eV PBE+vdW (tier 2 basis)
C    -0.222955  -0.143650  0.089418
C    -0.771651  -0.626464  1.398237
O    -0.473804  -1.723256  1.892861
H    -0.373063  -0.918944  -0.671360
H    0.862260  -0.010027  0.198795
H    -0.662405  0.799295  -0.254034
N    -1.637879  0.210434  2.063704
C    -2.039019  -0.068363  3.442562
C    -3.172659  -1.126046  3.455069
O    -4.366820  -0.842131  3.838623
H    -1.910171  1.089962  1.636838
H    -1.170800  -0.566125  3.907743
C    -2.340894  1.240361  4.193133
C    -1.939949  1.297849  5.676531
C    -2.822782  0.614295  6.694775
O    -4.077237  0.493969  6.523487
N    -2.266685  0.194443  7.821597
H    -3.389291  1.545445  4.054397
H    -1.750568  2.026190  3.703216
H    -1.938638  2.358837  5.983252
H    -0.901702  0.959789  5.804094
H    -1.271759  0.297944  7.998764
H    -2.842614  -0.173638  8.575443
N    -2.828270  -2.314989  3.025239
C    -3.714177  -3.459898  2.851621
H    -1.834851  -2.363310  2.676414
H    -3.439198  -3.977606  1.926687
H    -4.755917  -3.132617  2.789270
H    -3.595504  -4.161410  3.688139
Ca    -5.671996  -0.036340  5.233487
