30
Energy: -37701.928988 eV PBE+vdW (tier 2 basis)
C    0.429782  -0.788417  1.154921
C    -0.300467  -0.903052  2.453344
O    -0.239621  -1.997390  3.128575
H    0.375259  0.215769  0.723102
H    -0.016670  -1.499638  0.444252
H    1.481000  -1.079019  1.278629
N    -1.004341  0.127055  2.881154
C    -1.959497  0.210260  3.984732
C    -2.607677  1.616161  3.755553
O    -1.979495  2.433899  3.073847
H    -0.996206  1.033703  2.374413
H    -2.711011  -0.585204  3.867003
C    -1.361487  0.106195  5.407970
C    -0.163937  1.011027  5.717954
C    1.199972  0.451284  5.381917
O    1.417934  -0.802125  5.339907
N    2.195265  1.304157  5.191092
H    -1.114451  -0.943290  5.632734
H    -2.167841  0.352395  6.111255
H    -0.133943  1.194446  6.805565
H    -0.282278  2.000836  5.253597
H    2.051348  2.308872  5.237252
H    3.147975  0.969828  5.067027
N    -3.787020  1.839359  4.349540
C    -4.511756  3.107739  4.247872
H    -4.255507  1.068123  4.815009
H    -3.872374  3.831527  3.736144
H    -4.760637  3.478245  5.248881
H    -5.435435  2.971555  3.672470
Ca    0.861118  -2.761297  4.723289
