30
Energy: -37701.5894614 eV PBE+vdW (tier 2 basis)
C    -0.067458  -0.545552  0.026789
C    -0.213241  0.164632  1.337513
O    0.622257  1.081770  1.654116
H    -0.092618  0.190970  -0.788146
H    -0.844738  -1.295782  -0.152736
H    0.911075  -1.043769  -0.012859
N    -1.215799  -0.193449  2.136218
C    -1.664661  0.280567  3.466421
C    -2.866252  1.278263  3.446914
O    -3.200087  1.746931  4.528251
H    -1.767237  -0.970696  1.777414
H    -2.096245  -0.624109  3.919747
C    -0.553126  0.759156  4.430597
C    -0.380089  2.297171  4.538387
C    0.996664  2.669397  5.008761
O    1.981107  2.650618  4.190370
N    1.196776  3.000800  6.270856
H    0.388010  0.265512  4.156047
H    -0.812355  0.382219  5.426651
H    -1.156920  2.700774  5.196837
H    -0.522890  2.772811  3.556952
H    0.429224  3.045289  6.935065
H    2.128923  3.241075  6.603013
N    -3.466585  1.533233  2.264936
C    -4.674602  2.352759  2.159273
H    -3.140503  1.063215  1.429012
H    -4.556798  3.095523  1.362376
H    -4.828300  2.861200  3.114946
H    -5.549492  1.726339  1.944446
Ca    2.321790  2.216744  2.149153
