30
Energy: -37701.8193373 eV PBE+vdW (tier 2 basis)
C    0.521693  -0.808789  0.832615
C    0.234666  0.019734  2.036435
O    1.060642  0.941590  2.399379
H    0.592470  -0.149808  -0.044460
H    -0.248824  -1.565041  0.654689
H    1.499812  -1.295880  0.943418
N    -0.878602  -0.192413  2.722042
C    -1.274771  0.649867  3.847113
C    -0.319388  0.434398  5.043452
O    0.496148  1.390890  5.302391
H    -1.605193  -0.948764  2.477104
H    -1.049925  1.690212  3.565486
C    -2.806890  0.682135  4.082260
C    -3.667227  -0.557216  4.386141
C    -3.784093  -1.593551  3.272707
O    -2.834400  -1.862589  2.504015
N    -4.947779  -2.246970  3.179702
H    -3.214852  1.171564  3.185300
H    -2.968114  1.397274  4.901805
H    -4.668476  -0.181705  4.640003
H    -3.326023  -1.081798  5.289146
H    -5.741260  -2.043420  3.775646
H    -5.050757  -2.975973  2.479048
N    -0.241356  -0.674299  5.759729
C    -0.879482  -1.979978  5.584003
H    0.442795  -0.618008  6.516280
H    -1.629399  -2.149894  6.365920
H    -0.105623  -2.750989  5.677558
H    -1.332950  -2.066856  4.594622
Ca    1.850292  2.223634  3.856609
