30
Energy: -37701.8887177 eV PBE+vdW (tier 2 basis)
C    0.552142  -1.248140  1.190179
C    -0.250882  0.017940  1.213810
O    0.249580  1.126938  0.961781
H    -0.041642  -2.156182  1.339800
H    1.314300  -1.188299  1.979572
H    1.088782  -1.312340  0.235897
N    -1.582405  -0.097596  1.523206
C    -2.488919  1.013730  1.834539
C    -2.800261  1.913336  0.626472
O    -4.026824  2.249863  0.411867
H    -1.945537  -1.030156  1.690005
H    -3.447251  0.538061  2.081250
C    -2.007028  1.805260  3.089113
C    -3.091218  2.516373  3.943204
C    -3.497489  3.901150  3.500984
O    -4.468984  4.085865  2.698153
N    -2.824006  4.940917  3.969853
H    -1.198745  2.497648  2.820630
H    -1.553506  1.051990  3.745897
H    -2.703675  2.585921  4.968824
H    -4.002077  1.904193  3.999199
H    -2.072003  4.830620  4.643531
H    -3.081620  5.888545  3.703263
N    -1.814568  2.324275  -0.127929
C    -1.955482  3.141377  -1.327468
H    -0.858253  1.991675  0.198351
H    -1.093409  2.955425  -1.974827
H    -1.969031  4.210354  -1.072404
H    -2.873048  2.879966  -1.865415
Ca    -5.604192  3.446711  1.024915
