30
Energy: -37702.7861379 eV PBE+vdW (tier 2 basis)
C    0.072368  -1.002822  -0.007747
C    -0.320346  0.102068  0.911608
O    0.514540  0.975927  1.283316
H    0.874013  -1.590671  0.460190
H    0.492867  -0.568578  -0.925003
H    -0.757915  -1.667157  -0.268310
N    -1.604259  0.165395  1.347490
C    -1.995085  1.267864  2.213477
C    -1.655209  0.977662  3.693109
O    -0.571864  1.448640  4.148143
H    -2.265913  -0.546072  1.048846
H    -1.282604  2.036882  1.923487
C    -3.322444  1.981051  1.947725
C    -3.283604  3.398664  2.586430
C    -2.153290  4.313417  2.121663
O    -0.928807  4.028102  2.300885
N    -2.488889  5.455593  1.534607
H    -4.198857  1.448365  2.342780
H    -3.463625  2.060453  0.860530
H    -3.175933  3.312780  3.679717
H    -4.250514  3.885498  2.412358
H    -3.456527  5.726226  1.391780
H    -1.766832  6.113235  1.248285
N    -2.482320  0.242884  4.421761
C    -2.254921  -0.151878  5.814792
H    -3.333903  -0.094508  3.979998
H    -2.154198  -1.242076  5.879125
H    -3.104093  0.167524  6.429759
H    -1.339370  0.323347  6.173605
Ca    0.739535  2.614185  2.787592
