30
Energy: -37702.0419789 eV PBE+vdW (tier 2 basis)
C    -0.059958  -0.830142  0.444995
C    0.022692  -0.323273  1.844011
O    1.084239  -0.505541  2.536646
H    -1.039140  -0.659903  -0.013365
H    0.176234  -1.901891  0.422408
H    0.708590  -0.322327  -0.155989
N    -1.016801  0.336053  2.358260
C    -1.038806  0.890479  3.716261
C    -1.219797  -0.280249  4.709421
O    -0.166613  -0.765465  5.262649
H    -1.933743  0.268925  1.902189
H    -0.021871  1.257204  3.906951
C    -1.996795  2.110691  3.908098
C    -2.996240  2.487558  2.801693
C    -4.086673  1.453870  2.577614
O    -3.830173  0.235450  2.722391
N    -5.291081  1.883148  2.192186
H    -1.356463  2.987438  4.061920
H    -2.539778  1.974556  4.852668
H    -2.481177  2.646952  1.839664
H    -3.428290  3.463556  3.061023
H    -5.507390  2.866134  2.070753
H    -6.021237  1.205044  1.991225
N    -2.423042  -0.762897  4.899638
C    -2.765212  -1.882991  5.771838
H    -3.153572  -0.375805  4.268145
H    -3.000849  -2.769421  5.168403
H    -3.649624  -1.616492  6.361050
H    -1.930806  -2.101107  6.442541
Ca    1.772375  -1.085553  4.456713
