30
Energy: -37703.199984 eV PBE+vdW (tier 2 basis)
C    0.945569  2.253835  1.388845
C    0.449108  0.969746  1.970911
O    1.184366  -0.055658  1.982283
H    1.195959  2.085403  0.332064
H    1.877006  2.541296  1.894295
H    0.227591  3.077273  1.459008
N    -0.804816  0.950413  2.469653
C    -1.548724  -0.207613  3.006060
C    -0.947159  -0.662540  4.354227
O    0.143950  -1.292006  4.414752
H    -1.316404  1.826565  2.419022
H    -2.551823  0.183944  3.220606
C    -1.695059  -1.320508  1.932360
C    -2.065997  -2.734843  2.429426
C    -0.990815  -3.767237  2.132282
O    0.235977  -3.475305  2.215988
N    -1.371645  -4.994974  1.804551
H    -0.770876  -1.373265  1.347685
H    -2.461454  -0.971187  1.230322
H    -3.022689  -3.056888  2.001332
H    -2.210476  -2.761039  3.522383
H    -0.674704  -5.716753  1.635681
H    -2.349153  -5.249682  1.708150
N    -1.642650  -0.358597  5.445160
C    -1.232371  -0.669455  6.815313
H    -2.508548  0.161219  5.329712
H    -0.452315  -1.433962  6.792397
H    -2.098496  -1.039156  7.374397
H    -0.845873  0.232125  7.307697
Ca    1.631521  -1.959151  2.945439
