30
Energy: -37702.4471042 eV PBE+vdW (tier 2 basis)
C    -0.762556  0.893731  0.538634
C    -0.782959  0.313328  1.908986
O    -0.341641  0.945685  2.908040
H    0.260877  1.245800  0.343089
H    -1.405185  1.784295  0.495534
H    -1.050409  0.184743  -0.242803
N    -1.285360  -0.941056  2.127006
C    -2.556950  -1.424547  1.605385
C    -3.656061  -0.350636  1.852157
O    -3.499501  0.550732  2.723573
H    -1.070096  -1.279933  3.064237
H    -2.481248  -1.572363  0.517602
C    -2.914540  -2.807413  2.230111
C    -2.435232  -3.152792  3.664305
C    -2.908424  -2.291559  4.820341
O    -2.489652  -1.105595  4.970042
N    -3.748301  -2.826806  5.697791
H    -2.475410  -3.579553  1.585622
H    -4.002581  -2.941435  2.166964
H    -1.334229  -3.163973  3.712018
H    -2.730600  -4.195641  3.839264
H    -4.062202  -3.789429  5.624068
H    -4.039964  -2.299598  6.517807
N    -4.747633  -0.414402  1.104960
C    -5.879656  0.511911  1.222937
H    -4.799101  -1.131749  0.386233
H    -6.627678  0.239677  0.474265
H    -5.547083  1.541275  1.045133
H    -6.325874  0.445395  2.221909
Ca    -2.051752  0.954909  4.358793
