30
Energy: -37702.3815138 eV PBE+vdW (tier 2 basis)
C    -0.247869  -0.166088  -0.355210
C    0.345240  0.583395  0.786097
O    1.504758  1.078057  0.729882
H    0.511757  -0.865688  -0.730309
H    -0.465490  0.524333  -1.183405
H    -1.152300  -0.721255  -0.089750
N    -0.361680  0.764605  1.943727
C    -1.750890  1.198573  2.005888
C    -1.945604  2.433980  1.084278
O    -0.941034  3.106401  0.704801
H    0.220916  1.142082  2.690554
H    -2.400306  0.395056  1.631649
C    -2.169370  1.486237  3.480271
C    -1.101101  1.966741  4.497368
C    -0.384753  3.279582  4.236556
O    0.464788  3.390656  3.303909
N    -0.645581  4.305032  5.038131
H    -2.567874  0.552513  3.896875
H    -3.006065  2.196474  3.472434
H    -0.318576  1.201851  4.627125
H    -1.608115  2.013497  5.470017
H    -0.141627  5.182494  4.930446
H    -1.286850  4.226608  5.821165
N    -3.164433  2.770240  0.682337
C    -4.454097  2.137973  0.969667
H    -3.192490  3.602585  0.091902
H    -5.053795  2.134750  0.053203
H    -4.996495  2.698188  1.742312
H    -4.325647  1.103436  1.299374
Ca    1.203580  3.242692  1.238706
