30
Energy: -37701.7867759 eV PBE+vdW (tier 2 basis)
C    0.370114  0.126154  0.331478
C    0.186788  -0.139675  1.786081
O    1.222968  -0.268251  2.542306
H    0.942788  -0.687830  -0.133120
H    0.982013  1.033968  0.228670
H    -0.568617  0.268956  -0.210408
N    -1.004733  -0.244811  2.347828
C    -2.323607  -0.497565  1.781399
C    -3.267001  -0.258560  2.998021
O    -2.784449  -0.400467  4.132352
H    -1.093416  -0.292748  3.382244
H    -2.547511  0.199197  0.962309
C    -2.440636  -1.956423  1.270192
C    -2.199372  -3.062010  2.347308
C    -0.828434  -3.693701  2.320795
O    0.178491  -3.164878  2.897623
N    -0.684317  -4.840166  1.670243
H    -1.763682  -2.091107  0.414275
H    -3.455219  -2.088729  0.872798
H    -2.944806  -3.853906  2.205216
H    -2.360451  -2.656138  3.356207
H    0.215753  -5.312534  1.634324
H    -1.472835  -5.303095  1.228306
N    -4.543691  0.028208  2.725855
C    -5.565466  0.238235  3.752694
H    -4.811020  0.181925  1.758062
H    -5.914970  1.277434  3.729768
H    -5.124154  0.027049  4.729902
H    -6.415163  -0.431995  3.578667
Ca    1.696182  -1.924784  3.738855
