30
Energy: -37701.8894515 eV PBE+vdW (tier 2 basis)
C    -1.002553  0.698480  0.000211
C    -0.725568  0.621887  1.465470
O    0.483757  0.741352  1.881655
H    -0.718415  1.694132  -0.368882
H    -2.053094  0.515039  -0.244604
H    -0.366839  -0.027387  -0.524513
N    -1.750610  0.445016  2.286270
C    -1.804447  0.133420  3.728524
C    -1.099636  1.127989  4.656374
O    0.168722  1.245415  4.704876
H    -2.657457  0.107333  1.883061
H    -2.878413  0.216804  3.939274
C    -1.408344  -1.331109  4.035322
C    -2.030358  -2.377683  3.080645
C    -3.504899  -2.156461  2.731038
O    -3.891447  -1.089958  2.214992
N    -4.351789  -3.165803  2.982173
H    -1.710397  -1.540285  5.071698
H    -0.315134  -1.444362  4.000184
H    -1.867012  -3.371392  3.516052
H    -1.491422  -2.373105  2.121349
H    -4.049792  -4.051764  3.368651
H    -5.324738  -3.072183  2.703023
N    -1.877506  1.825007  5.467730
C    -1.418433  2.768167  6.487837
H    -2.883178  1.706515  5.367719
H    -2.052205  2.664337  7.374554
H    -1.494705  3.797395  6.113728
H    -0.381320  2.546069  6.750129
Ca    1.835617  1.164228  3.392780
