30
Energy: -37701.6946641 eV PBE+vdW (tier 2 basis)
C    -0.009114  -1.161715  0.872338
C    -0.120428  -0.720804  2.291285
O    0.324470  -1.485220  3.229168
H    -0.552687  -2.104835  0.725547
H    1.049176  -1.378437  0.667502
H    -0.364550  -0.419037  0.153002
N    -0.656169  0.435771  2.639847
C    -1.534230  1.351448  1.921804
C    -1.567979  2.592910  2.858382
O    -1.330362  2.402266  4.062277
H    -0.596889  0.764891  3.623689
H    -1.130812  1.601188  0.932449
C    -2.956037  0.750304  1.765893
C    -3.681096  0.390797  3.102069
C    -3.644231  -1.070082  3.481175
O    -2.650747  -1.594724  4.084372
N    -4.692747  -1.819919  3.169927
H    -2.900790  -0.125496  1.103700
H    -3.574525  1.485186  1.235598
H    -4.731065  0.697029  3.019850
H    -3.251411  0.962398  3.937305
H    -4.723446  -2.806005  3.417378
H    -5.513020  -1.425643  2.719345
N    -1.904573  3.781353  2.342643
C    -2.088782  4.136622  0.934704
H    -1.932946  4.534493  3.027428
H    -2.299422  5.208243  0.882159
H    -2.940675  3.610883  0.484676
H    -1.182355  3.945147  0.345555
Ca    -0.766983  -2.222922  4.862266
