30
Energy: -37702.6872716 eV PBE+vdW (tier 2 basis)
C    -0.148530  3.298795  1.754496
C    -0.262554  2.012438  2.498056
O    0.660152  1.611035  3.262818
H    0.731155  3.256006  1.097552
H    0.032636  4.109719  2.472957
H    -1.034586  3.535142  1.156407
N    -1.387402  1.266786  2.345492
C    -1.509295  0.031086  3.104881
C    -0.766358  -1.141965  2.426390
O    0.354549  -1.470040  2.923346
H    -2.122838  1.601529  1.729537
H    -0.884281  0.250129  3.967836
C    -2.839297  -0.292855  3.796788
C    -2.591710  -1.263311  4.986635
C    -1.644042  -0.764402  6.071960
O    -0.423764  -0.501124  5.839433
N    -2.128527  -0.629611  7.300312
H    -3.583882  -0.750528  3.134373
H    -3.271026  0.648885  4.164965
H    -2.164090  -2.208991  4.616739
H    -3.561332  -1.519616  5.429940
H    -3.092821  -0.849048  7.528088
H    -1.517916  -0.336567  8.059997
N    -1.242792  -1.777309  1.365640
C    -2.470247  -1.541188  0.608248
H    -0.634094  -2.521623  1.020086
H    -3.156641  -2.389703  0.721549
H    -2.222752  -1.427804  -0.453786
H    -2.971859  -0.631285  0.944918
Ca    1.296912  -0.175627  4.456923
