30
Energy: -37701.7566179 eV PBE+vdW (tier 2 basis)
C    -1.962639  -1.372542  0.648199
C    -1.317179  -1.600211  1.982724
O    -0.368066  -2.375879  2.146498
H    -2.873716  -0.765170  0.692722
H    -2.187165  -2.340779  0.185914
H    -1.234927  -0.868306  -0.003220
N    -1.827546  -0.898596  3.055284
C    -1.109210  -0.796667  4.322140
C    -1.258620  -2.066741  5.200601
O    -1.639753  -2.015648  6.427493
H    -2.616468  -0.286705  2.887464
H    -0.036099  -0.811454  4.058655
C    -1.345300  0.554549  5.035000
C    -2.723371  1.243457  5.012729
C    -3.840845  0.732050  5.893647
O    -3.616320  0.176161  7.012546
N    -5.090329  0.949350  5.505436
H    -0.663444  1.270380  4.557430
H    -0.979205  0.475682  6.068212
H    -3.097852  1.373970  3.987128
H    -2.557494  2.277914  5.363992
H    -5.308327  1.431461  4.638723
H    -5.866656  0.723760  6.123535
N    -0.896865  -3.191181  4.637251
C    -0.902176  -4.498763  5.286475
H    -0.556875  -3.085693  3.644468
H    -0.497210  -5.230717  4.583158
H    -1.923586  -4.794353  5.557851
H    -0.277251  -4.485781  6.188162
Ca    -2.535663  -1.265976  8.129196
