30
Energy: -37701.6987323 eV PBE+vdW (tier 2 basis)
C    0.393872  0.547478  0.029014
C    0.038465  0.301687  1.457769
O    0.902697  0.516547  2.370415
H    -0.433693  0.367871  -0.664577
H    1.234115  -0.109243  -0.239210
H    0.748554  1.580101  -0.087598
N    -1.188724  -0.143256  1.744053
C    -1.754806  -0.614645  3.028930
C    -1.881697  0.517976  4.053954
O    -0.844504  0.966060  4.663532
H    -1.797787  -0.283735  0.941510
H    -2.766172  -0.966381  2.788279
C    -1.024969  -1.853892  3.591769
C    -1.781818  -2.572585  4.724035
C    -3.137166  -3.132072  4.277092
O    -3.895014  -2.465543  3.559697
N    -3.455348  -4.361729  4.721054
H    -0.015164  -1.596275  3.946696
H    -0.881737  -2.546138  2.749945
H    -1.976318  -1.888844  5.566603
H    -1.136211  -3.367592  5.119549
H    -2.840125  -4.916147  5.303211
H    -4.362302  -4.749620  4.478060
N    -3.064350  1.025860  4.340021
C    -4.385050  0.700061  3.779879
H    -3.039836  1.766872  5.042644
H    -4.531744  1.217225  2.823198
H    -5.140000  1.055954  4.486648
H    -4.495609  -0.383861  3.658341
Ca    1.231858  1.152687  4.345352
