30
Energy: -37701.7973918 eV PBE+vdW (tier 2 basis)
C    0.110132  -0.197643  -0.674397
C    -0.246825  -0.330778  0.769666
O    -0.219351  -1.491210  1.316990
H    -0.008287  0.822934  -1.050684
H    -0.513030  -0.884427  -1.263002
H    1.153090  -0.513151  -0.818787
N    -0.568747  0.769985  1.435663
C    -1.154482  0.968956  2.775985
C    -0.364419  0.381370  3.943857
O    -0.259285  -0.878697  4.129702
H    -0.809308  1.625932  0.884430
H    -1.115278  2.057607  2.880871
C    -2.651656  0.579354  2.842112
C    -3.494249  1.085517  1.647795
C    -3.207835  2.521741  1.199753
O    -2.059892  2.878037  0.871540
N    -4.249151  3.366502  1.153898
H    -3.052682  0.983000  3.783308
H    -2.760790  -0.513074  2.900452
H    -4.553378  0.948377  1.899232
H    -3.306367  0.453967  0.766476
H    -5.194583  3.084367  1.382106
H    -4.103576  4.307169  0.797240
N    0.174314  1.206195  4.827092
C    0.197361  2.675974  4.836260
H    0.618811  0.740102  5.619018
H    0.910470  2.991875  5.602772
H    -0.788544  3.084174  5.091123
H    0.533480  3.071851  3.871999
Ca    -0.086183  -2.673095  3.016888
