30
Energy: -37701.7959373 eV PBE+vdW (tier 2 basis)
C    -0.755545  1.216681  0.173964
C    -0.608168  0.515467  1.480628
O    0.554439  0.205526  1.922076
H    -1.798558  1.425247  -0.085307
H    -0.304591  0.600708  -0.616749
H    -0.196917  2.162210  0.201531
N    -1.687961  0.205166  2.190198
C    -1.667391  -0.501454  3.479896
C    -3.056224  -1.166793  3.738545
O    -3.719960  -0.804288  4.702711
H    -2.592308  0.496479  1.823252
H    -0.908418  -1.295496  3.390671
C    -1.322819  0.466297  4.627929
C    -0.969677  -0.204726  5.956224
C    0.333901  -0.961918  5.998373
O    1.246831  -0.784120  5.121314
N    0.537585  -1.810163  6.992626
H    -2.202062  1.097664  4.807818
H    -0.514035  1.142397  4.312125
H    -1.793386  -0.857248  6.281351
H    -0.896756  0.574306  6.734499
H    -0.168450  -1.967961  7.706628
H    1.427235  -2.292914  7.093550
N    -3.459370  -2.130243  2.874045
C    -2.767706  -2.698070  1.723178
H    -4.385972  -2.494620  3.088655
H    -3.123801  -3.722122  1.570985
H    -1.685437  -2.752965  1.895536
H    -2.955472  -2.133329  0.798391
Ca    2.099119  -0.164217  3.290471
