30
Energy: -37701.8912911 eV PBE+vdW (tier 2 basis)
C    0.084646  -1.352696  0.586103
C    -0.240423  -0.113807  1.347460
O    0.687809  0.702792  1.682189
H    0.590990  -1.082142  -0.350487
H    -0.797403  -1.958342  0.354148
H    0.791288  -1.958720  1.170461
N    -1.502048  0.144256  1.688198
C    -1.892932  1.283639  2.529560
C    -3.179779  1.090037  3.363756
O    -3.185695  1.603018  4.480583
H    -2.194540  -0.565971  1.462477
H    -1.120504  1.365648  3.305723
C    -1.956711  2.604160  1.724395
C    -2.051936  3.851178  2.614270
C    -0.922277  3.990697  3.605001
O    0.271491  3.650765  3.293066
N    -1.177855  4.498883  4.794059
H    -2.825516  2.590960  1.052040
H    -1.078164  2.673989  1.066598
H    -3.008735  3.883216  3.149660
H    -2.021062  4.748889  1.974323
H    -2.128646  4.711704  5.082890
H    -0.432127  4.653541  5.468637
N    -4.215384  0.415881  2.815262
C    -5.478997  0.221908  3.532796
H    -4.219079  0.210027  1.821283
H    -6.167084  1.059996  3.360713
H    -5.265920  0.154439  4.603389
H    -5.945409  -0.707434  3.191813
Ca    1.715003  2.378489  2.426637
