30
Energy: -37701.9171431 eV PBE+vdW (tier 2 basis)
C    0.106518  -1.373515  0.760060
C    -0.210712  -0.093028  1.454059
O    0.709429  0.770972  1.670335
H    0.886303  -1.904711  1.323536
H    0.521451  -1.156209  -0.233824
H    -0.763994  -2.027883  0.647784
N    -1.455796  0.150553  1.854960
C    -1.893598  1.371702  2.548511
C    -3.194812  1.113737  3.371538
O    -4.086164  1.954216  3.359992
H    -2.169180  -0.539306  1.623539
H    -1.098713  1.621391  3.271040
C    -2.095861  2.528794  1.545962
C    -2.210795  3.924813  2.164081
C    -0.975163  4.469147  2.830283
O    0.190531  4.004209  2.581481
N    -1.110492  5.476197  3.676872
H    -3.024260  2.343231  0.990580
H    -1.285665  2.507145  0.801399
H    -3.055836  3.946577  2.867029
H    -2.468337  4.641631  1.365240
H    -2.025011  5.862121  3.895704
H    -0.297334  5.917783  4.099135
N    -3.244837  -0.050520  4.059272
C    -4.389199  -0.402833  4.902728
H    -2.413216  -0.627353  4.130397
H    -4.274657  0.002321  5.916803
H    -4.474838  -1.492545  4.954481
H    -5.297023  0.015473  4.458469
Ca    1.649258  2.627888  1.935554
