30
Energy: -37702.087995 eV PBE+vdW (tier 2 basis)
C    1.371794  -0.216841  -0.056629
C    0.862023  0.296725  1.249049
O    1.649678  0.893645  2.053980
H    0.616247  -0.754224  -0.638699
H    2.234851  -0.873127  0.114286
H    1.734632  0.638084  -0.645798
N    -0.430773  0.128024  1.543784
C    -1.186632  0.706756  2.676605
C    -0.904304  -0.105748  3.959992
O    0.267993  0.015984  4.486038
H    -0.988259  -0.379383  0.859244
H    -0.765066  1.707706  2.864790
C    -2.645251  0.850278  2.206590
C    -3.637574  1.519694  3.183543
C    -4.682675  0.528424  3.691891
O    -4.362819  -0.649530  3.948377
N    -5.931618  0.973911  3.860907
H    -3.029237  -0.143141  1.928043
H    -2.607880  1.441847  1.282367
H    -4.117070  2.379536  2.701256
H    -3.126299  1.922834  4.072709
H    -6.213534  1.916806  3.621471
H    -6.637267  0.341768  4.228922
N    -1.816805  -0.880274  4.474687
C    -1.603208  -1.677243  5.683337
H    -2.831755  -0.847035  4.110552
H    -2.565162  -2.104527  5.978007
H    -1.211373  -1.055440  6.497317
H    -0.894001  -2.490548  5.484435
Ca    2.168344  0.810040  4.105949
