30
Energy: -37702.5707962 eV PBE+vdW (tier 2 basis)
C    0.195782  0.112423  -0.174068
C    0.241297  -0.309064  1.252904
O    1.285095  -0.794473  1.769991
H    -0.783686  0.476095  -0.497153
H    0.459776  -0.767311  -0.780924
H    0.969374  0.865173  -0.375614
N    -0.862168  -0.181415  2.051618
C    -1.700507  1.014013  2.122306
C    -0.786342  2.263237  2.228425
O    0.380732  2.156036  2.704520
H    -0.772531  -0.691241  2.929892
H    -2.317971  1.090484  1.215037
C    -2.663923  0.918843  3.333725
C    -2.117005  1.196349  4.759373
C    -1.198010  0.156511  5.371761
O    -0.020682  -0.027765  4.934103
N    -1.648348  -0.560369  6.391795
H    -3.156709  -0.063536  3.290810
H    -3.461769  1.654571  3.169218
H    -2.988320  1.335645  5.411954
H    -1.567442  2.149852  4.779383
H    -1.046760  -1.250462  6.837579
H    -2.578868  -0.428722  6.775986
N    -1.281599  3.426244  1.836669
C    -0.557759  4.700501  1.915882
H    -2.208098  3.436215  1.417606
H    -1.254589  5.509146  1.681390
H    0.269299  4.715509  1.195379
H    -0.157950  4.845425  2.925146
Ca    1.615682  0.504086  3.565306
