30
Energy: -37701.7490151 eV PBE+vdW (tier 2 basis)
C    -0.227007  -0.894064  1.631518
C    -1.385673  -1.186758  2.521977
O    -1.846013  -2.388614  2.582788
H    0.115374  0.142737  1.680528
H    -0.466910  -1.152755  0.591404
H    0.599116  -1.554941  1.932852
N    -1.959744  -0.255922  3.269475
C    -2.045503  1.185694  3.031254
C    -2.761101  1.725094  4.293546
O    -3.614477  0.993103  4.818242
H    -2.684831  -0.536142  3.946563
H    -1.043849  1.617674  2.911288
C    -2.888854  1.458847  1.754585
C    -4.423516  1.365830  1.871786
C    -5.091793  0.090239  2.342406
O    -4.663211  -1.078011  2.049559
N    -6.225028  0.225432  3.012269
H    -2.526042  0.798177  0.954851
H    -2.673490  2.480935  1.414004
H    -4.835260  1.547524  0.863258
H    -4.800387  2.190070  2.491839
H    -6.563656  1.137729  3.301243
H    -6.769793  -0.584338  3.294212
N    -2.447734  2.965729  4.684298
C    -3.056593  3.635584  5.833496
H    -1.690778  3.445991  4.206736
H    -3.825753  2.980361  6.250262
H    -3.506520  4.585716  5.522282
H    -2.297145  3.832446  6.599635
Ca    -3.782834  -3.017943  2.068646
