30
Energy: -37702.0476023 eV PBE+vdW (tier 2 basis)
C    0.866341  -0.486328  0.342476
C    0.578955  -0.276607  1.792654
O    1.467426  -0.544513  2.664826
H    0.011739  -0.271612  -0.307280
H    1.199824  -1.518631  0.175683
H    1.703647  0.167646  0.058135
N    -0.617332  0.206949  2.145577
C    -1.042146  0.676008  3.479963
C    -1.406297  -0.509530  4.403785
O    -0.438828  -1.287819  4.758872
H    -1.270583  0.380889  1.385458
H    -0.145802  1.109419  3.953192
C    -2.050010  1.832566  3.325259
C    -3.312617  1.616443  2.448319
C    -4.595464  1.558198  3.272898
O    -4.644052  0.868931  4.309543
N    -5.651752  2.249580  2.833816
H    -1.479077  2.671707  2.907361
H    -2.345136  2.150636  4.333964
H    -3.287008  0.660115  1.897959
H    -3.374280  2.402100  1.686052
H    -5.620955  2.833479  2.006989
H    -6.525970  2.196527  3.349967
N    -2.620239  -0.680846  4.839792
C    -2.995518  -1.756872  5.758093
H    -3.413975  0.004463  4.573846
H    -4.059982  -1.650144  5.982369
H    -2.419480  -1.688813  6.689296
H    -2.816270  -2.737425  5.300221
Ca    1.608840  -1.612514  4.492915
