30
Energy: -37702.0846827 eV PBE+vdW (tier 2 basis)
C    0.688147  -0.609184  0.394693
C    0.403740  0.227564  1.593706
O    1.360549  0.788041  2.236642
H    1.417739  -1.388371  0.651264
H    1.155269  0.024674  -0.373084
H    -0.210844  -1.071705  -0.024441
N    -0.857905  0.402596  1.986322
C    -1.221192  1.236994  3.141295
C    -0.779639  0.511261  4.431095
O    0.266773  0.945771  5.038726
H    -1.595590  -0.196328  1.604905
H    -0.568054  2.118726  3.081570
C    -2.655747  1.821146  3.063129
C    -3.908171  1.013921  3.457465
C    -4.072892  -0.304231  2.726892
O    -3.113917  -1.113489  2.688854
N    -5.246735  -0.574343  2.151710
H    -2.769290  2.196689  2.034906
H    -2.646803  2.715165  3.701626
H    -4.776859  1.668627  3.309084
H    -3.893053  0.781318  4.534155
H    -6.029772  0.068625  2.183287
H    -5.388893  -1.478737  1.709114
N    -1.439145  -0.558802  4.803227
C    -1.118936  -1.387801  5.962190
H    -2.167699  -0.886292  4.120425
H    -0.518118  -0.818715  6.676184
H    -0.570737  -2.286093  5.647236
H    -2.052886  -1.703118  6.439309
Ca    2.137660  1.371094  4.120511
