30
Energy: -37701.8324083 eV PBE+vdW (tier 2 basis)
C    -0.330302  -0.182044  0.327788
C    -0.190866  -0.643575  1.742084
O    0.884439  -1.244682  2.117026
H    -1.248709  0.387443  0.154633
H    -0.338874  -1.067249  -0.325148
H    0.537627  0.422362  0.033811
N    -1.183618  -0.426977  2.582194
C    -1.388226  -0.940899  3.935873
C    -2.858641  -0.505393  4.233548
O    -3.324635  0.418378  3.553859
H    -2.020064  0.123212  2.302990
H    -1.293671  -2.035926  3.916675
C    -0.430772  -0.388574  5.019314
C    -0.267150  1.134367  5.076109
C    0.798967  1.725252  4.181398
O    1.816890  1.052425  3.818388
N    0.684284  2.996774  3.828753
H    0.553027  -0.874486  4.927571
H    -0.811116  -0.729338  5.990532
H    0.034535  1.417414  6.099044
H    -1.224669  1.644744  4.897109
H    1.430348  3.462607  3.317676
H    -0.109733  3.560011  4.119799
N    -3.536379  -1.113736  5.218300
C    -3.155891  -2.251454  6.049982
H    -4.470229  -0.730369  5.358114
H    -2.784259  -1.930431  7.033217
H    -2.394358  -2.865162  5.557462
H    -4.035313  -2.885431  6.206308
Ca    2.679013  -0.730840  3.040978
