30
Energy: -37703.0877881 eV PBE+vdW (tier 2 basis)
C    -0.288507  0.105131  -0.417757
C    -0.222591  -0.347640  1.005223
O    0.667249  -1.158962  1.380297
H    -1.090864  0.823062  -0.616047
H    -0.427925  -0.775486  -1.060164
H    0.674693  0.552848  -0.696600
N    -1.148610  0.135816  1.861355
C    -1.340407  -0.234259  3.278403
C    -0.155669  0.284573  4.120330
O    0.944085  -0.336139  4.158100
H    -1.830486  0.776457  1.465902
H    -2.230009  0.322371  3.593138
C    -1.650920  -1.748278  3.420613
C    -1.486053  -2.377713  4.821438
C    -0.453043  -3.492864  4.846830
O    0.609563  -3.413485  4.167099
N    -0.681759  -4.545296  5.621199
H    -1.041959  -2.305399  2.701097
H    -2.686244  -1.880676  3.084412
H    -2.447512  -2.747765  5.196661
H    -1.142537  -1.640474  5.565842
H    -1.535748  -4.644329  6.160190
H    0.009842  -5.288665  5.687257
N    -0.305944  1.410450  4.811482
C    -1.468857  2.302400  4.893878
H    0.529885  1.697363  5.321440
H    -2.349528  1.780144  5.286667
H    -1.698141  2.752655  3.920267
H    -1.221591  3.109556  5.588854
Ca    1.828586  -1.995397  3.032596
