30
Energy: -37701.8328783 eV PBE+vdW (tier 2 basis)
C    -0.034207  1.373025  0.106477
C    -0.089757  0.361400  1.205842
O    0.667074  -0.679073  1.152048
H    -0.691279  2.229533  0.285953
H    -0.334282  0.887570  -0.833170
H    0.995075  1.731171  -0.027721
N    -0.923122  0.561156  2.206466
C    -1.366837  -0.348212  3.261025
C    -2.888078  0.035765  3.383223
O    -3.224949  1.152648  2.983198
H    -1.615553  1.340664  2.157591
H    -1.244267  -1.389791  2.930484
C    -0.696270  -0.114805  4.636888
C    0.658516  -0.812816  4.913983
C    1.907626  -0.151538  4.383245
O    2.569056  -0.667124  3.425961
N    2.329849  0.969972  4.949466
H    -1.391172  -0.497208  5.396445
H    -0.631393  0.967679  4.818447
H    0.642001  -1.843564  4.537080
H    0.772040  -0.888437  6.006286
H    1.857167  1.375164  5.751897
H    3.188946  1.415922  4.636557
N    -3.697369  -0.868588  3.950781
C    -5.124726  -0.635689  4.181816
H    -3.323457  -1.780697  4.191912
H    -5.362089  -0.780337  5.242185
H    -5.724806  -1.326733  3.577828
H    -5.357145  0.392478  3.892935
Ca    2.470118  -1.624454  1.534361
