21
Energy: -102124.924793 eV PBE+vdW (tier 2 basis)
N    0.837162  -0.288573  0.227473
C    0.032765  -0.166429  1.422031
C    0.915972  0.244843  2.577632
O    2.009943  0.702996  2.548476
H    0.325874  0.007415  -0.602926
H    1.698119  0.255568  0.282197
H    -0.722977  0.648440  1.378070
C    -0.758562  -1.492222  1.647604
C    0.087079  -2.689756  1.946438
N    0.256283  -3.179584  3.247774
C    0.834503  -3.457099  1.089619
C    1.086493  -4.227530  3.153217
N    1.445294  -4.410066  1.871026
H    -1.329890  -1.663245  0.725441
H    -1.558724  -1.342841  2.404215
H    0.978536  -3.397694  0.018449
H    1.427456  -4.857887  3.966989
H    2.064157  -5.144217  1.533218
O    0.258917  0.118000  3.890782
H    0.801681  0.722217  4.442812
Sr    -0.800680  -1.836325  4.946252
