21
Energy: -102126.02831 eV PBE+vdW (tier 2 basis)
N    -0.691852  -0.036120  1.816072
C    0.744653  -0.218288  1.889642
C    1.129279  -1.023025  0.641445
O    0.738486  -2.239403  0.477711
H    -1.009606  0.831608  2.240668
H    -1.234357  -0.819451  2.172988
H    1.208074  0.762776  1.728423
C    1.358962  -0.756387  3.222824
C    0.638354  -1.869442  3.912398
N    0.421422  -1.855912  5.286811
C    0.090707  -3.050840  3.475983
C    -0.213258  -2.965753  5.680579
N    -0.421760  -3.698506  4.583507
H    1.399038  0.098988  3.912438
H    2.407669  -1.049709  3.053182
H    0.037322  -3.459665  2.475829
H    -0.503848  -3.219765  6.693256
H    -0.890291  -4.601385  4.580087
O    1.778342  -0.424174  -0.286222
H    0.713040  -1.114511  5.920269
Sr    1.339622  -2.092038  -1.805889
