21
Energy: -102125.559412 eV PBE+vdW (tier 2 basis)
N    -0.974491  -0.645892  0.914808
C    0.169336  -0.286998  1.817408
C    1.281318  0.310679  0.920684
O    1.048456  0.638472  -0.222037
H    -0.899143  0.028674  0.128925
H    -0.713546  -1.529615  0.454872
H    -0.149788  0.547462  2.467032
C    0.601598  -1.467533  2.696502
C    -0.240124  -1.721033  3.912257
N    -1.639864  -1.650050  3.953576
C    0.210082  -2.098382  5.153061
C    -1.994923  -1.987050  5.205196
N    -0.905763  -2.262526  5.938932
H    1.627863  -1.282411  3.036390
H    0.661807  -2.377093  2.073051
H    1.212009  -2.263902  5.530788
H    -3.003863  -2.037532  5.601543
H    -0.907835  -2.541625  6.917699
O    2.434270  0.451713  1.574244
H    3.089327  0.881495  0.984185
Sr    -3.125727  -0.874851  2.176884
