21
Energy: -102124.549481 eV PBE+vdW (tier 2 basis)
N    0.096240  -0.033939  -0.045766
C    -0.031813  0.306019  1.343888
C    1.198025  -0.057650  2.261297
O    1.121617  -0.825375  3.248887
H    0.628103  0.650694  -0.579901
H    0.473995  -0.963066  -0.227397
H    -0.177939  1.393782  1.425843
C    -1.148740  -0.446198  2.064035
C    -2.615946  -0.620967  1.904916
N    -3.089539  -1.426802  2.952644
C    -3.644804  -0.275500  1.079602
C    -4.401448  -1.550046  2.743620
N    -4.761407  -0.872955  1.633868
H    -1.053453  -0.022682  3.084933
H    -0.761383  -1.489350  2.037407
H    -3.686395  0.315237  0.173320
H    -5.103834  -2.103961  3.357047
H    -5.706865  -0.812261  1.263318
O    2.322449  0.478204  1.859182
H    3.075196  0.204971  2.427604
Sr    -0.904809  -1.984109  4.335181
