21
Energy: -102126.1664 eV PBE+vdW (tier 2 basis)
N    0.100053  -0.378768  0.002414
C    -0.063766  0.137056  1.366720
C    1.306429  0.693120  1.777828
O    1.497839  1.951165  1.660976
H    0.206051  0.390426  -0.661065
H    -0.739560  -0.884214  -0.286678
H    -0.751994  0.996451  1.444791
C    -0.613100  -0.959187  2.313159
C    -0.131859  -2.351432  2.065079
N    1.205541  -2.698652  1.978319
C    -0.831295  -3.521297  1.909683
C    1.334906  -4.012200  1.773659
N    0.099827  -4.525398  1.735402
H    -1.706191  -0.968776  2.209090
H    -0.418099  -0.677032  3.359039
H    -1.895962  -3.717540  1.917707
H    2.259421  -4.563446  1.654425
H    -0.111254  -5.511144  1.599136
O    2.269344  -0.063563  2.195767
H    1.948671  -1.991153  2.018845
Sr    3.688095  1.853730  2.371506
