21
Energy: -102126.097357 eV PBE+vdW (tier 2 basis)
N    -0.722844  0.136285  0.087344
C    -0.048123  -0.405893  1.264224
C    1.179247  -1.092811  0.654318
O    2.324442  -0.521394  0.721712
H    -1.330944  -0.544724  -0.366059
H    -1.257224  0.977400  0.296194
H    0.318102  0.445162  1.853209
C    -0.918539  -1.331235  2.143288
C    -0.351206  -1.654170  3.487812
N    -1.035886  -2.440895  4.408864
C    0.806623  -1.281171  4.123875
C    -0.344907  -2.544771  5.550285
N    0.779159  -1.844138  5.386671
H    -1.124362  -2.263832  1.593248
H    -1.888784  -0.828876  2.285793
H    1.631621  -0.664013  3.792157
H    -0.642585  -3.091025  6.437809
H    1.497038  -1.737485  6.099686
O    1.015670  -2.150124  -0.055168
H    -1.943416  -2.874509  4.253678
Sr    2.945916  -1.606783  -1.242940
