21
Energy: -102125.407621 eV PBE+vdW (tier 2 basis)
N    0.254526  0.053829  -0.202372
C    -0.041387  0.167953  1.256363
C    1.210927  0.645285  1.978271
O    2.338857  0.378522  1.515587
H    -0.413952  -0.695149  -0.565645
H    -0.025212  0.926724  -0.662276
H    -0.879760  0.859564  1.434278
C    -0.417842  -1.235179  1.835954
C    -1.558936  -1.860489  1.104932
N    -1.495037  -2.013937  -0.271911
C    -2.743846  -2.376471  1.577457
C    -2.626081  -2.609973  -0.625087
N    -3.397252  -2.848746  0.465133
H    -0.652708  -1.138107  2.903757
H    0.475196  -1.885352  1.777781
H    -3.161068  -2.458676  2.573686
H    -2.919491  -2.882920  -1.632667
H    -4.302330  -3.310960  0.461828
O    1.147685  1.268000  3.126832
H    0.234136  1.469880  3.412847
Sr    2.690000  -0.566474  -0.572983
