21
Energy: -102126.114806 eV PBE+vdW (tier 2 basis)
N    -0.735302  -0.283516  -0.049551
C    -0.231285  -0.098669  1.282350
C    1.089838  0.670510  1.223434
O    1.707125  0.794653  0.117100
H    -0.159831  -0.887858  -0.633320
H    -1.699440  -0.608436  -0.065724
H    -0.937995  0.555313  1.819741
C    -0.044318  -1.406471  2.158072
C    -0.296244  -1.244488  3.618502
N    0.244490  -0.216283  4.378413
C    -1.058052  -1.985714  4.487624
C    -0.157798  -0.314404  5.650613
N    -0.947338  -1.390832  5.727989
H    0.954649  -1.838199  1.988715
H    -0.760324  -2.143771  1.775511
H    -1.653228  -2.875451  4.325878
H    0.097625  0.351391  6.465770
H    -1.399430  -1.713744  6.580538
O    1.589090  1.203802  2.297637
H    0.835845  0.517007  3.964469
Sr    3.233842  2.301376  0.944736
