21
Energy: -102126.163476 eV PBE+vdW (tier 2 basis)
N    -0.249362  -0.184408  0.353431
C    -0.071653  0.154636  1.767736
C    1.432036  0.421895  1.932829
O    1.979484  0.550219  3.055832
H    -0.361431  -1.185369  0.185800
H    -1.022151  0.310758  -0.089447
H    -0.562769  1.123093  1.957715
C    -0.615216  -0.844436  2.823815
C    0.041588  -2.190577  2.878634
N    1.225890  -2.452089  3.582900
C    -0.398425  -3.365330  2.317084
C    1.467874  -3.760022  3.429200
N    0.513285  -4.330535  2.673294
H    -1.686442  -0.979556  2.625545
H    -0.568962  -0.358520  3.810404
H    -1.284093  -3.596698  1.736962
H    2.301343  -4.317324  3.844516
H    0.465789  -5.316421  2.425754
O    2.088556  0.488790  0.830268
H    1.324355  0.281491  0.138446
Sr    2.621301  -0.755599  4.775279
