21
Energy: -102126.146992 eV PBE+vdW (tier 2 basis)
N    0.041899  0.107142  0.022524
C    0.421363  -0.208716  1.449889
C    1.485459  -1.266862  1.137299
O    2.602425  -0.844797  0.706861
H    0.250551  1.085976  -0.183384
H    -0.965170  -0.006896  -0.113156
H    0.888935  0.665647  1.917764
C    -0.787029  -0.695235  2.265561
C    -0.443432  -1.280596  3.596395
N    0.155951  -2.526608  3.741016
C    -0.647726  -0.819011  4.871476
C    0.314209  -2.820197  5.035615
N    -0.172411  -1.787569  5.731839
H    -1.337792  -1.451212  1.683854
H    -1.471555  0.147832  2.427906
H    -1.097954  0.098642  5.228760
H    0.751434  -3.722994  5.445724
H    -0.192044  -1.736902  6.748408
O    1.088451  -2.464938  0.907997
H    0.448045  -3.109122  2.953575
Sr    1.875391  -1.806583  -1.294924
