21
Energy: -102125.373459 eV PBE+vdW (tier 2 basis)
N    0.027643  -0.639823  -0.036828
C    0.003605  -0.023003  1.247128
C    1.397972  0.247571  1.739813
O    2.398019  -0.396634  1.429259
H    0.339438  -1.608129  -0.047478
H    -0.843913  -0.539359  -0.549811
H    -0.550002  0.926493  1.180259
C    -0.667129  -0.836616  2.456596
C    -0.052613  -2.151277  2.812792
N    1.175584  -2.323499  3.474973
C    -0.628887  -3.387201  2.639672
C    1.294112  -3.641481  3.687923
N    0.230317  -4.301380  3.196522
H    -1.699962  -1.014041  2.131954
H    -0.735379  -0.195272  3.349976
H    -1.575798  -3.677747  2.200126
H    2.112024  -4.145474  4.194244
H    0.080191  -5.306468  3.249173
O    1.579500  1.073971  2.825865
H    0.803038  1.630217  3.036512
Sr    3.213243  -0.867849  3.627329
