21
Energy: -102126.594349 eV PBE+vdW (tier 2 basis)
N    -0.097118  -3.480431  2.136866
C    0.197605  -2.137768  1.631199
C    1.012099  -2.093324  0.325801
O    1.363591  -3.184198  -0.244786
H    -0.749065  -3.969621  1.522051
H    0.749445  -4.053865  2.165416
H    -0.760475  -1.650505  1.383763
C    0.891618  -1.281709  2.722502
C    0.051935  -1.112243  3.948237
N    -0.696932  -2.156309  4.465695
C    -0.140202  -0.051466  4.796844
C    -1.328955  -1.769556  5.574855
N    -0.993322  -0.490539  5.790342
H    1.140209  -0.294189  2.317045
H    1.844158  -1.762836  3.001536
H    0.254360  0.956206  4.780844
H    -1.991233  -2.369483  6.187161
H    -1.323046  0.067269  6.574327
O    1.308189  -0.955972  -0.188447
H    -0.744139  -3.045809  3.927902
Sr    2.301279  -1.990654  -2.031153
