21
Energy: -102126.273887 eV PBE+vdW (tier 2 basis)
N    -0.009125  -0.947559  -0.041689
C    0.116714  -0.529880  1.407791
C    0.900892  0.816095  1.304542
O    1.273343  1.324343  2.426204
H    0.578540  -1.752018  -0.290611
H    -0.971109  -1.141770  -0.339001
H    -0.896349  -0.321859  1.775825
C    0.802014  -1.600021  2.292595
C    0.380978  -1.641634  3.735368
N    0.775299  -0.741825  4.731219
C    -0.393578  -2.620442  4.312131
C    0.235766  -1.193606  5.869276
N    -0.472505  -2.316354  5.648233
H    1.895134  -1.496214  2.213725
H    0.565113  -2.593394  1.885030
H    -0.868820  -3.500299  3.894930
H    0.338026  -0.748783  6.854082
H    -0.967519  -2.854902  6.355151
O    1.106126  1.261460  0.177852
H    0.379523  -0.064197  -0.525823
Sr    1.931465  1.477949  4.504004
