21
Energy: -102126.620119 eV PBE+vdW (tier 2 basis)
N    0.730679  -1.349605  -0.202528
C    0.432318  -0.501372  0.989619
C    1.752413  -0.102063  1.637660
O    2.797765  -0.752014  1.479790
H    -0.146884  -1.784674  -0.504957
H    0.993862  -0.737255  -0.982997
H    -0.093187  0.420476  0.699103
C    -0.484054  -1.242934  1.993884
C    0.079644  -2.379623  2.800246
N    1.015643  -3.317844  2.353504
C    -0.333774  -2.738300  4.061358
C    1.140135  -4.214757  3.340807
N    0.340421  -3.893008  4.373272
H    -1.357988  -1.590840  1.416926
H    -0.881730  -0.495159  2.692311
H    -1.049641  -2.286728  4.737957
H    1.782033  -5.089646  3.341124
H    0.246865  -4.421605  5.237469
O    1.659734  0.966627  2.390415
H    2.520306  1.179722  2.813311
Sr    2.650440  -2.951396  0.512723
