21
Energy: -102126.205389 eV PBE+vdW (tier 2 basis)
N    -1.179871  0.296908  0.774785
C    -0.119240  -0.043894  1.712114
C    1.243612  0.371649  1.164530
O    1.305040  1.352514  0.338787
H    -0.987057  1.196390  0.333038
H    -2.076141  0.381242  1.255303
H    -0.163485  0.545104  2.656969
C    -0.191511  -1.515326  2.168101
C    -0.294371  -2.542909  1.084958
N    0.056965  -3.869860  1.313385
C    -0.782079  -2.513558  -0.198664
C    -0.199956  -4.621340  0.235242
N    -0.705225  -3.803265  -0.690978
H    -1.074982  -1.617331  2.819107
H    0.681032  -1.731057  2.800409
H    -1.192431  -1.682851  -0.756345
H    -0.030217  -5.686752  0.135915
H    -1.007785  -4.100974  -1.615365
O    2.318625  -0.173672  1.606175
H    0.438260  -4.238002  2.181530
Sr    3.610815  1.495980  0.589000
