21
Energy: -102126.513704 eV PBE+vdW (tier 2 basis)
N    -0.113836  0.544916  0.253792
C    0.141338  0.063139  1.671511
C    1.656879  0.014570  1.861874
O    2.315478  -0.500381  0.891930
H    0.612356  0.112229  -0.349325
H    -1.046708  0.283211  -0.095697
H    -0.340994  0.754614  2.370186
C    -0.392785  -1.390856  1.797022
C    0.001748  -2.146116  3.032861
N    1.294430  -2.602909  3.313556
C    -0.856628  -2.615645  3.997581
C    1.184040  -3.329370  4.428480
N    -0.091978  -3.354853  4.863365
H    -0.046587  -1.952818  0.913600
H    -1.490875  -1.365574  1.756185
H    -1.926860  -2.503835  4.124443
H    1.985648  -3.854427  4.938464
H    -0.430884  -3.852930  5.682656
O    2.141992  0.265627  2.993784
H    -0.023450  1.567938  0.173782
Sr    3.576673  -1.623533  2.626949
