21
Energy: -102126.339175 eV PBE+vdW (tier 2 basis)
N    -0.312922  -0.239938  1.220325
C    0.289143  0.648278  2.217296
C    1.374495  1.516877  1.566097
O    2.610640  1.165170  1.593332
H    0.383304  -0.817990  0.746857
H    -0.836576  0.279950  0.516359
H    -0.497301  1.334690  2.561951
C    0.833471  -0.161526  3.407215
C    -0.226625  -0.909362  4.154471
N    -0.160126  -1.110407  5.529328
C    -1.377463  -1.542412  3.752205
C    -1.209499  -1.825084  5.955711
N    -1.955876  -2.088853  4.880866
H    1.351243  0.517081  4.100770
H    1.600418  -0.866456  3.048570
H    -1.802299  -1.639612  2.762721
H    -1.412774  -2.127333  6.976002
H    -2.822938  -2.620692  4.900710
O    1.009858  2.565633  0.919669
H    0.578982  -0.774278  6.141408
Sr    3.189845  3.002261  0.259137
