21
Energy: -102126.154695 eV PBE+vdW (tier 2 basis)
N    3.137658  -1.588711  2.373848
C    2.738952  -1.146009  1.043861
C    2.180330  0.279460  1.093627
O    0.930605  0.533525  1.346660
H    4.011540  -1.170259  2.687142
H    2.426254  -1.461180  3.091630
H    3.653352  -1.068249  0.441711
C    1.833154  -2.187778  0.342017
C    0.739665  -2.781801  1.162968
N    -0.271579  -2.036084  1.751529
C    0.466141  -4.088728  1.476503
C    -1.129570  -2.836516  2.394709
N    -0.690447  -4.089091  2.229166
H    2.484687  -3.013375  0.030634
H    1.412792  -1.757711  -0.580777
H    0.991691  -5.000773  1.223607
H    -2.012142  -2.535537  2.945535
H    -1.149948  -4.915220  2.605774
O    2.997269  1.254374  0.941884
H    -0.280539  -1.010509  1.710253
Sr    1.394131  2.879174  1.160718
