21
Energy: -102126.061502 eV PBE+vdW (tier 2 basis)
N    -0.932136  -0.179556  0.350037
C    -0.077362  -0.903345  1.269610
C    0.788126  -1.892218  0.494278
O    1.300715  -2.918966  1.075893
H    -0.466216  -0.017320  -0.541965
H    -1.217316  0.723676  0.725864
H    0.669044  -0.267307  1.798890
C    -0.962059  -1.600770  2.353062
C    -0.404913  -1.645701  3.737504
N    -1.108358  -1.159174  4.834125
C    0.779465  -2.113340  4.250976
C    -0.405066  -1.319745  5.961202
N    0.748171  -1.898048  5.614946
H    -1.218152  -2.618557  2.027740
H    -1.910974  -1.049084  2.367536
H    1.616356  -2.583982  3.754227
H    -0.711245  -1.034413  6.960730
H    1.485528  -2.140354  6.272412
O    1.014998  -1.675133  -0.748491
H    -2.037798  -0.746053  4.799456
Sr    2.199189  -3.639609  -0.989034
