29
Energy: -19618.6382145 eV PBE+vdW (tier 2 basis)
C    0.164802  -0.129043  0.561136
C    -0.247648  0.292046  1.952540
O    0.338955  -0.130862  2.960199
H    1.181399  0.238500  0.370492
H    -0.501785  0.244900  -0.224630
H    0.199109  -1.224196  0.520204
N    -1.274315  1.180071  2.025007
C    -1.906252  1.552368  3.275227
C    -3.427595  1.453011  3.052715
O    -3.914512  1.625902  1.935256
H    -1.827175  1.393885  1.196729
H    -1.577718  0.819811  4.028453
C    -1.561090  2.984307  3.757496
C    -0.106227  3.292134  3.928804
N    0.870360  2.353005  4.197051
C    0.551859  4.506601  3.966403
C    2.048017  3.028121  4.352676
N    1.890299  4.335155  4.235394
H    -2.094469  3.139266  4.711446
H    -1.992607  3.706269  3.048400
H    0.765429  1.339468  4.054847
H    0.124687  5.494543  3.821432
H    2.986199  2.516028  4.541282
N    -4.159789  1.206323  4.169661
C    -5.611147  1.155536  4.170230
H    -3.665992  1.040974  5.038884
H    -5.971260  0.167757  4.488083
H    -5.949125  1.344813  3.146459
H    -6.033407  1.921305  4.835126
