29
Energy: -19618.1651161 eV PBE+vdW (tier 2 basis)
C    0.579231  -0.715649  0.466226
C    0.453401  0.042622  1.771906
O    1.417489  0.287259  2.490860
H    -0.043169  -1.622636  0.461194
H    1.626354  -1.006014  0.349372
H    0.268135  -0.087403  -0.378543
N    -0.808153  0.447664  2.158556
C    -2.054038  0.358226  1.416340
C    -2.264125  1.605134  0.506835
O    -1.523438  1.765841  -0.460708
H    -0.807793  0.979065  3.025546
H    -1.934873  -0.451355  0.684483
C    -3.217276  -0.070213  2.332136
C    -3.504191  0.785081  3.532310
N    -4.426828  0.381910  4.480957
C    -3.043747  2.000282  4.011781
C    -4.480165  1.340497  5.456403
N    -3.655830  2.333930  5.200693
H    -2.980542  -1.089356  2.679235
H    -4.125480  -0.162523  1.712409
H    -4.957250  -0.481458  4.457509
H    -2.301199  2.658210  3.570405
H    -5.133896  1.258058  6.318790
N    -3.284637  2.448447  0.821542
C    -3.540231  3.667785  0.075254
H    -3.769222  2.314493  1.704567
H    -3.269364  4.558917  0.659896
H    -4.599660  3.735950  -0.204530
H    -2.925990  3.640747  -0.830414
