29
Energy: -19618.1731001 eV PBE+vdW (tier 2 basis)
C    -0.725663  1.273832  0.801115
C    0.219270  0.495103  1.692025
O    1.268489  0.964948  2.120507
H    -0.258683  2.236693  0.579327
H    -1.687258  1.437020  1.306161
H    -0.926425  0.746382  -0.142285
N    -0.123314  -0.808253  2.001998
C    -1.400425  -1.475260  1.784287
C    -2.326613  -1.217580  3.000989
O    -2.981445  -0.179708  3.060321
H    0.503397  -1.218184  2.691660
H    -1.902328  -0.972292  0.949420
C    -1.150229  -2.938798  1.387353
C    -2.387027  -3.708677  1.049483
N    -2.337006  -5.028269  0.635090
C    -3.732185  -3.396622  1.034044
C    -3.620673  -5.439096  0.391844
N    -4.487179  -4.475587  0.625945
H    -0.579134  -3.450819  2.185830
H    -0.466231  -2.915421  0.523177
H    -1.496171  -5.579886  0.510256
H    -4.201477  -2.453670  1.296325
H    -3.855371  -6.441999  0.049710
N    -2.289650  -2.141210  4.001118
C    -3.113239  -2.020457  5.191523
H    -1.870058  -3.041889  3.805175
H    -2.569884  -2.400851  6.064878
H    -4.060897  -2.570581  5.088828
H    -3.343209  -0.960571  5.338787
