29
Energy: -19618.2132396 eV PBE+vdW (tier 2 basis)
C    -0.593917  0.736417  -0.254667
C    -0.357173  -0.157142  0.950079
O    0.760156  -0.582999  1.227692
H    -1.227821  1.604987  -0.028512
H    -1.067139  0.171077  -1.068272
H    0.382327  1.087885  -0.599088
N    -1.436806  -0.483770  1.737099
C    -2.820725  -0.101156  1.609413
C    -3.376520  0.139832  3.023580
O    -2.969691  -0.518155  3.977958
H    -1.215595  -1.027210  2.570955
H    -2.887954  0.811436  1.003978
C    -3.698164  -1.214173  0.939129
C    -3.340587  -1.471259  -0.479761
N    -3.821466  -0.710388  -1.532776
C    -2.453713  -2.348176  -1.070163
C    -3.222725  -1.159504  -2.679758
N    -2.387977  -2.149591  -2.431325
H    -4.762490  -0.942547  1.032067
H    -3.560667  -2.132759  1.524956
H    -4.517556  0.022881  -1.468922
H    -1.852042  -3.104051  -0.576067
H    -3.442197  -0.737610  -3.655412
N    -4.374559  1.061641  3.156232
C    -4.912863  1.951707  2.141491
H    -4.729895  1.141528  4.103875
H    -5.652904  2.605641  2.614016
H    -5.424487  1.406109  1.333654
H    -4.137998  2.594106  1.698462
