29
Energy: -19618.2082663 eV PBE+vdW (tier 2 basis)
C    -0.009797  -0.531178  1.078877
C    -0.625053  0.265899  2.210690
O    0.056537  0.807566  3.075377
H    -0.605859  -1.397196  0.768406
H    0.982792  -0.860166  1.399128
H    0.114316  0.118681  0.201215
N    -2.004432  0.375744  2.254721
C    -2.996235  -0.029362  1.259448
C    -3.102475  -1.572598  1.098763
O    -3.364393  -2.091303  0.017712
H    -2.309791  1.017873  2.980685
H    -3.965300  0.270006  1.686434
C    -2.872832  0.666551  -0.126989
C    -4.189133  1.055259  -0.713644
N    -4.724175  2.325938  -0.572714
C    -5.157291  0.351425  -1.400515
C    -5.952026  2.331652  -1.178468
N    -6.243758  1.149968  -1.685350
H    -2.360473  -0.010639  -0.820951
H    -2.240519  1.557327  -0.002876
H    -4.263561  3.119451  -0.142852
H    -5.119028  -0.693147  -1.688982
H    -6.575659  3.218988  -1.222292
N    -2.931125  -2.266613  2.255716
C    -3.016291  -3.712519  2.325081
H    -2.622855  -1.743692  3.068226
H    -3.734456  -4.025339  3.094732
H    -2.038291  -4.162535  2.548688
H    -3.356997  -4.073836  1.349197
