29
Energy: -19618.2979793 eV PBE+vdW (tier 2 basis)
C    0.054319  -1.589898  -0.943463
C    0.157139  -0.621476  0.215997
O    1.196687  -0.017330  0.467586
H    1.061194  -1.953125  -1.168024
H    -0.313798  -1.046008  -1.825189
H    -0.619393  -2.436983  -0.773529
N    -0.962320  -0.388348  0.988959
C    -2.294013  -0.991522  0.958139
C    -2.243065  -2.532455  1.108682
O    -2.741040  -3.291258  0.268659
H    -0.795008  0.329138  1.687941
H    -2.804190  -0.611860  1.857574
C    -3.145394  -0.549738  -0.256111
C    -4.615467  -0.733567  -0.081377
N    -5.235852  -1.966409  -0.102665
C    -5.642075  0.168291  0.123570
C    -6.570803  -1.760764  0.090620
N    -6.853446  -0.476596  0.228126
H    -2.793051  -1.073729  -1.155872
H    -2.950456  0.520129  -0.405821
H    -4.721963  -2.842261  -0.183132
H    -5.568196  1.250095  0.185515
H    -7.287824  -2.574994  0.120999
N    -1.623978  -3.030157  2.211200
C    -1.006902  -2.320061  3.321240
H    -1.601713  -4.045264  2.227979
H    -0.916852  -3.013203  4.164614
H    -1.631548  -1.480467  3.653063
H    -0.007759  -1.937589  3.070623
