29
Energy: -19618.1943115 eV PBE+vdW (tier 2 basis)
C    -0.015309  -0.512848  -0.168538
C    0.010015  0.178003  1.184109
O    0.908305  0.957339  1.494771
H    0.116489  0.243299  -0.951302
H    -0.931298  -1.082805  -0.367615
H    0.842540  -1.195370  -0.226275
N    -1.044200  -0.132591  2.004853
C    -1.243829  0.200180  3.418589
C    -2.259502  1.331107  3.717273
O    -2.981639  1.215199  4.720205
H    -1.720110  -0.786659  1.628835
H    -1.744770  -0.680610  3.842305
C    0.063777  0.404928  4.239307
C    -0.010747  -0.140263  5.630331
N    -1.068460  0.066267  6.494145
C    0.894935  -0.887966  6.357563
C    -0.765330  -0.560677  7.668165
N    0.420746  -1.142701  7.624341
H    0.336101  1.471092  4.238349
H    0.884111  -0.105334  3.723909
H    -1.945616  0.516478  6.215807
H    1.866046  -1.248297  6.031242
H    -1.443380  -0.565621  8.515703
N    -2.362767  2.431527  2.933891
C    -1.560473  2.887394  1.807293
H    -3.082886  3.061934  3.275924
H    -1.598385  3.982343  1.783105
H    -1.944024  2.507783  0.848343
H    -0.512761  2.584727  1.909352
