29
Energy: -19618.4544156 eV PBE+vdW (tier 2 basis)
C    1.026427  -0.493132  1.111680
C    0.541638  0.247191  2.340492
O    1.350393  0.772745  3.114277
H    1.463153  -1.444587  1.444911
H    1.822444  0.088288  0.634252
H    0.238866  -0.706810  0.378735
N    -0.817203  0.289246  2.492246
C    -1.642446  0.594838  3.671517
C    -1.464225  1.940338  4.419079
O    -2.464195  2.427486  4.953707
H    -1.332008  -0.186057  1.760002
H    -2.662043  0.695798  3.279221
C    -1.682697  -0.596469  4.683460
C    -0.359456  -1.119810  5.112595
N    0.506910  -0.457788  5.960238
C    0.320765  -2.268022  4.758066
C    1.646108  -1.205880  6.057244
N    1.561904  -2.316513  5.349245
H    -2.224499  -1.425034  4.206085
H    -2.298165  -0.269668  5.535586
H    0.360565  0.469473  6.342501
H    -0.033429  -3.067887  4.114082
H    2.494894  -0.897147  6.658796
N    -0.227071  2.470222  4.504081
C    0.006129  3.730106  5.185922
H    0.541865  1.961125  4.032569
H    -0.414091  4.578555  4.625796
H    1.086268  3.877279  5.291859
H    -0.462371  3.727987  6.179102
