29
Energy: -19618.0697059 eV PBE+vdW (tier 2 basis)
C    -1.100131  -0.474193  0.091246
C    -0.159309  0.040086  1.165875
O    0.842415  0.689968  0.884249
H    -0.809275  -0.007789  -0.853507
H    -1.003979  -1.563987  -0.012589
H    -2.152080  -0.237823  0.296996
N    -0.443511  -0.247424  2.482200
C    -1.528992  -1.015091  3.086950
C    -1.566065  -2.460749  2.521745
O    -0.614607  -3.212872  2.679105
H    0.290479  0.069815  3.107577
H    -1.214191  -1.172863  4.128119
C    -2.869172  -0.233474  3.154120
C    -3.785324  -0.657883  4.254585
N    -4.285992  -1.938221  4.419070
C    -4.311419  0.053297  5.314369
C    -5.066585  -1.936348  5.542637
N    -5.106232  -0.744310  6.105380
H    -3.381743  -0.232500  2.175522
H    -2.611540  0.818119  3.335043
H    -4.061708  -2.731500  3.825560
H    -4.157524  1.103993  5.541124
H    -5.573257  -2.827421  5.899481
N    -2.722786  -2.856475  1.892270
C    -2.785861  -4.140104  1.206311
H    -3.349410  -2.127535  1.567818
H    -3.833888  -4.420842  1.053594
H    -2.290257  -4.894787  1.825234
H    -2.273942  -4.113363  0.232045
