29
Energy: -19618.5447486 eV PBE+vdW (tier 2 basis)
C    -0.261446  -0.258789  0.042462
C    -0.432158  -0.892638  1.405932
O    -0.049155  -2.046741  1.639193
H    0.688713  -0.588058  -0.389974
H    -0.295572  0.837394  0.064261
H    -1.072449  -0.613871  -0.608961
N    -1.043282  -0.113521  2.342653
C    -1.593260  -0.559086  3.627958
C    -0.569256  -0.873873  4.745910
O    -0.773880  -0.439461  5.881222
H    -1.348986  0.800657  2.033272
H    -2.135701  0.307661  4.023722
C    -2.601830  -1.735416  3.473973
C    -3.720927  -1.416360  2.547296
N    -4.799938  -0.622377  2.896490
C    -3.920100  -1.690985  1.209706
C    -5.584737  -0.470992  1.784509
N    -5.076839  -1.103890  0.744872
H    -2.969040  -1.981508  4.481688
H    -2.071277  -2.618680  3.099129
H    -4.991985  -0.258254  3.822714
H    -3.286886  -2.292821  0.564830
H    -6.508596  0.098579  1.797026
N    0.468598  -1.665451  4.389675
C    1.484430  -2.086691  5.333662
H    0.481983  -2.008481  3.421450
H    1.296211  -1.582238  6.287249
H    2.487087  -1.817738  4.973890
H    1.450905  -3.173964  5.495186
