29
Energy: -19618.6743271 eV PBE+vdW (tier 2 basis)
C    -0.705907  2.620539  -0.981052
C    -0.604188  1.964530  0.378859
O    0.496798  1.667612  0.868043
H    -0.212178  1.976625  -1.719304
H    -0.156589  3.570019  -0.957202
H    -1.737459  2.809582  -1.299673
N    -1.779225  1.732755  1.010103
C    -1.902507  1.064415  2.288105
C    -3.364533  0.593186  2.367835
O    -4.217086  1.057997  1.605368
H    -2.678337  1.935156  0.570010
H    -1.228200  0.195240  2.293207
C    -1.532120  1.985667  3.510880
C    -0.317320  1.553951  4.256642
N    0.900855  1.361610  3.639636
C    -0.092461  1.256117  5.587164
C    1.783514  0.963883  4.599454
N    1.218147  0.892470  5.794437
H    -2.371693  2.035301  4.217077
H    -1.413689  3.003334  3.109237
H    1.030717  1.456455  2.621917
H    -0.807005  1.295511  6.404639
H    2.821826  0.738887  4.377406
N    -3.678810  -0.332861  3.309947
C    -2.822289  -0.951536  4.309977
H    -4.671320  -0.547567  3.338475
H    -3.145031  -1.987254  4.469629
H    -2.852901  -0.419720  5.271987
H    -1.779644  -0.970345  3.977069
