29
Energy: -19618.0721666 eV PBE+vdW (tier 2 basis)
C    -0.049331  1.211280  0.487681
C    -0.141423  0.167047  1.575061
O    0.862964  -0.401958  1.993806
H    -1.004861  1.543205  0.079027
H    0.487780  2.081198  0.885725
H    0.551451  0.783773  -0.322956
N    -1.365575  -0.169396  2.128261
C    -2.720883  0.293754  1.915667
C    -3.179236  0.187284  0.434474
O    -2.582878  -0.475122  -0.399585
H    -1.250511  -0.908533  2.814718
H    -3.352435  -0.458732  2.419351
C    -3.041800  1.637998  2.644032
C    -2.361177  2.862826  2.143396
N    -2.638434  3.466787  0.929428
C    -1.355327  3.633601  2.688653
C    -1.795026  4.535368  0.797218
N    -1.009873  4.667671  1.849247
H    -4.136373  1.783201  2.678537
H    -2.740285  1.499084  3.690691
H    -3.291774  3.110961  0.238933
H    -0.860253  3.487070  3.643622
H    -1.803528  5.178785  -0.076818
N    -4.338368  0.870198  0.132429
C    -5.004926  0.653474  -1.145660
H    -4.909643  1.197549  0.903784
H    -5.730819  1.456563  -1.314986
H    -5.523046  -0.316489  -1.186167
H    -4.255734  0.666860  -1.943933
