29
Energy: -19618.8681918 eV PBE+vdW (tier 2 basis)
C    -1.632043  0.332407  0.059319
C    -1.879389  0.164343  1.541822
O    -2.626936  -0.720274  1.984786
H    -0.975733  1.176820  -0.182274
H    -2.594785  0.465895  -0.448910
H    -1.183813  -0.591479  -0.327739
N    -1.233385  1.039685  2.355785
C    -1.256526  0.958207  3.812260
C    -2.547242  1.590200  4.410830
O    -2.535642  2.614064  5.108444
H    -0.650633  1.775297  1.959463
H    -1.278861  -0.111448  4.073584
C    0.032673  1.588807  4.377202
C    0.365901  2.925082  3.799718
N    -0.380023  4.057366  4.050289
C    1.354717  3.342908  2.926523
C    0.171275  5.079620  3.336428
N    1.229048  4.685377  2.646580
H    0.866786  0.907677  4.161717
H    -0.066512  1.646805  5.470186
H    -1.242968  4.020275  4.599311
H    2.162436  2.748265  2.509369
H    -0.231315  6.087402  3.354802
N    -3.661792  0.892595  4.106362
C    -4.991719  1.315439  4.500304
H    -3.541159  0.101286  3.461287
H    -4.896072  2.132280  5.222639
H    -5.535337  0.482980  4.965476
H    -5.569952  1.672121  3.635438
