29
Energy: -19618.1474034 eV PBE+vdW (tier 2 basis)
C    -0.007979  -0.024288  0.172104
C    -0.029804  -0.301067  1.659237
O    0.986666  -0.567860  2.298584
H    -0.443398  -0.867093  -0.384489
H    1.035951  0.090685  -0.130610
H    -0.569377  0.880646  -0.094315
N    -1.246806  -0.248965  2.309675
C    -2.570383  -0.287551  1.706669
C    -3.548033  0.799402  2.202321
O    -4.182018  1.450671  1.374815
H    -1.154807  -0.495692  3.291493
H    -2.452132  -0.037491  0.648382
C    -3.214559  -1.704486  1.767236
C    -2.473455  -2.707691  0.951740
N    -1.247156  -3.248763  1.302023
C    -2.742979  -3.250299  -0.289157
C    -0.844818  -4.062067  0.278865
N    -1.731555  -4.088558  -0.698069
H    -4.238233  -1.628950  1.375792
H    -3.303192  -2.030649  2.816429
H    -0.704761  -3.025219  2.129071
H    -3.622003  -3.079152  -0.903069
H    0.094068  -4.605646  0.305174
N    -3.744416  0.995040  3.542426
C    -3.096093  0.385157  4.690663
H    -4.395209  1.753319  3.724332
H    -3.719722  0.559691  5.574362
H    -2.098519  0.806193  4.892896
H    -3.010828  -0.703712  4.577751
