29
Energy: -19618.059044 eV PBE+vdW (tier 2 basis)
C    -0.880624  -0.221172  0.106214
C    -0.613521  0.261368  1.521868
O    0.401821  0.875349  1.827905
H    -0.111741  -0.956153  -0.163992
H    -0.774595  0.627887  -0.579502
H    -1.869394  -0.675705  -0.034648
N    -1.596261  -0.030596  2.434617
C    -1.506634  0.280249  3.859136
C    -1.050849  1.741716  4.133421
O    -0.108910  1.990233  4.875171
H    -2.399178  -0.560715  2.119603
H    -2.532618  0.193297  4.251250
C    -0.605461  -0.709523  4.641159
C    -1.024794  -0.896698  6.061836
N    -1.772503  -1.988331  6.476314
C    -0.884295  -0.130118  7.201615
C    -2.027186  -1.840112  7.813248
N    -1.506789  -0.722201  8.279864
H    0.424522  -0.335921  4.594528
H    -0.632631  -1.673844  4.112898
H    -2.029556  -2.781635  5.901163
H    -0.368076  0.819614  7.283926
H    -2.585173  -2.574897  8.385222
N    -1.798469  2.744029  3.579531
C    -2.944343  2.666679  2.694566
H    -1.413483  3.663006  3.772790
H    -3.500254  3.609477  2.760411
H    -3.629461  1.865412  3.000108
H    -2.664423  2.502135  1.642176
