29
Energy: -19618.5148575 eV PBE+vdW (tier 2 basis)
C    -0.058928  -0.063732  -0.072506
C    -0.066062  0.075900  1.435021
O    0.968093  0.274723  2.079726
H    -1.056217  -0.199295  -0.508319
H    0.570844  -0.919862  -0.345169
H    0.402258  0.832073  -0.506132
N    -1.289080  -0.018653  2.037739
C    -1.439818  0.065543  3.488584
C    -1.207793  -1.334622  4.118000
O    -2.136528  -2.101331  4.364935
H    -2.087239  -0.320192  1.489467
H    -0.648039  0.745279  3.832822
C    -2.819811  0.618441  3.873028
C    -2.891347  1.044085  5.301205
N    -2.454876  2.282812  5.741851
C    -3.297066  0.396356  6.449274
C    -2.622812  2.324607  7.099553
N    -3.130262  1.197091  7.557850
H    -3.569180  -0.167639  3.704440
H    -3.058726  1.461123  3.205243
H    -2.093100  3.027859  5.158296
H    -3.687323  -0.613081  6.523539
H    -2.364866  3.197304  7.691169
N    0.105939  -1.614376  4.319996
C    0.564349  -2.910287  4.782488
H    0.777017  -0.960015  3.918370
H    1.343615  -2.788714  5.545379
H    0.967183  -3.518484  3.958316
H    -0.290106  -3.437147  5.219436
