29
Energy: -19617.8582711 eV PBE+vdW (tier 2 basis)
C    -0.375383  -0.321626  -0.482077
C    0.026761  -0.381038  0.975271
O    1.033093  -0.977741  1.352316
H    0.481545  -0.643863  -1.079301
H    -0.680730  0.682194  -0.801746
H    -1.211951  -1.010724  -0.662065
N    -0.764064  0.263362  1.905482
C    -1.985720  1.043199  1.731829
C    -3.026964  0.252825  0.879040
O    -3.293611  -0.885279  1.259839
H    -0.501024  0.025103  2.856850
H    -2.493126  0.979827  2.706596
C    -1.691644  2.566881  1.556474
C    -0.628142  3.001759  0.602657
N    0.706609  2.658882  0.735797
C    -0.647901  3.853269  -0.486701
C    1.400071  3.276754  -0.265711
N    0.608860  4.014243  -1.021975
H    -1.414666  2.920973  2.563652
H    -2.621165  3.098357  1.315001
H    1.081517  2.001062  1.410550
H    -1.505134  4.375416  -0.900769
H    2.470084  3.149708  -0.394474
N    -3.709043  0.795089  -0.171609
C    -3.489279  1.983039  -0.981559
H    -4.407038  0.138939  -0.510096
H    -4.004926  1.839532  -1.937194
H    -3.895109  2.894041  -0.516864
H    -2.427369  2.141848  -1.196831
