29
Energy: -19618.1342264 eV PBE+vdW (tier 2 basis)
C    -0.433505  -0.583566  -0.145261
C    -0.095368  0.092136  1.172926
O    0.980817  0.664583  1.339125
H    0.330030  -1.343505  -0.352145
H    -0.374934  0.164744  -0.945133
H    -1.422585  -1.056879  -0.170239
N    -1.070755  -0.009443  2.129816
C    -1.091163  0.516096  3.498065
C    -1.814481  1.891252  3.609281
O    -2.973627  1.881424  4.042053
H    -1.935897  -0.446474  1.835890
H    -1.821394  -0.124267  4.011685
C    0.244320  0.374854  4.260242
C    0.244524  1.069125  5.583200
N    -0.813822  1.073824  6.477099
C    1.229495  1.797892  6.218287
C    -0.429223  1.801409  7.570093
N    0.807234  2.244236  7.450405
H    1.078125  0.759903  3.666768
H    0.431271  -0.705630  4.379232
H    -1.752104  0.732457  6.297271
H    2.227480  2.012328  5.847945
H    -1.091867  1.976714  8.411543
N    -1.218984  3.049225  3.231429
C    0.165582  3.336230  2.880390
H    -1.820863  3.848575  3.412496
H    0.182108  4.203674  2.209872
H    0.617053  2.493497  2.346862
H    0.766647  3.568069  3.772913
