29
Energy: -19618.2434418 eV PBE+vdW (tier 2 basis)
C    -1.228959  -0.834153  0.513388
C    -0.869758  -0.469501  1.941504
O    0.228598  -0.011024  2.253961
H    -0.854170  -1.846631  0.304535
H    -2.308751  -0.824005  0.318248
H    -0.726348  -0.139796  -0.167125
N    -1.847460  -0.717815  2.864927
C    -1.649460  -0.603354  4.307317
C    -1.328227  0.845332  4.764772
O    -0.405292  1.079746  5.536456
H    -2.662115  -1.231828  2.552080
H    -2.626281  -0.861310  4.745982
C    -0.586151  -1.577820  4.889131
C    -0.508432  -2.877494  4.166850
N    0.360563  -3.073972  3.110377
C    -1.206174  -4.065776  4.259342
C    0.153455  -4.334503  2.625160
N    -0.790556  -4.964577  3.301028
H    -0.827575  -1.749407  5.945705
H    0.382936  -1.065194  4.879484
H    0.998722  -2.368528  2.753406
H    -1.976757  -4.324458  4.979489
H    0.722871  -4.742150  1.795819
N    -2.149595  1.846377  4.323833
C    -3.342825  1.783402  3.499588
H    -1.854673  2.758961  4.655908
H    -3.116891  1.728150  2.424372
H    -3.937108  2.686406  3.682486
H    -3.970895  0.923028  3.765981
