29
Energy: -19618.4961385 eV PBE+vdW (tier 2 basis)
C    -0.408592  -0.466147  0.716778
C    -0.550180  0.213004  2.065957
O    0.049913  -0.174134  3.063165
H    -0.896499  -1.448757  0.767623
H    0.654688  -0.640719  0.515368
H    -0.849775  0.103271  -0.110531
N    -1.380084  1.314153  2.076440
C    -1.838720  1.905079  3.322414
C    -3.373543  1.820344  3.341628
O    -4.024324  1.877199  2.297071
H    -2.041587  1.428954  1.308845
H    -1.388600  1.317622  4.136013
C    -1.405167  3.391391  3.463039
C    0.054505  3.586606  3.680917
N    1.026809  3.236207  2.763854
C    0.760366  4.109621  4.745423
C    2.242488  3.543057  3.308789
N    2.115660  4.081887  4.506345
H    -1.931692  3.834486  4.320090
H    -1.757948  3.931615  2.569177
H    0.854398  2.762437  1.885268
H    0.356054  4.512696  5.669174
H    3.176939  3.351675  2.791209
N    -3.928901  1.730554  4.578597
C    -5.362966  1.712205  4.805330
H    -3.306704  1.631233  5.372270
H    -5.680061  0.764193  5.261000
H    -5.853020  1.819493  3.832340
H    -5.670460  2.541775  5.456407
