29
Energy: -19618.466229 eV PBE+vdW (tier 2 basis)
C    -0.860013  -0.983116  -0.094966
C    -0.610613  -0.655038  1.360717
O    0.360203  -1.083605  1.979145
H    0.054274  -1.424001  -0.500690
H    -1.134520  -0.099600  -0.686128
H    -1.673556  -1.717009  -0.189136
N    -1.515652  0.179344  1.998128
C    -2.898533  0.436226  1.614420
C    -3.311350  1.916374  1.799048
O    -4.495573  2.241366  1.819763
H    -1.308149  0.254680  2.994010
H    -2.982243  0.244557  0.535271
C    -3.898671  -0.502316  2.333008
C    -3.754222  -1.927458  1.924078
N    -2.752182  -2.770081  2.377087
C    -4.445331  -2.688762  1.002091
C    -2.880354  -3.962682  1.719846
N    -3.899018  -3.946446  0.880982
H    -4.909077  -0.150981  2.091536
H    -3.782199  -0.380615  3.422843
H    -2.019965  -2.533009  3.037260
H    -5.315770  -2.390031  0.425998
H    -2.211729  -4.798645  1.898000
N    -2.275011  2.791497  1.893980
C    -2.465649  4.225382  1.992849
H    -1.338809  2.404482  1.833619
H    -2.089227  4.741504  1.098281
H    -1.954322  4.629588  2.876719
H    -3.541052  4.412386  2.082543
