29
Energy: -19618.3716957 eV PBE+vdW (tier 2 basis)
C    -0.191716  -0.509360  -0.356242
C    0.251958  -0.307663  1.087491
O    1.419596  -0.468766  1.429262
H    0.696107  -0.736873  -0.951698
H    -0.676804  0.388442  -0.766111
H    -0.897437  -1.348264  -0.446419
N    -0.711485  0.060734  1.989836
C    -2.102997  0.346056  1.741224
C    -2.571293  1.303591  2.862021
O    -1.912170  1.442678  3.891069
H    -0.397253  0.284780  2.935886
H    -2.217752  0.858052  0.772965
C    -2.996089  -0.945539  1.723308
C    -4.274946  -0.786413  0.977952
N    -4.336347  -0.744455  -0.405724
C    -5.581794  -0.585707  1.379127
C    -5.641789  -0.535981  -0.761517
N    -6.420648  -0.432028  0.297097
H    -3.207345  -1.247829  2.757653
H    -2.394291  -1.755017  1.285459
H    -3.554497  -0.876770  -1.037665
H    -5.957464  -0.557708  2.397523
H    -5.960223  -0.472779  -1.797175
N    -3.746684  1.938211  2.618961
C    -4.407511  2.766109  3.613107
H    -4.280485  1.650381  1.803825
H    -4.725459  3.717820  3.169096
H    -3.692287  2.963413  4.417475
H    -5.287440  2.260305  4.036792
