29
Energy: -19618.3681947 eV PBE+vdW (tier 2 basis)
C    -0.445239  -1.188397  0.565733
C    -0.619340  -0.110997  1.613940
O    0.342009  0.490853  2.090194
H    -0.366103  -2.160669  1.073064
H    -1.272721  -1.262753  -0.148236
H    0.491781  -1.003507  0.032935
N    -1.896655  0.144035  2.094237
C    -3.132894  0.115843  1.297373
C    -3.619563  -1.313041  0.957976
O    -4.262826  -1.545930  -0.061658
H    -1.865910  0.887990  2.789295
H    -3.907784  0.527364  1.963618
C    -3.083868  1.026101  0.048388
C    -2.831358  2.460916  0.369881
N    -1.613090  2.967303  0.798900
C    -3.666560  3.560017  0.346589
C    -1.774416  4.309444  1.007719
N    -3.006064  4.700894  0.742292
H    -2.334273  0.640909  -0.660301
H    -4.049058  0.939185  -0.464162
H    -0.759631  2.440157  0.964799
H    -4.711289  3.582620  0.051413
H    -0.962746  4.943703  1.349720
N    -3.327052  -2.241946  1.907501
C    -3.729125  -3.630365  1.800699
H    -2.746469  -1.939784  2.682764
H    -4.348669  -3.729149  0.903100
H    -4.315231  -3.939142  2.676756
H    -2.857837  -4.294420  1.705659
