29
Energy: -19618.1276428 eV PBE+vdW (tier 2 basis)
C    -1.101312  -1.117910  2.465134
C    -0.585285  0.283470  2.210069
O    0.553720  0.622666  2.518811
H    -0.237354  -1.760104  2.655176
H    -1.695934  -1.529084  1.640870
H    -1.742256  -1.123513  3.358502
N    -1.447388  1.215405  1.665594
C    -2.746192  1.028105  1.026728
C    -3.761668  0.247085  1.893359
O    -4.347132  -0.744893  1.463887
H    -0.976042  2.095689  1.474523
H    -3.162893  2.044898  0.925532
C    -2.650874  0.427413  -0.396452
C    -1.942742  1.335999  -1.344051
N    -2.610135  2.201055  -2.194902
C    -0.606705  1.608925  -1.562947
C    -1.670480  2.926258  -2.877342
N    -0.447737  2.593598  -2.513878
H    -3.666300  0.197831  -0.746699
H    -2.131242  -0.537961  -0.343007
H    -3.614327  2.245883  -2.323113
H    0.247315  1.141501  -1.082368
H    -1.936294  3.668744  -3.623067
N    -4.009571  0.729868  3.146162
C    -3.464146  1.904099  3.809754
H    -4.680476  0.164867  3.657501
H    -4.140738  2.184363  4.625028
H    -3.402887  2.758438  3.123616
H    -2.462737  1.727820  4.226823
