29
Energy: -19618.3573896 eV PBE+vdW (tier 2 basis)
C    -0.040355  -0.486824  0.681706
C    -0.597853  -0.882099  2.031314
O    -0.072486  -1.751562  2.732618
H    1.013561  -0.777828  0.652782
H    -0.138549  0.587149  0.483615
H    -0.559462  -1.030810  -0.120879
N    -1.723307  -0.224447  2.473925
C    -2.822994  0.214464  1.611058
C    -3.691271  1.223420  2.393636
O    -3.564021  2.431566  2.215828
H    -2.005727  -0.541167  3.400511
H    -2.405789  0.807202  0.788635
C    -3.586756  -1.001327  0.996423
C    -3.996617  -2.073404  1.953182
N    -3.112325  -2.886848  2.646271
C    -5.246982  -2.502739  2.363541
C    -3.854376  -3.734493  3.419841
N    -5.150192  -3.531079  3.272533
H    -4.484921  -0.632539  0.481516
H    -2.941450  -1.429721  0.212858
H    -2.092778  -2.829480  2.636938
H    -6.210704  -2.132653  2.024779
H    -3.396120  -4.473058  4.069858
N    -4.544173  0.682531  3.306193
C    -5.413886  1.515638  4.119596
H    -4.710244  -0.323244  3.285855
H    -6.261602  1.912756  3.541196
H    -5.798217  0.919491  4.953948
H    -4.845906  2.367310  4.510724
