29
Energy: -19618.262926 eV PBE+vdW (tier 2 basis)
C    0.129362  -0.072784  0.316163
C    -0.440026  -0.379623  1.688488
O    -0.122173  -1.373771  2.334044
H    1.190720  0.185569  0.426632
H    -0.379787  0.749353  -0.202317
H    0.076127  -0.977832  -0.299744
N    -1.348683  0.527574  2.169504
C    -1.867962  0.446418  3.526314
C    -2.670805  -0.830826  3.861399
O    -2.664080  -1.243950  5.028411
H    -1.547052  1.361464  1.629499
H    -1.018951  0.404661  4.224362
C    -2.721847  1.704426  3.834551
C    -2.748301  2.119613  5.271496
N    -2.864553  1.243400  6.330537
C    -2.707057  3.373121  5.850711
C    -2.875908  1.988216  7.473282
N    -2.790532  3.283611  7.220580
H    -3.744156  1.548632  3.447297
H    -2.303270  2.551789  3.270787
H    -2.835500  0.222369  6.222889
H    -2.623329  4.332666  5.348515
H    -2.940669  1.537638  8.458467
N    -3.445749  -1.448287  2.932430
C    -3.672392  -1.173622  1.522470
H    -3.895929  -2.273330  3.317838
H    -2.845501  -1.523835  0.887918
H    -4.584358  -1.701472  1.220875
H    -3.832762  -0.105874  1.338209
