29
Energy: -19618.4662759 eV PBE+vdW (tier 2 basis)
C    0.209003  -0.252495  -0.066370
C    0.045789  -0.370290  1.437182
O    0.939905  -0.798302  2.166292
H    0.405629  -1.250952  -0.476726
H    1.089346  0.365808  -0.281181
H    -0.665439  0.175567  -0.571420
N    -1.158663  0.052340  1.930616
C    -1.523834  -0.147992  3.319361
C    -3.062341  -0.204748  3.344405
O    -3.714890  0.125879  2.350706
H    -1.963295  0.219475  1.323635
H    -1.088234  -1.102772  3.657260
C    -0.954432  0.976375  4.236213
C    -1.655721  2.283612  4.116190
N    -1.649127  3.055975  2.970183
C    -2.451580  2.987215  4.997141
C    -2.425523  4.157154  3.204959
N    -2.922289  4.148612  4.427009
H    0.115572  1.057187  3.994499
H    -1.004371  0.658983  5.285086
H    -1.190073  2.805474  2.102338
H    -2.699071  2.717489  6.019729
H    -2.589499  4.924627  2.455387
N    -3.674871  -0.619188  4.483563
C    -3.083851  -1.043966  5.739635
H    -4.686500  -0.541076  4.438251
H    -2.911611  -0.203302  6.429453
H    -2.131281  -1.558310  5.567808
H    -3.758639  -1.757148  6.227276
