29
Energy: -19618.178016 eV PBE+vdW (tier 2 basis)
C    0.360028  0.662507  0.580877
C    -0.165736  -0.438918  1.479913
O    0.373687  -1.538794  1.563253
H    1.120423  0.231403  -0.075070
H    0.819389  1.464445  1.176499
H    -0.430609  1.126775  -0.024039
N    -1.278277  -0.149542  2.238405
C    -2.072978  1.062373  2.227370
C    -1.363485  2.364896  2.657956
O    -1.651769  3.411840  2.078819
H    -1.649240  -0.952325  2.743574
H    -2.411502  1.294842  1.204158
C    -3.334255  0.879418  3.113798
C    -4.154502  -0.307743  2.748225
N    -4.857543  -0.418775  1.562555
C    -4.373483  -1.510564  3.389619
C    -5.456397  -1.649770  1.548820
N    -5.183471  -2.334657  2.641187
H    -3.915362  1.810952  3.046678
H    -3.034321  0.773210  4.166091
H    -4.923435  0.289683  0.840853
H    -3.997236  -1.816141  4.361614
H    -6.075664  -1.985390  0.723094
N    -0.469117  2.349509  3.689134
C    -0.006912  1.258158  4.538073
H    -0.085587  3.272282  3.869430
H    0.484239  1.699257  5.412785
H    0.711728  0.599992  4.031117
H    -0.836971  0.641870  4.902909
