29
Energy: -19618.1293733 eV PBE+vdW (tier 2 basis)
C    0.571901  -0.073113  0.153658
C    0.265831  -0.236618  1.630896
O    1.116273  -0.570398  2.450957
H    -0.311141  0.139831  -0.461254
H    1.054123  -0.987607  -0.212047
H    1.293088  0.745559  0.034322
N    -1.038542  -0.012208  1.990024
C    -1.441101  0.077987  3.386484
C    -1.154254  -1.149117  4.281337
O    -0.899287  -0.948025  5.465883
H    -1.654275  0.429906  1.313883
H    -0.871331  0.875846  3.888157
C    -2.944854  0.395121  3.486179
C    -3.351854  1.644491  2.769596
N    -4.667164  1.896020  2.422024
C    -2.666578  2.762036  2.331356
C    -4.714962  3.122350  1.814842
N    -3.519132  3.669689  1.740444
H    -3.182465  0.467289  4.558887
H    -3.522050  -0.461250  3.097272
H    -5.455419  1.287844  2.610978
H    -1.603449  2.963746  2.414412
H    -5.640513  3.555065  1.448758
N    -1.303857  -2.420657  3.802995
C    -1.532500  -2.916684  2.456045
H    -1.053853  -3.107565  4.508072
H    -0.625495  -2.885120  1.833427
H    -1.863270  -3.959425  2.530490
H    -2.322084  -2.353392  1.947204
