29
Energy: -19618.5405559 eV PBE+vdW (tier 2 basis)
C    0.121678  -0.073006  0.175801
C    0.030408  0.313993  1.635647
O    0.991872  0.822978  2.220983
H    -0.665201  -0.766383  -0.144486
H    1.103210  -0.518626  -0.016813
H    0.044697  0.844245  -0.424059
N    -1.167843  0.058798  2.233773
C    -1.594084  0.593221  3.526434
C    -1.686924  2.149586  3.441557
O    -1.928895  2.684683  2.362166
H    -1.916534  -0.205555  1.605463
H    -2.648855  0.289301  3.599592
C    -0.882224  -0.085093  4.747343
C    0.162790  0.671995  5.498398
N    1.295405  1.196469  4.920783
C    0.247456  1.028224  6.834992
C    1.993271  1.837223  5.899828
N    1.392947  1.751780  7.076903
H    -0.473593  -1.035379  4.371877
H    -1.653931  -0.359365  5.479035
H    1.450249  1.160349  3.902368
H    -0.449889  0.782836  7.631493
H    2.930976  2.348348  5.706087
N    -1.618236  2.823260  4.615017
C    -1.725338  4.272335  4.651706
H    -1.197013  2.353296  5.416490
H    -1.861564  4.589769  5.690872
H    -2.586283  4.594920  4.055348
H    -0.827428  4.759689  4.242662
