29
Energy: -19618.2637899 eV PBE+vdW (tier 2 basis)
C    -1.103645  -0.963951  -0.780417
C    -0.504592  -0.440107  0.508484
O    0.705182  -0.525973  0.737391
H    -0.578219  -0.503996  -1.625948
H    -2.179196  -0.774102  -0.879536
H    -0.925989  -2.045489  -0.834149
N    -1.385236  0.130472  1.379948
C    -1.022663  0.564623  2.733750
C    -2.297881  0.667591  3.585106
O    -2.426276  -0.003301  4.602236
H    -2.372723  0.050088  1.165279
H    -0.443024  -0.236474  3.208129
C    -0.162554  1.879781  2.774405
C    1.208357  1.703186  3.327255
N    2.138315  0.850970  2.769837
C    1.855301  2.279424  4.403139
C    3.274733  0.944590  3.517414
N    3.141974  1.805645  4.513335
H    -0.665165  2.635648  3.392811
H    -0.126435  2.289354  1.752357
H    1.925751  0.238462  1.976318
H    1.457044  3.010800  5.100340
H    4.166064  0.366256  3.295727
N    -3.309843  1.495765  3.151032
C    -3.256736  2.602106  2.204508
H    -4.086621  1.500955  3.807559
H    -2.539306  2.397722  1.403422
H    -2.969854  3.551219  2.684179
H    -4.244047  2.731295  1.743850
