29
Energy: -19618.5728225 eV PBE+vdW (tier 2 basis)
C    0.438927  -1.100077  2.242003
C    -0.174347  -0.312563  3.383827
O    0.373638  -0.237435  4.491845
H    -0.223913  -1.205879  1.375345
H    0.720934  -2.093197  2.610089
H    1.359475  -0.594444  1.920325
N    -1.336600  0.319046  3.086654
C    -2.098672  1.164994  3.978933
C    -3.269228  1.700207  3.120610
O    -3.337231  1.466615  1.913863
H    -1.713903  0.314003  2.137095
H    -2.527834  0.553061  4.792868
C    -1.273914  2.304909  4.658715
C    -0.345026  3.034051  3.752252
N    0.954486  2.612662  3.548901
C    -0.476068  4.152762  2.953901
C    1.532831  3.470185  2.658406
N    0.693700  4.418675  2.279441
H    -0.708807  1.851246  5.481985
H    -1.974978  3.021534  5.109053
H    1.350998  1.774002  3.968497
H    -1.353451  4.781630  2.836473
H    2.561425  3.363468  2.328870
N    -4.200685  2.422225  3.794611
C    -5.356962  3.017431  3.148867
H    -4.082321  2.553006  4.791968
H    -5.372779  4.105719  3.296204
H    -6.292152  2.590133  3.536364
H    -5.285544  2.803030  2.078036
