29
Energy: -19618.3046806 eV PBE+vdW (tier 2 basis)
C    0.013533  -0.729502  0.043516
C    0.008448  0.021115  1.363763
O    1.021637  0.600231  1.768471
H    -0.956096  -1.159487  -0.235603
H    0.755292  -1.535703  0.105927
H    0.343383  -0.045418  -0.747964
N    -1.190124  0.017017  2.016252
C    -1.527390  0.474066  3.371637
C    -3.040007  0.747807  3.521097
O    -3.583942  0.415876  4.573742
H    -1.916980  -0.540837  1.580781
H    -1.365548  -0.365798  4.065286
C    -0.708243  1.657356  3.957262
C    -0.785776  2.954227  3.229667
N    -0.029968  3.226081  2.108463
C    -1.558624  4.084443  3.413106
C    -0.374116  4.471828  1.670166
N    -1.301106  5.021388  2.437955
H    0.334462  1.335315  4.063953
H    -1.109933  1.798505  4.969981
H    0.651510  2.566763  1.728371
H    -2.285880  4.265316  4.198900
H    0.084989  4.933156  0.801592
N    -3.765611  1.303212  2.501907
C    -3.359462  2.091338  1.342194
H    -4.739914  1.401329  2.779765
H    -3.538028  3.162078  1.509972
H    -3.924050  1.766660  0.456880
H    -2.295198  1.964804  1.141716
