29
Energy: -19617.7897333 eV PBE+vdW (tier 2 basis)
C    -0.031079  -1.205904  0.240598
C    0.092224  -0.085863  1.251304
O    1.066861  0.659772  1.266891
H    -0.960692  -1.142447  -0.339168
H    -0.000278  -2.182919  0.740132
H    0.817791  -1.129796  -0.443550
N    -0.914012  0.102121  2.177968
C    -2.123697  -0.657184  2.510657
C    -1.776032  -2.022250  3.181590
O    -1.415680  -1.971870  4.358988
H    -0.643153  0.804715  2.859692
H    -2.504461  -0.117457  3.388435
C    -3.236005  -0.549713  1.445732
C    -4.520889  -1.205431  1.837808
N    -5.041344  -1.199311  3.121086
C    -5.455668  -1.899324  1.096793
C    -6.230017  -1.877851  3.091726
N    -6.510980  -2.310830  1.878672
H    -2.928714  -0.956786  0.476118
H    -3.384497  0.529958  1.277996
H    -4.604607  -0.808986  3.948309
H    -5.418641  -2.119456  0.034042
H    -6.835624  -2.025159  3.980103
N    -1.792893  -3.222629  2.528452
C    -2.378645  -3.659125  1.267812
H    -1.535070  -3.967457  3.171988
H    -1.882356  -4.589362  0.967146
H    -2.209403  -2.931658  0.471131
H    -3.458893  -3.842392  1.350990
