29
Energy: -19618.3828133 eV PBE+vdW (tier 2 basis)
C    -0.801823  -0.320811  -0.721118
C    -0.403314  0.043313  0.694210
O    0.771600  0.280450  0.990164
H    -0.461203  0.471761  -1.398300
H    -1.880143  -0.468962  -0.854869
H    -0.277336  -1.241695  -1.005469
N    -1.420713  0.091270  1.600158
C    -1.232432  0.309067  3.038608
C    -2.489953  -0.184373  3.771764
O    -2.445687  -1.067226  4.617591
H    -2.341227  -0.202187  1.292880
H    -0.416459  -0.334879  3.387972
C    -0.895746  1.800465  3.403748
C    0.463964  2.015517  3.971170
N    1.621606  1.673519  3.304656
C    0.890442  2.564644  5.164987
C    2.668655  2.017167  4.107472
N    2.263723  2.566197  5.241378
H    -1.616939  2.168239  4.146704
H    -1.046322  2.406529  2.495038
H    1.621621  1.183267  2.403812
H    0.275679  2.959021  5.968846
H    3.701454  1.845034  3.821521
N    -3.657794  0.427136  3.383745
C    -4.923768  0.140919  4.039401
H    -3.594225  1.274683  2.829499
H    -5.745784  0.219098  3.317984
H    -5.116949  0.824022  4.880341
H    -4.879582  -0.879626  4.432678
