29
Energy: -19618.3405893 eV PBE+vdW (tier 2 basis)
C    0.011216  -1.437799  0.407265
C    -0.216199  -0.950321  1.826379
O    -0.004555  -1.655467  2.808963
H    -0.538268  -2.376127  0.263755
H    1.077586  -1.662701  0.278712
H    -0.294850  -0.719015  -0.363234
N    -0.678800  0.335286  1.933493
C    -0.904010  0.978525  3.208652
C    -2.275052  0.784873  3.897526
O    -2.390603  1.194621  5.055871
H    -0.866133  0.872759  1.092847
H    -0.195301  0.534702  3.922296
C    -0.622464  2.498691  3.089495
C    -1.579868  3.180293  2.171468
N    -2.865331  3.519646  2.551278
C    -1.524931  3.503201  0.828249
C    -3.508374  4.017508  1.451745
N    -2.724230  4.021538  0.390405
H    0.401167  2.633426  2.716751
H    -0.667229  2.926796  4.099280
H    -3.248792  3.397921  3.483330
H    -0.670031  3.414705  0.163639
H    -4.534429  4.369602  1.486625
N    -3.333867  0.203606  3.265644
C    -3.565920  -0.146595  1.869522
H    -4.130897  0.129848  3.891011
H    -4.636329  -0.351617  1.755466
H    -3.015598  -1.046165  1.565685
H    -3.315797  0.679771  1.191693
