29
Energy: -19618.5726948 eV PBE+vdW (tier 2 basis)
C    -2.249601  0.032669  -0.430415
C    -1.717509  0.227143  0.976043
O    -0.934550  -0.555226  1.500843
H    -3.105020  0.675792  -0.672921
H    -2.533894  -1.017123  -0.562301
H    -1.439790  0.245049  -1.141466
N    -2.188107  1.348337  1.631451
C    -1.611300  1.813183  2.886394
C    -2.608623  1.723245  4.064078
O    -2.475668  2.401112  5.089764
H    -2.758484  2.002237  1.105030
H    -0.804989  1.095130  3.111548
C    -0.998776  3.230609  2.729892
C    0.145520  3.549437  3.633185
N    0.050174  3.573757  5.007317
C    1.456287  3.894386  3.364334
C    1.276111  3.914370  5.497425
N    2.152847  4.122591  4.528611
H    -1.800333  3.981698  2.833128
H    -0.619994  3.304393  1.701674
H    -0.806095  3.295414  5.492727
H    1.928349  3.994047  2.391273
H    1.477007  3.994269  6.561025
N    -3.611090  0.828274  3.900517
C    -4.581268  0.526313  4.934791
H    -3.625794  0.308890  3.029891
H    -4.443410  1.247933  5.746399
H    -4.435736  -0.487788  5.333318
H    -5.604265  0.611859  4.545445
