29
Energy: -19618.3479854 eV PBE+vdW (tier 2 basis)
C    -0.213981  -1.451438  0.278746
C    -0.467833  -0.515039  1.442076
O    0.260871  -0.488000  2.432673
H    0.713467  -1.141742  -0.220650
H    -0.056945  -2.464221  0.667084
H    -1.024211  -1.464195  -0.460414
N    -1.539988  0.326995  1.288367
C    -1.986094  1.188217  2.361348
C    -3.418642  0.783379  2.748721
O    -4.212880  0.390823  1.892849
H    -2.236564  0.117313  0.578641
H    -1.283173  1.024779  3.189005
C    -1.996387  2.681082  1.964012
C    -0.641815  3.248165  1.687461
N    -0.483126  4.453742  1.025825
C    0.645108  2.848400  1.987383
C    0.858321  4.720974  0.959793
N    1.566641  3.768747  1.530899
H    -2.648023  2.789511  1.080787
H    -2.490135  3.250238  2.771658
H    -1.229692  5.029746  0.655375
H    0.956264  1.935760  2.485823
H    1.250691  5.614888  0.485171
N    -3.769637  0.921772  4.056368
C    -2.908600  1.292265  5.171315
H    -4.732311  0.666557  4.253131
H    -3.502663  1.254997  6.090098
H    -2.514339  2.313750  5.070642
H    -2.063433  0.599404  5.286978
