29
Energy: -19618.5124777 eV PBE+vdW (tier 2 basis)
C    -1.162463  0.296199  -0.169719
C    -1.469235  0.153946  1.309157
O    -2.124122  1.005738  1.918755
H    -0.636164  1.245601  -0.326707
H    -2.109156  0.352834  -0.721781
H    -0.558744  -0.520811  -0.582649
N    -1.003345  -0.986855  1.891931
C    -1.044456  -1.313985  3.319941
C    -0.508371  -2.740824  3.534033
O    0.323548  -2.980898  4.403368
H    -0.440034  -1.602752  1.316421
H    -0.350008  -0.662719  3.870135
C    -2.447418  -1.160392  3.991265
C    -3.599020  -1.706203  3.217824
N    -4.265840  -0.956376  2.270090
C    -4.242079  -2.931597  3.201271
C    -5.247645  -1.737841  1.735060
N    -5.263218  -2.943502  2.277441
H    -2.608624  -0.094659  4.190770
H    -2.382281  -1.665831  4.964670
H    -3.993758  -0.007345  2.014408
H    -4.036015  -3.793385  3.829688
H    -5.922323  -1.381124  0.963314
N    -1.032124  -3.684947  2.694836
C    -0.741294  -5.098163  2.870076
H    -1.893735  -3.438154  2.210265
H    -1.454619  -5.581958  3.554979
H    0.261606  -5.194150  3.297704
H    -0.777876  -5.608671  1.900748
