29
Energy: -19618.4657283 eV PBE+vdW (tier 2 basis)
C    -0.156984  0.148449  -0.045828
C    0.075578  -0.269203  1.391940
O    1.188336  -0.571544  1.808259
H    -1.150123  -0.105140  -0.433933
H    -0.030004  1.236994  -0.126621
H    0.612652  -0.324868  -0.662741
N    -1.014092  -0.317297  2.248283
C    -2.375506  0.179359  2.045646
C    -3.195840  -0.691192  1.057862
O    -4.174037  -0.241041  0.452202
H    -0.727140  -0.483314  3.209219
H    -2.876471  0.035376  3.016022
C    -2.472550  1.698226  1.722509
C    -3.685780  2.371636  2.270256
N    -4.966359  2.077866  1.851695
C    -3.845819  3.357117  3.225363
C    -5.821860  2.872658  2.557024
N    -5.176374  3.664857  3.396475
H    -2.406805  1.848350  0.634870
H    -1.594701  2.181713  2.170183
H    -5.161296  1.334846  1.178710
H    -3.068396  3.866072  3.787624
H    -6.898130  2.834940  2.422025
N    -2.786904  -1.977441  0.959017
C    -3.449985  -2.961175  0.124979
H    -1.939809  -2.226056  1.460100
H    -3.788727  -3.817341  0.723622
H    -2.779524  -3.324746  -0.665946
H    -4.318607  -2.480855  -0.336730
