29
Energy: -19618.1118303 eV PBE+vdW (tier 2 basis)
C    -0.418538  -0.690462  0.981110
C    -1.218063  -0.520632  2.256359
O    -0.801291  -0.930969  3.336556
H    0.157125  -1.617294  1.065710
H    -1.006857  -0.699672  0.057782
H    0.300224  0.138968  0.912277
N    -2.433912  0.128910  2.202781
C    -3.125054  0.761113  1.083789
C    -3.386860  -0.200998  -0.101062
O    -3.044044  0.080677  -1.248635
H    -2.815988  0.290337  3.129829
H    -4.118635  1.027289  1.481282
C    -2.460494  2.069784  0.597002
C    -2.453876  3.126187  1.650134
N    -3.389975  4.145663  1.695046
C    -1.678098  3.329229  2.774354
C    -3.133877  4.902171  2.806907
N    -2.105263  4.430684  3.483565
H    -2.988944  2.410553  -0.303574
H    -1.436549  1.852597  0.268475
H    -4.101692  4.324979  0.996379
H    -0.833158  2.734611  3.107484
H    -3.720965  5.778255  3.063467
N    -4.036184  -1.368097  0.178183
C    -4.575820  -1.848179  1.441356
H    -4.157435  -1.954356  -0.641729
H    -5.310904  -2.631402  1.224817
H    -5.098978  -1.049143  1.983279
H    -3.801686  -2.263761  2.100896
