29
Energy: -19618.5857136 eV PBE+vdW (tier 2 basis)
C    -0.805406  -0.882002  0.190872
C    -0.862449  -0.058087  1.458436
O    -0.157906  -0.334728  2.444463
H    0.240776  -1.109154  -0.040574
H    -1.274238  -0.394927  -0.672372
H    -1.322293  -1.834890  0.371701
N    -1.746740  0.969832  1.455857
C    -2.114703  1.826865  2.589672
C    -1.069779  2.915788  2.939829
O    -1.423853  4.087051  3.065887
H    -2.280806  1.112394  0.607734
H    -2.988053  2.391580  2.245698
C    -2.530855  1.050667  3.875405
C    -3.415241  -0.120743  3.622514
N    -2.911467  -1.392372  3.421889
C    -4.781159  -0.266306  3.481395
C    -3.966621  -2.224565  3.175523
N    -5.115433  -1.573305  3.204892
H    -3.046848  1.777277  4.517073
H    -1.633091  0.729869  4.418886
H    -1.922113  -1.625561  3.427518
H    -5.540374  0.503835  3.578150
H    -3.841937  -3.287510  2.994442
N    0.195339  2.461381  3.128423
C    1.289689  3.337206  3.498416
H    0.352698  1.453991  3.037240
H    2.114206  3.261890  2.776083
H    1.675668  3.091855  4.498375
H    0.913151  4.365444  3.508106
