29
Energy: -19618.5052515 eV PBE+vdW (tier 2 basis)
C    -0.423252  -0.137729  -0.218462
C    -0.253681  -0.322714  1.277263
O    0.739842  -0.858231  1.766455
H    0.417210  0.456880  -0.597213
H    -1.363958  0.351207  -0.499625
H    -0.371839  -1.121172  -0.701736
N    -1.284008  0.145976  2.045754
C    -1.280148  0.033212  3.489812
C    -2.730283  -0.174601  3.937578
O    -3.621444  0.560317  3.493735
H    -2.100441  0.582599  1.628600
H    -0.633544  -0.814852  3.743172
C    -0.694258  1.312199  4.160756
C    -0.804889  1.316975  5.646303
N    -1.961361  1.686463  6.310470
C    0.055543  0.924251  6.652330
C    -1.752009  1.500596  7.648694
N    -0.537975  1.040944  7.889899
H    -1.209062  2.183827  3.729359
H    0.361417  1.376596  3.868334
H    -2.815432  2.006196  5.865278
H    1.075403  0.568716  6.542461
H    -2.507679  1.727280  8.394075
N    -2.994218  -1.157202  4.834561
C    -2.056532  -2.025765  5.537748
H    -3.969134  -1.186670  5.119123
H    -2.631286  -2.815059  6.033643
H    -1.477623  -1.483660  6.298406
H    -1.362820  -2.510085  4.839969
