29
Energy: -19618.3315391 eV PBE+vdW (tier 2 basis)
C    0.605070  0.950422  0.899342
C    0.089792  -0.221238  1.704377
O    0.852624  -1.023601  2.237483
H    -0.093284  1.787100  0.808747
H    1.528983  1.302056  1.367886
H    0.855671  0.593989  -0.110027
N    -1.280382  -0.454255  1.773895
C    -2.411188  0.465967  1.636170
C    -2.524183  1.139459  0.245457
O    -3.025410  2.251693  0.111061
H    -1.462392  -1.281313  2.338597
H    -3.302924  -0.182058  1.678251
C    -2.577591  1.482919  2.796408
C    -1.413730  2.369852  3.071601
N    -0.339069  1.996135  3.861737
C    -1.091670  3.639728  2.635783
C    0.560019  3.026236  3.856453
N    0.131122  4.038477  3.125538
H    -2.841804  0.912355  3.700428
H    -3.443321  2.108485  2.545965
H    -0.217050  1.099455  4.318794
H    -1.683146  4.272483  1.982522
H    1.496001  2.983786  4.404097
N    -2.114646  0.356811  -0.788941
C    -2.141773  0.802709  -2.167727
H    -1.664048  -0.521007  -0.554237
H    -2.715005  1.734857  -2.206446
H    -2.625258  0.054702  -2.809605
H    -1.128143  0.996523  -2.549196
