29
Energy: -19618.0931171 eV PBE+vdW (tier 2 basis)
C    -0.283120  1.161603  0.998065
C    -0.569065  0.225060  2.154262
O    0.230614  0.028448  3.066126
H    -0.424482  0.668848  0.026219
H    0.750701  1.504192  1.086164
H    -0.952647  2.033378  1.015958
N    -1.789511  -0.410518  2.152242
C    -2.881892  -0.231031  1.212600
C    -3.567151  1.159080  1.222730
O    -3.958243  1.632560  0.157073
H    -1.911476  -1.058533  2.925511
H    -2.505808  -0.312969  0.181615
C    -3.958081  -1.312183  1.401210
C    -3.490115  -2.702467  1.104381
N    -4.357240  -3.780152  1.145572
C    -2.277177  -3.254203  0.742309
C    -3.647152  -4.901684  0.808793
N    -2.386046  -4.616299  0.560256
H    -4.793322  -1.046159  0.734342
H    -4.357758  -1.252699  2.430050
H    -5.346330  -3.738497  1.361587
H    -1.327724  -2.746261  0.613176
H    -4.102065  -5.886028  0.763272
N    -3.740773  1.830614  2.399244
C    -3.451867  1.444184  3.774871
H    -4.194025  2.727886  2.256006
H    -3.815614  0.433905  4.002916
H    -2.381505  1.491999  4.015060
H    -3.984840  2.136891  4.435808
