29
Energy: -19618.6699533 eV PBE+vdW (tier 2 basis)
C    0.398479  -0.537374  0.144478
C    0.227856  -0.246849  1.619706
O    1.201496  0.031805  2.336854
H    1.104043  -1.369549  0.029876
H    0.847203  0.339495  -0.338809
H    -0.539885  -0.787639  -0.363681
N    -1.039813  -0.311457  2.090497
C    -1.404596  -0.118079  3.478000
C    -2.797070  -0.751911  3.633970
O    -3.503584  -0.967433  2.645210
H    -1.824991  -0.578056  1.495006
H    -0.675752  -0.649216  4.107091
C    -1.424885  1.397904  3.908138
C    -0.392050  1.759267  4.918737
N    0.949506  1.502569  4.731015
C    -0.468512  2.361131  6.161132
C    1.606461  1.945992  5.840317
N    0.779955  2.476295  6.728003
H    -2.411383  1.663156  4.310679
H    -1.303018  1.985262  2.985559
H    1.311180  1.004672  3.904464
H    -1.358699  2.724879  6.666639
H    2.682524  1.858897  5.952409
N    -3.224523  -1.015688  4.895383
C    -2.455736  -0.980963  6.133122
H    -4.145997  -1.442270  4.921620
H    -3.142302  -0.815225  6.971034
H    -1.736766  -0.154600  6.133996
H    -1.913092  -1.922829  6.309076
