29
Energy: -19618.1509108 eV PBE+vdW (tier 2 basis)
C    -0.235696  -0.281612  0.319475
C    -0.225717  0.147261  1.770389
O    0.541159  0.997136  2.213948
H    -1.187744  -0.025537  -0.166831
H    -0.104143  -1.367768  0.217744
H    0.579959  0.233318  -0.193913
N    -1.117237  -0.485119  2.618895
C    -2.272416  -1.289093  2.234684
C    -3.450313  -0.529056  1.576688
O    -4.028128  -1.050393  0.624419
H    -1.127566  -0.061676  3.544251
H    -1.963150  -1.990855  1.449832
C    -2.758749  -2.127893  3.437868
C    -1.862306  -3.268069  3.789328
N    -0.500135  -3.152884  4.007455
C    -2.129689  -4.607394  3.986018
C    -0.022944  -4.399552  4.307947
N    -0.985663  -5.300968  4.309649
H    -3.745304  -2.542023  3.192932
H    -2.911595  -1.458735  4.304032
H    0.044078  -2.307017  3.876888
H    -3.092392  -5.103638  3.910906
H    1.026739  -4.586073  4.511291
N    -3.841625  0.688732  2.056748
C    -3.358417  1.465545  3.189654
H    -4.614048  1.075971  1.523326
H    -4.092790  2.250906  3.398946
H    -2.390819  1.949080  2.992942
H    -3.277663  0.856307  4.100217
