29
Energy: -19618.4335841 eV PBE+vdW (tier 2 basis)
C    0.478431  -0.676785  0.395055
C    0.486718  0.032688  1.738860
O    1.513918  0.171663  2.393420
H    1.459914  -1.135921  0.252102
H    -0.294885  -1.456163  0.337711
H    0.300490  0.037152  -0.421556
N    -0.715027  0.511086  2.207272
C    -2.004655  0.514060  1.548074
C    -2.115706  1.611795  0.460875
O    -1.998292  2.816631  0.705019
H    -0.653195  1.012752  3.092235
H    -2.156586  -0.462309  1.060534
C    -3.138616  0.671964  2.600168
C    -2.899800  1.683783  3.673374
N    -2.598348  3.010468  3.433500
C    -2.956173  1.579074  5.050712
C    -2.478838  3.625154  4.644573
N    -2.699986  2.791004  5.647157
H    -3.274634  -0.299186  3.094478
H    -4.074106  0.883294  2.056536
H    -2.374696  3.361990  2.496201
H    -3.176984  0.692085  5.637320
H    -2.223574  4.675687  4.740454
N    -2.373731  1.140154  -0.787075
C    -2.529635  2.000724  -1.946361
H    -2.413098  0.136401  -0.917497
H    -3.496703  1.825925  -2.435844
H    -1.724516  1.834180  -2.675258
H    -2.483295  3.037408  -1.598191
