29
Energy: -19618.1725284 eV PBE+vdW (tier 2 basis)
C    0.018608  0.226867  0.504366
C    -0.026060  -0.225523  1.953024
O    0.972374  -0.643106  2.536189
H    1.060854  0.195808  0.176761
H    -0.368445  1.247284  0.377611
H    -0.573721  -0.434473  -0.143913
N    -1.230415  -0.128473  2.610474
C    -2.552250  -0.028368  2.006988
C    -3.527182  0.766211  2.911332
O    -4.645268  0.337737  3.181924
H    -1.198193  -0.522953  3.549283
H    -2.452296  0.552930  1.076941
C    -3.137077  -1.418982  1.645465
C    -3.001925  -2.440124  2.726068
N    -1.849271  -3.185436  2.927711
C    -3.858088  -2.861752  3.723298
C    -2.062640  -3.997676  4.006874
N    -3.271069  -3.827823  4.509026
H    -2.632016  -1.769161  0.731604
H    -4.198966  -1.292122  1.404393
H    -0.985302  -3.107455  2.402529
H    -4.864110  -2.502662  3.910796
H    -1.307549  -4.685054  4.374693
N    -3.100706  1.977544  3.379956
C    -1.908179  2.739017  3.038652
H    -3.797261  2.431046  3.962709
H    -1.698260  2.699288  1.961309
H    -2.087242  3.788680  3.297262
H    -1.016057  2.392379  3.576974
