29
Energy: -19618.4101054 eV PBE+vdW (tier 2 basis)
C    -0.574000  -2.034920  1.780631
C    -0.100985  -0.595888  1.788708
O    1.050668  -0.282128  2.065988
H    -1.227321  -2.226764  2.643599
H    -1.125795  -2.294774  0.867133
H    0.307915  -2.675225  1.864359
N    -1.015196  0.386740  1.436620
C    -2.460615  0.270189  1.345074
C    -3.049855  0.922278  0.071252
O    -4.260314  1.111119  -0.040717
H    -0.647437  1.317346  1.631488
H    -2.698100  -0.798458  1.245186
C    -3.183620  0.803110  2.608941
C    -2.991907  -0.088475  3.784966
N    -3.802326  -1.184784  4.026807
C    -2.011289  -0.170029  4.752817
C    -3.291847  -1.851557  5.108335
N    -2.205235  -1.263128  5.568889
H    -4.246312  0.923773  2.356693
H    -2.800005  1.807959  2.838677
H    -4.647278  -1.418099  3.517776
H    -1.169498  0.500329  4.895463
H    -3.757998  -2.742645  5.516670
N    -2.151221  1.217588  -0.899235
C    -2.554796  1.771243  -2.179354
H    -1.177710  0.999764  -0.716215
H    -2.916060  2.803649  -2.071887
H    -3.366745  1.175675  -2.616344
H    -1.695190  1.763436  -2.857045
