29
Energy: -19618.5868043 eV PBE+vdW (tier 2 basis)
C    -0.258941  -0.278735  0.111627
C    -0.015585  0.096414  1.558240
O    1.055438  0.599901  1.921616
H    -0.064952  0.597397  -0.518535
H    -1.270059  -0.652052  -0.089530
H    0.466506  -1.051967  -0.172310
N    -1.046605  -0.147325  2.414292
C    -1.039035  -0.048996  3.881096
C    -0.946906  1.381322  4.468709
O    -1.583764  1.659920  5.496538
H    -1.889552  -0.537582  2.011567
H    -2.030979  -0.401994  4.187698
C    0.021744  -0.976178  4.548904
C    -0.403604  -1.527889  5.872288
N    -1.008396  -0.780794  6.864161
C    -0.287486  -2.795709  6.408402
C    -1.233725  -1.614273  7.921491
N    -0.801770  -2.840799  7.684141
H    0.977033  -0.434403  4.623320
H    0.203341  -1.825370  3.877062
H    -1.318779  0.188472  6.737260
H    0.147361  -3.673815  5.939998
H    -1.718166  -1.277481  8.832466
N    -0.121679  2.242779  3.847506
C    0.115210  3.578392  4.365870
H    0.482696  1.857576  3.109206
H    -0.829672  4.017510  4.705172
H    0.540221  4.198661  3.569684
H    0.809359  3.568339  5.220016
