29
Energy: -19618.2624345 eV PBE+vdW (tier 2 basis)
C    0.127776  0.861092  1.818204
C    -0.812823  -0.160355  1.220499
O    -0.773048  -0.451319  0.021988
H    -0.405430  1.603244  2.424560
H    0.640023  1.355700  0.988656
H    0.883272  0.378308  2.452649
N    -1.761382  -0.765468  2.018938
C    -1.795694  -1.041267  3.455679
C    -1.414901  0.195200  4.306297
O    -2.159999  1.171292  4.330446
H    -2.359142  -1.371864  1.460451
H    -2.860398  -1.168691  3.703432
C    -1.109700  -2.399703  3.792722
C    0.342247  -2.530853  3.474014
N    0.868918  -2.522973  2.194368
C    1.447912  -2.673694  4.294908
C    2.226608  -2.640754  2.303399
N    2.610826  -2.736908  3.561938
H    -1.679916  -3.179509  3.261383
H    -1.247290  -2.606273  4.863720
H    0.352517  -2.385202  1.329695
H    1.454909  -2.766433  5.377885
H    2.877734  -2.650567  1.435257
N    -0.271481  0.109166  5.032816
C    0.201145  1.231085  5.824043
H    0.375934  -0.651491  4.833016
H    0.963193  0.877775  6.526733
H    -0.636240  1.666410  6.380401
H    0.634396  2.022531  5.192606
