29
Energy: -19618.2063651 eV PBE+vdW (tier 2 basis)
C    0.681510  -0.371410  0.551414
C    0.138778  0.561447  1.619612
O    0.847793  1.372749  2.205366
H    1.484915  -0.976991  0.989231
H    -0.073365  -1.040459  0.118669
H    1.128333  0.229940  -0.249841
N    -1.202723  0.427009  1.879954
C    -1.889489  1.218270  2.878836
C    -1.998177  0.654945  4.317420
O    -2.293886  1.448238  5.210093
H    -1.726972  -0.283596  1.383198
H    -1.287260  2.126781  3.016154
C    -3.302125  1.623597  2.386363
C    -4.136890  0.456506  1.972031
N    -4.242738  0.033539  0.655384
C    -4.851974  -0.484363  2.686544
C    -5.009410  -1.101846  0.638870
N    -5.385313  -1.444999  1.855317
H    -3.189742  2.330006  1.551048
H    -3.789619  2.166172  3.205885
H    -3.884950  0.531394  -0.152107
H    -5.004995  -0.512641  3.760649
H    -5.261662  -1.622177  -0.279577
N    -1.779766  -0.661900  4.603169
C    -1.592821  -1.827784  3.750390
H    -1.876362  -0.836028  5.599068
H    -1.689513  -2.718199  4.381494
H    -0.599339  -1.851964  3.282866
H    -2.367578  -1.899236  2.975334
