29
Energy: -19618.1533203 eV PBE+vdW (tier 2 basis)
C    0.463761  -0.405204  0.711401
C    0.082798  -0.338501  2.178883
O    0.923358  -0.151675  3.057525
H    -0.372732  -0.213583  0.027210
H    0.856204  -1.410630  0.503309
H    1.265701  0.314691  0.518791
N    -1.256334  -0.509741  2.426219
C    -1.928800  -0.799763  3.694168
C    -2.697053  0.350778  4.391862
O    -3.770537  0.059035  4.926496
H    -1.829760  -0.665095  1.606309
H    -2.760631  -1.464513  3.424938
C    -1.065659  -1.576315  4.727184
C    -0.686433  -2.935954  4.249716
N    -1.569009  -4.003447  4.259002
C    0.458709  -3.445707  3.672044
C    -0.927567  -5.080766  3.710498
N    0.301605  -4.775064  3.342715
H    -1.669811  -1.642519  5.644229
H    -0.159154  -1.010707  4.961961
H    -2.507211  -3.991399  4.642771
H    1.386230  -2.915349  3.483649
H    -1.400698  -6.052871  3.613648
N    -2.213541  1.619986  4.442119
C    -0.963585  2.189079  3.962027
H    -2.858381  2.244080  4.918544
H    -0.711743  3.049697  4.592679
H    -1.039596  2.535219  2.919523
H    -0.141680  1.468384  4.027510
