29
Energy: -19617.7802148 eV PBE+vdW (tier 2 basis)
C    -0.243967  0.142829  -0.025083
C    -0.114002  0.145999  1.486424
O    0.980980  0.187942  2.039345
H    -0.881535  0.960599  -0.387564
H    0.757688  0.267558  -0.444092
H    -0.665958  -0.805195  -0.384231
N    -1.263285  0.083228  2.238887
C    -2.663879  0.096774  1.839574
C    -2.983353  -1.078200  0.867780
O    -2.758165  -2.216834  1.267633
H    -1.070695  0.075385  3.235232
H    -3.205718  -0.243987  2.734874
C    -3.182926  1.531781  1.545914
C    -3.105662  2.406873  2.752070
N    -4.091808  2.444836  3.724355
C    -2.126026  3.254061  3.226827
C    -3.673636  3.300773  4.708207
N    -2.486917  3.805532  4.436066
H    -4.223218  1.480019  1.190328
H    -2.595354  1.996582  0.744882
H    -4.976181  1.950927  3.696669
H    -1.175026  3.486574  2.758046
H    -4.275207  3.517262  5.585273
N    -3.565561  -0.895660  -0.360289
C    -3.782550  0.275471  -1.197568
H    -3.748249  -1.796256  -0.793880
H    -3.972531  -0.075243  -2.217677
H    -2.902961  0.928550  -1.237239
H    -4.651198  0.871094  -0.883243
