29
Energy: -19618.5243619 eV PBE+vdW (tier 2 basis)
C    -0.934607  0.326143  0.133021
C    -0.629758  0.268964  1.618220
O    0.366129  0.785074  2.111188
H    -0.725703  1.337375  -0.232789
H    -1.966643  0.052601  -0.119433
H    -0.253782  -0.359180  -0.389940
N    -1.565467  -0.394513  2.386629
C    -1.326675  -0.757269  3.785709
C    -1.262640  0.474933  4.722457
O    -0.702235  0.418988  5.821196
H    -2.289959  -0.908987  1.898905
H    -2.225108  -1.310253  4.102236
C    -0.107417  -1.703623  3.975849
C    -0.251012  -2.675413  5.098425
N    -0.327595  -2.293983  6.420527
C    -0.331506  -4.054801  5.126375
C    -0.453560  -3.426650  7.169781
N    -0.454558  -4.515260  6.418012
H    0.801585  -1.096163  4.080676
H    0.002885  -2.284518  3.050682
H    -0.352690  -1.309554  6.695682
H    -0.292260  -4.737164  4.282158
H    -0.540286  -3.404006  8.251444
N    -1.934578  1.568064  4.292894
C    -1.941377  2.818712  5.027241
H    -2.261714  1.555035  3.333644
H    -2.928828  3.291208  4.958096
H    -1.181321  3.515933  4.644266
H    -1.715518  2.601848  6.076075
