29
Energy: -19618.4124522 eV PBE+vdW (tier 2 basis)
C    -0.342422  0.781095  0.540966
C    -0.535402  -0.462748  1.388756
O    0.232988  -1.419074  1.336930
H    -0.349757  0.490171  -0.516797
H    0.647108  1.202472  0.756995
H    -1.101854  1.555331  0.706286
N    -1.620250  -0.434517  2.230827
C    -2.030364  -1.595353  3.014310
C    -3.413172  -1.391695  3.642466
O    -4.173611  -2.339154  3.821103
H    -2.306393  0.298209  2.091898
H    -2.107950  -2.475124  2.359844
C    -1.000714  -1.943738  4.138980
C    -0.994949  -0.963052  5.258972
N    -1.745900  -1.138001  6.407685
C    -0.458530  0.303531  5.394980
C    -1.631557  -0.003584  7.163335
N    -0.857898  0.890709  6.577292
H    -0.015102  -2.005782  3.663485
H    -1.247650  -2.950261  4.504822
H    -2.304487  -1.956534  6.623133
H    0.204826  0.812302  4.702957
H    -2.115683  0.106196  8.128543
N    -3.709631  -0.106485  4.015293
C    -4.907577  0.182395  4.787020
H    -2.917303  0.520029  4.145392
H    -5.151359  1.246460  4.695953
H    -4.778549  -0.064689  5.852706
H    -5.735129  -0.417175  4.395019
