29
Energy: -19618.5054776 eV PBE+vdW (tier 2 basis)
C    -0.750835  -0.951642  1.111145
C    -1.192534  -0.182065  2.338142
O    -1.370090  -0.731837  3.427319
H    0.156236  -1.516634  1.358211
H    -0.554236  -0.318478  0.237224
H    -1.528275  -1.682479  0.854093
N    -1.364255  1.167252  2.165208
C    -1.869568  2.039411  3.231629
C    -3.419907  1.980380  3.286742
O    -4.127771  2.880761  2.840481
H    -1.421145  1.525340  1.216173
H    -1.468956  1.630219  4.169840
C    -1.369315  3.475643  3.035089
C    0.063397  3.683691  3.395535
N    1.113556  2.934670  2.892819
C    0.669111  4.599189  4.231292
C    2.270760  3.416330  3.443506
N    2.035886  4.428793  4.254077
H    -1.980583  4.139500  3.658194
H    -1.579824  3.788800  1.997919
H    1.019407  2.127681  2.287500
H    0.184868  5.375936  4.815062
H    3.243249  2.989661  3.219120
N    -3.885131  0.839969  3.862444
C    -5.298306  0.525071  3.943821
H    -3.193729  0.128258  4.102071
H    -5.572090  0.238392  4.967692
H    -5.569303  -0.296166  3.263873
H    -5.861620  1.419352  3.657780
