29
Energy: -19618.1875026 eV PBE+vdW (tier 2 basis)
C    -0.443793  -0.151784  -0.270557
C    -0.157194  0.402287  1.106981
O    0.872476  1.035446  1.357183
H    -0.447829  -1.249408  -0.235272
H    -1.422595  0.161841  -0.657863
H    0.338009  0.197211  -0.949658
N    -1.059719  0.145022  2.115244
C    -2.510482  0.050199  1.990129
C    -2.924997  -1.232717  1.222957
O    -2.363129  -2.302080  1.429506
H    -0.731586  0.506151  3.007222
H    -2.877680  -0.126012  3.012884
C    -3.129908  1.392823  1.505009
C    -2.732879  2.579094  2.322089
N    -1.456837  3.119694  2.364169
C    -3.476103  3.386458  3.160377
C    -1.495630  4.191137  3.211654
N    -2.703591  4.383345  3.708369
H    -4.227255  1.331310  1.562396
H    -2.868992  1.556159  0.445413
H    -0.619945  2.747924  1.915797
H    -4.535215  3.301229  3.386044
H    -0.615268  4.787851  3.428042
N    -3.958666  -1.107906  0.345335
C    -4.474430  -2.257064  -0.380681
H    -4.398392  -0.208013  0.208252
H    -5.151876  -1.906623  -1.166095
H    -5.018344  -2.943057  0.284098
H    -3.648117  -2.816400  -0.836171
