29
Energy: -19618.2877202 eV PBE+vdW (tier 2 basis)
C    -0.130401  -0.569590  0.401377
C    -0.165685  -0.172098  1.865595
O    0.840927  -0.185994  2.565686
H    0.900028  -0.476303  0.047857
H    -0.791999  0.033751  -0.234704
H    -0.432535  -1.622179  0.305055
N    -1.378274  0.206451  2.392287
C    -2.681265  0.201811  1.762761
C    -3.630190  0.975433  2.687934
O    -3.558786  0.861020  3.917819
H    -1.376274  0.363521  3.398647
H    -2.620099  0.716807  0.793908
C    -3.292505  -1.221797  1.497567
C    -3.007280  -2.242036  2.545673
N    -3.222322  -2.053607  3.897412
C    -2.522926  -3.530687  2.444459
C    -2.853384  -3.205034  4.532692
N    -2.436839  -4.125306  3.681800
H    -2.891065  -1.601450  0.549273
H    -4.378660  -1.101023  1.340386
H    -3.474690  -1.158972  4.319331
H    -2.240029  -4.060436  1.539356
H    -2.904655  -3.314323  5.611262
N    -4.586012  1.743628  2.107259
C    -4.790719  2.015216  0.691304
H    -5.210708  2.185195  2.775215
H    -5.657491  2.676568  0.593402
H    -5.003120  1.100856  0.120134
H    -3.927621  2.525125  0.240668
