29
Energy: -19618.3372225 eV PBE+vdW (tier 2 basis)
C    -0.115373  1.072906  -0.097960
C    -0.499430  0.017446  0.919874
O    -0.252702  -1.172935  0.723407
H    0.960033  1.271368  0.008741
H    -0.658243  2.019193  0.017893
H    -0.284686  0.675441  -1.104051
N    -1.147869  0.501165  2.024988
C    -1.400755  -0.206542  3.274818
C    -0.077022  -0.354158  4.075771
O    1.014731  -0.222481  3.532373
H    -1.170417  1.511360  2.097046
H    -2.054151  0.471880  3.842631
C    -2.191947  -1.550753  3.097397
C    -1.445212  -2.820164  3.337745
N    -0.350438  -3.209677  2.600717
C    -1.630579  -3.836250  4.257915
C    0.071780  -4.405598  3.094516
N    -0.682990  -4.820219  4.101187
H    -2.626473  -1.534136  2.087701
H    -3.040530  -1.542007  3.793685
H    0.012129  -2.639636  1.828819
H    -2.411092  -3.916959  5.009876
H    0.930070  -4.932242  2.689892
N    -0.185174  -0.589136  5.415461
C    -1.373678  -0.820499  6.217347
H    0.714920  -0.763074  5.853172
H    -1.700796  -1.870088  6.187647
H    -2.202234  -0.183313  5.884120
H    -1.155581  -0.549965  7.257073
