29
Energy: -19618.1690582 eV PBE+vdW (tier 2 basis)
C    0.348504  -0.087897  0.917887
C    -0.311955  0.115984  2.266507
O    0.342753  0.282673  3.289981
H    1.412496  -0.264273  1.095837
H    -0.072245  -0.943295  0.376355
H    0.244855  0.812056  0.295739
N    -1.694282  0.179736  2.329015
C    -2.695071  -0.196568  1.347910
C    -2.649572  -1.721352  1.008983
O    -1.837418  -2.478493  1.529276
H    -2.005147  0.197600  3.295591
H    -3.658738  -0.038238  1.856219
C    -2.693084  0.730955  0.088157
C    -4.015132  0.878982  -0.585210
N    -5.092756  1.533023  -0.012195
C    -4.496598  0.442458  -1.805529
C    -6.140211  1.465547  -0.891467
N    -5.812626  0.808451  -1.985644
H    -2.327385  1.713343  0.423246
H    -1.973200  0.365163  -0.654238
H    -5.091577  2.009402  0.882523
H    -3.950078  -0.103998  -2.568682
H    -7.106965  1.911066  -0.679518
N    -3.602712  -2.142103  0.135273
C    -3.689215  -3.531556  -0.283155
H    -4.182316  -1.452377  -0.337130
H    -4.642995  -3.686180  -0.798517
H    -3.639064  -4.189463  0.592502
H    -2.867093  -3.808924  -0.959684
