29
Energy: -19618.3486564 eV PBE+vdW (tier 2 basis)
C    0.018725  -0.270043  0.624356
C    -0.092991  -0.076466  2.127139
O    0.835616  -0.330579  2.885839
H    1.013968  -0.671015  0.416779
H    -0.734631  -0.974086  0.244636
H    -0.100979  0.675677  0.077560
N    -1.279919  0.424151  2.619177
C    -2.530469  0.619540  1.901312
C    -3.194891  1.936549  2.367338
O    -4.274763  1.961201  2.968227
H    -1.336149  0.383433  3.635123
H    -2.280280  0.753078  0.838700
C    -3.486100  -0.596372  2.004858
C    -3.689066  -1.141332  3.378649
N    -4.386736  -0.475845  4.366476
C    -3.285066  -2.321678  3.971804
C    -4.370736  -1.261050  5.481865
N    -3.715143  -2.391051  5.276996
H    -3.053458  -1.400824  1.394081
H    -4.445835  -0.322859  1.540087
H    -4.749941  0.468249  4.235689
H    -2.711561  -3.125483  3.519755
H    -4.849407  -0.965174  6.410006
N    -2.537399  3.092962  2.083304
C    -1.283083  3.282684  1.371823
H    -3.008683  3.916267  2.445163
H    -0.419946  2.923658  1.948161
H    -1.156426  4.353225  1.180606
H    -1.291589  2.773841  0.397884
