29
Energy: -19618.2440996 eV PBE+vdW (tier 2 basis)
C    -0.320537  -0.310092  0.303745
C    -0.445230  0.738805  1.393178
O    0.431534  1.568473  1.618604
H    0.583854  -0.903965  0.485799
H    -0.186978  0.198534  -0.658999
H    -1.183595  -0.983658  0.235978
N    -1.594903  0.678989  2.137261
C    -1.946643  1.716225  3.090984
C    -0.971165  1.989465  4.254681
O    -0.905570  3.139408  4.684754
H    -2.357515  0.089588  1.811321
H    -1.980842  2.691784  2.579998
C    -3.344767  1.409539  3.688908
C    -4.390248  1.204598  2.648480
N    -4.871600  2.217803  1.840410
C    -5.027558  0.068898  2.186734
C    -5.758346  1.662185  0.957918
N    -5.875422  0.361967  1.141020
H    -3.600027  2.237647  4.365401
H    -3.290441  0.501445  4.306364
H    -4.612576  3.196128  1.899586
H    -4.932554  -0.941621  2.573788
H    -6.286062  2.251883  0.215130
N    -0.298473  0.970902  4.865611
C    -0.172762  -0.434957  4.517110
H    0.312015  1.319668  5.598443
H    0.221332  -0.966390  5.391237
H    0.513340  -0.601148  3.672955
H    -1.143178  -0.878300  4.269444
