29
Energy: -19618.3950614 eV PBE+vdW (tier 2 basis)
C    0.047404  0.242347  0.247150
C    -0.144589  -0.591555  1.497588
O    0.427229  -1.679899  1.637698
H    -0.269235  -0.350415  -0.620099
H    -0.506178  1.188901  0.252122
H    1.117174  0.452524  0.125984
N    -0.981676  -0.063024  2.434817
C    -1.355748  -0.678021  3.717594
C    -0.194727  -0.651574  4.751476
O    -0.282120  0.050506  5.758024
H    -1.343573  0.866182  2.261049
H    -2.100907  -0.003295  4.155801
C    -2.006633  -2.058701  3.509892
C    -2.576040  -2.650745  4.758928
N    -3.000434  -3.967648  4.795492
C    -2.850561  -2.168042  6.023426
C    -3.501309  -4.212289  6.045888
N    -3.423554  -3.144249  6.812446
H    -1.271649  -2.744062  3.064393
H    -2.800743  -1.929346  2.753925
H    -2.942398  -4.629031  4.030237
H    -2.641144  -1.179356  6.417461
H    -3.901486  -5.179461  6.333305
N    0.860951  -1.449558  4.459147
C    2.032869  -1.506151  5.311814
H    0.893964  -1.848450  3.516842
H    1.724125  -1.340624  6.349528
H    2.775142  -0.735920  5.049256
H    2.501883  -2.493039  5.223915
