29
Energy: -19618.2938845 eV PBE+vdW (tier 2 basis)
C    -0.726759  -0.507922  0.308135
C    -0.934534  -0.232602  1.780287
O    -0.079060  -0.494570  2.621369
H    -0.863637  0.389008  -0.304919
H    0.295365  -0.874292  0.184942
H    -1.426736  -1.272848  -0.055352
N    -2.148758  0.277812  2.209018
C    -3.301174  0.816995  1.496803
C    -3.801697  -0.061577  0.329474
O    -3.987388  0.391791  -0.804289
H    -2.137257  0.432495  3.213601
H    -4.126829  0.778301  2.230199
C    -3.166307  2.314352  1.110373
C    -2.048882  2.681637  0.197251
N    -2.071706  2.437574  -1.161135
C    -0.830504  3.292744  0.421636
C    -0.890387  2.883091  -1.679692
N    -0.116687  3.415482  -0.748412
H    -4.131585  2.640644  0.693902
H    -3.026062  2.867032  2.049764
H    -2.802723  1.881205  -1.602280
H    -0.436069  3.652032  1.367294
H    -0.649535  2.803420  -2.735009
N    -4.097647  -1.360602  0.609004
C    -4.014282  -2.080126  1.871136
H    -4.426905  -1.870532  -0.205146
H    -4.657763  -2.964432  1.804432
H    -4.378581  -1.466550  2.704539
H    -2.990863  -2.404650  2.104578
