29
Energy: -19618.7231992 eV PBE+vdW (tier 2 basis)
C    -2.364622  -0.536227  -0.093071
C    -1.807313  -0.144740  1.258149
O    -1.378120  -0.986815  2.056248
H    -2.716816  0.313585  -0.690037
H    -3.192434  -1.240511  0.054812
H    -1.582522  -1.064496  -0.652675
N    -1.801613  1.188429  1.541094
C    -1.221215  1.745452  2.764369
C    -2.235075  1.650758  3.939494
O    -2.804436  2.643966  4.409802
H    -2.232425  1.832393  0.886882
H    -0.353806  1.117335  3.015529
C    -0.753155  3.185279  2.499734
C    0.072492  3.786741  3.587309
N    -0.442922  4.157212  4.812381
C    1.411034  4.120983  3.655384
C    0.580641  4.675904  5.549304
N    1.719505  4.673842  4.877035
H    -1.637430  3.813351  2.299939
H    -0.143821  3.173121  1.585274
H    -1.410838  3.975649  5.079104
H    2.163412  3.998894  2.881750
H    0.443330  5.039049  6.562830
N    -2.422133  0.385735  4.374367
C    -3.373640  0.038019  5.411698
H    -1.961689  -0.353766  3.833004
H    -2.888956  -0.563668  6.191779
H    -4.219110  -0.533359  5.001962
H    -3.754326  0.963883  5.854550
