29
Energy: -19618.4783182 eV PBE+vdW (tier 2 basis)
C    0.112148  -0.055540  0.597367
C    -0.382580  -0.423534  1.978096
O    0.373598  -0.890063  2.822846
H    -0.645654  0.335038  -0.085679
H    0.566145  -0.953183  0.157512
H    0.902277  0.696641  0.704766
N    -1.738852  -0.319011  2.281866
C    -2.802404  0.474639  1.668279
C    -3.105571  0.081474  0.202158
O    -3.497447  0.907385  -0.627696
H    -1.890330  -0.562430  3.258348
H    -3.716602  0.172024  2.207114
C    -2.691986  2.007956  1.877592
C    -1.543846  2.692679  1.224451
N    -1.485813  2.928171  -0.134735
C    -0.356465  3.197430  1.716961
C    -0.291059  3.532474  -0.397833
N    0.417201  3.716244  0.703872
H    -2.622488  2.178637  2.960467
H    -3.643433  2.450629  1.546970
H    -2.195853  2.597015  -0.785555
H    -0.022359  3.209414  2.750001
H    0.007149  3.824832  -1.399637
N    -2.980776  -1.242553  -0.055925
C    -3.217398  -1.820891  -1.364203
H    -2.572618  -1.811634  0.679172
H    -3.859547  -2.707135  -1.283232
H    -2.274730  -2.108634  -1.852640
H    -3.718425  -1.068145  -1.981275
