29
Energy: -19618.1473384 eV PBE+vdW (tier 2 basis)
C    0.014902  -0.128836  0.135743
C    -0.078316  -0.323318  1.637979
O    0.850191  -0.761347  2.306668
H    0.173800  -1.107312  -0.335108
H    0.895261  0.486516  -0.084803
H    -0.870810  0.342062  -0.308798
N    -1.279680  0.047864  2.203404
C    -1.587389  -0.275745  3.598499
C    -3.097321  -0.207109  3.863990
O    -3.650198  -1.093728  4.522605
H    -2.062355  0.178199  1.572340
H    -1.303702  -1.321681  3.783509
C    -0.802343  0.605164  4.613266
C    -0.648886  -0.003306  5.971750
N    -1.623817  -0.737280  6.623706
C    0.400474  0.053358  6.867254
C    -1.122178  -1.089135  7.844685
N    0.097785  -0.618073  8.029484
H    -1.272750  1.600206  4.679387
H    0.203099  0.753234  4.201977
H    -2.501012  -1.047233  6.202958
H    1.359436  0.543001  6.727587
H    -1.684745  -1.692693  8.549852
N    -3.831470  0.837183  3.369936
C    -3.402941  2.163822  2.938621
H    -4.808187  0.753484  3.644161
H    -3.516656  2.900879  3.747814
H    -4.007258  2.490332  2.082020
H    -2.353830  2.151766  2.633088
