29
Energy: -19618.1590091 eV PBE+vdW (tier 2 basis)
C    -0.564178  1.124637  0.018405
C    -0.372111  0.112232  1.123841
O    0.508827  -0.745507  1.080535
H    -1.318223  0.748728  -0.688238
H    -0.890274  2.110058  0.367507
H    0.385612  1.221195  -0.514255
N    -1.248935  0.109738  2.194199
C    -2.218726  1.099681  2.654141
C    -3.176138  1.628509  1.559306
O    -3.383754  2.829521  1.412657
H    -1.026682  -0.637925  2.846468
H    -2.876737  0.552038  3.351647
C    -1.587913  2.256485  3.477044
C    -0.465666  2.987890  2.824143
N    0.832418  2.505501  2.777101
C    -0.409523  4.183712  2.136659
C    1.585189  3.402670  2.071972
N    0.862656  4.433912  1.675377
H    -2.384539  2.973345  3.710135
H    -1.249975  1.826555  4.433503
H    1.152184  1.615984  3.142903
H    -1.233975  4.860702  1.941097
H    2.644004  3.253845  1.886274
N    -3.830846  0.700328  0.798922
C    -3.818269  -0.751301  0.883686
H    -4.444273  1.127994  0.112362
H    -4.734055  -1.131066  0.416408
H    -3.815456  -1.092203  1.926841
H    -2.954186  -1.201196  0.373950
