29
Energy: -19617.9173407 eV PBE+vdW (tier 2 basis)
C    0.205081  1.245993  0.171192
C    -0.032519  0.478791  1.447419
O    0.908729  0.017390  2.094793
H    1.160155  1.771146  0.272196
H    -0.590177  1.940819  -0.104554
H    0.291739  0.518117  -0.645652
N    -1.316105  0.212862  1.910601
C    -2.635875  0.783437  1.683023
C    -3.141092  0.640232  0.229565
O    -2.410504  0.352417  -0.709294
H    -1.249600  -0.363693  2.745053
H    -3.306615  0.146264  2.282226
C    -2.808051  2.219969  2.282817
C    -1.917021  3.284912  1.749872
N    -0.647618  3.531419  2.240608
C    -2.077324  4.207678  0.735444
C    -0.109129  4.550276  1.506142
N    -0.953456  4.987153  0.590147
H    -2.665437  2.124330  3.370372
H    -3.847452  2.542641  2.143528
H    -0.172414  2.991255  2.955443
H    -2.949760  4.346346  0.104163
H    0.890184  4.932562  1.687006
N    -4.485961  0.831872  0.026455
C    -5.572634  1.003973  0.974429
H    -4.733848  0.736069  -0.953668
H    -5.777382  2.061427  1.205280
H    -5.371126  0.478176  1.916277
H    -6.485467  0.568874  0.550505
