29
Energy: -19617.9747789 eV PBE+vdW (tier 2 basis)
C    0.042380  -0.112838  -0.038069
C    0.043302  -0.404785  1.452471
O    0.964671  -0.989509  2.011615
H    0.854290  0.592517  -0.257054
H    -0.900159  0.307771  -0.410800
H    0.261679  -1.040795  -0.579157
N    -1.065662  0.022739  2.135090
C    -1.195664  -0.083698  3.584807
C    -0.951324  -1.504232  4.155482
O    -0.270795  -1.630083  5.166881
H    -1.784718  0.525532  1.628102
H    -0.406643  0.513790  4.064761
C    -2.573913  0.485434  3.972332
C    -2.790192  0.743370  5.429726
N    -4.005084  1.232746  5.882490
C    -2.011371  0.650434  6.565541
C    -3.904266  1.409741  7.236394
N    -2.712672  1.066315  7.678352
H    -3.363398  -0.185493  3.590164
H    -2.689769  1.438932  3.423289
H    -4.818231  1.429781  5.311338
H    -0.996713  0.276237  6.638839
H    -4.726934  1.786476  7.836029
N    -1.566252  -2.587759  3.586094
C    -2.286123  -2.722730  2.332142
H    -1.281993  -3.448849  4.043671
H    -1.620277  -2.726962  1.454918
H    -2.833037  -3.672867  2.352857
H    -3.026097  -1.924831  2.200605
