29
Energy: -19618.110924 eV PBE+vdW (tier 2 basis)
C    -0.804820  -0.046728  -0.596089
C    -0.699252  -0.284734  0.899173
O    0.281324  -0.837268  1.397739
H    -0.033002  0.677487  -0.887747
H    -1.782828  0.328673  -0.920374
H    -0.587848  -0.985945  -1.117888
N    -1.774234  0.145687  1.629852
C    -1.849907  0.173588  3.095141
C    -1.045116  1.400146  3.621488
O    -1.596698  2.499384  3.512984
H    -2.450909  0.726886  1.149912
H    -2.878290  0.491737  3.311838
C    -1.679175  -1.226252  3.705441
C    -1.881885  -1.248931  5.185438
N    -1.587790  -2.369359  5.941708
C    -2.343311  -0.328648  6.106080
C    -1.880032  -2.082925  7.248755
N    -2.337021  -0.854882  7.381473
H    -2.427817  -1.868587  3.210678
H    -0.702831  -1.646268  3.435932
H    -1.222313  -3.243840  5.583367
H    -2.672651  0.689542  5.924829
H    -1.738963  -2.803422  8.048122
N    0.206774  1.300130  4.137871
C    1.067740  0.150049  4.376518
H    0.551296  2.207310  4.438549
H    1.121813  -0.484643  3.485069
H    0.735520  -0.437624  5.245542
H    2.075106  0.526009  4.585641
