29
Energy: -19618.591241 eV PBE+vdW (tier 2 basis)
C    0.117776  -0.418661  0.110710
C    -0.340537  -0.907298  1.466830
O    -0.101302  -2.055565  1.865082
H    1.204226  -0.551791  0.039679
H    -0.127963  0.631953  -0.083800
H    -0.339943  -1.044064  -0.666009
N    -1.040532  -0.013688  2.217760
C    -1.399991  -0.268439  3.610782
C    -2.722478  -1.083620  3.717157
O    -3.770519  -0.579247  4.116265
H    -1.116078  0.944511  1.889823
H    -0.592960  -0.888456  4.035027
C    -1.527456  1.057285  4.381175
C    -0.405608  2.003388  4.126182
N    0.905419  1.763958  4.496643
C    -0.352316  3.206814  3.451438
C    1.666089  2.809034  4.044244
N    0.934025  3.700283  3.406691
H    -1.625833  0.820172  5.450687
H    -2.475337  1.535872  4.100899
H    1.239782  0.956601  5.009653
H    -1.184187  3.749873  3.012481
H    2.736730  2.865238  4.213647
N    -2.575327  -2.377212  3.336012
C    -3.691971  -3.298877  3.262345
H    -1.675530  -2.626146  2.912612
H    -3.421919  -4.263676  3.710863
H    -4.008081  -3.471179  2.222328
H    -4.532144  -2.865592  3.814977
