29
Energy: -19618.1979691 eV PBE+vdW (tier 2 basis)
C    -0.251138  -0.519098  0.450851
C    -0.201385  -0.133588  1.917538
O    0.849142  -0.058937  2.547381
H    0.532201  0.027247  -0.086252
H    -1.221309  -0.328567  -0.024117
H    -0.023481  -1.590069  0.363313
N    -1.418389  0.143254  2.490491
C    -1.595953  0.287958  3.931220
C    -0.571462  1.228945  4.615996
O    -0.026423  0.899223  5.664730
H    -2.248361  -0.098124  1.959910
H    -2.581811  0.766274  4.064499
C    -1.615377  -1.083968  4.647958
C    -2.740542  -1.944687  4.186783
N    -3.997985  -1.921142  4.766224
C    -2.874304  -2.826112  3.131781
C    -4.803962  -2.774232  4.060545
N    -4.153423  -3.335270  3.060311
H    -1.654118  -0.908724  5.730979
H    -0.654881  -1.579131  4.457201
H    -4.252938  -1.403532  5.599346
H    -2.103097  -3.130011  2.430437
H    -5.841919  -2.948599  4.325697
N    -0.399457  2.482948  4.099449
C    -0.909755  3.069438  2.874023
H    0.318137  2.999133  4.598870
H    -0.859773  4.161022  2.966965
H    -1.959983  2.800259  2.712127
H    -0.333894  2.769285  1.984803
