29
Energy: -19618.3737561 eV PBE+vdW (tier 2 basis)
C    -0.008439  -0.395794  0.322143
C    -0.644740  -1.238422  1.412968
O    -0.323180  -2.405114  1.613133
H    0.695538  -1.031371  -0.220705
H    0.539067  0.461021  0.739801
H    -0.753198  -0.001157  -0.382428
N    -1.601082  -0.633861  2.199989
C    -2.192704  0.688812  2.039714
C    -2.413400  1.278295  3.450313
O    -3.535831  1.339798  3.963140
H    -2.041206  -1.268444  2.862885
H    -1.468843  1.321880  1.508907
C    -3.500547  0.659830  1.218137
C    -4.026826  2.007173  0.855435
N    -4.651119  2.844203  1.759090
C    -4.029316  2.714787  -0.331146
C    -4.989107  3.988951  1.097320
N    -4.629361  3.943425  -0.173809
H    -4.250444  0.079904  1.776593
H    -3.291485  0.107729  0.292042
H    -4.754239  2.621400  2.747132
H    -3.642639  2.391865  -1.293383
H    -5.494481  4.816606  1.584718
N    -1.308021  1.700269  4.119294
C    0.078771  1.664749  3.681001
H    -1.504738  2.025143  5.060906
H    0.688359  2.183421  4.427634
H    0.212766  2.189080  2.724614
H    0.454331  0.637104  3.578441
