29
Energy: -19618.4370564 eV PBE+vdW (tier 2 basis)
C    0.041977  -0.314881  0.160389
C    -0.188081  0.533653  1.400708
O    0.451136  1.559110  1.615877
H    0.860304  0.136742  -0.406040
H    -0.854117  -0.344289  -0.476091
H    0.310073  -1.351094  0.408714
N    -1.164905  0.117398  2.271272
C    -1.960344  -1.089910  2.223011
C    -3.309697  -0.794020  2.895189
O    -3.356359  -0.193429  3.970598
H    -1.303303  0.703362  3.093563
H    -2.121547  -1.381880  1.176125
C    -1.282012  -2.284493  2.971518
C    -2.175209  -3.468768  3.105225
N    -3.062440  -3.615988  4.155735
C    -2.458142  -4.530800  2.268397
C    -3.818806  -4.728324  3.911639
N    -3.476102  -5.307727  2.776161
H    -0.963990  -1.917725  3.958138
H    -0.370851  -2.559726  2.424403
H    -3.157309  -2.974470  4.936314
H    -1.967825  -4.781755  1.332503
H    -4.585128  -5.074459  4.597960
N    -4.398960  -1.278951  2.246623
C    -5.729927  -1.255323  2.826543
H    -4.239340  -1.865045  1.434979
H    -6.469287  -0.950389  2.075983
H    -5.727193  -0.530009  3.646256
H    -6.009028  -2.243033  3.223113
