29
Energy: -19618.4415765 eV PBE+vdW (tier 2 basis)
C    0.179902  -1.058299  2.479126
C    -0.626825  -0.144701  3.378489
O    -0.648450  -0.261713  4.598368
H    1.219138  -0.699856  2.467416
H    -0.186626  -1.086985  1.444936
H    0.178099  -2.069480  2.898204
N    -1.335089  0.843986  2.723220
C    -1.899907  1.982393  3.435460
C    -3.445923  2.004614  3.471738
O    -4.051240  3.015685  3.822864
H    -1.140988  0.970185  1.734840
H    -1.587148  1.857630  4.485489
C    -1.382807  3.320647  2.892049
C    0.092657  3.507973  3.033977
N    0.764196  4.514482  2.362626
C    1.077685  2.868712  3.761558
C    2.086821  4.443428  2.711327
N    2.308988  3.455813  3.553851
H    -1.943109  4.107974  3.418282
H    -1.676195  3.409903  1.829704
H    0.340640  5.199418  1.747709
H    0.967888  2.020949  4.430320
H    2.829756  5.130951  2.319650
N    -4.046535  0.838005  3.122899
C    -5.479392  0.638727  3.204193
H    -3.437864  0.063156  2.883605
H    -5.739134  -0.083099  3.991775
H    -5.881756  0.279931  2.247149
H    -5.935783  1.604571  3.446172
