29
Energy: -19618.4441528 eV PBE+vdW (tier 2 basis)
C    0.030762  -1.124902  0.982142
C    0.113971  0.102703  1.870436
O    1.170247  0.469764  2.381467
H    1.035472  -1.547910  0.904960
H    -0.648610  -1.886172  1.388074
H    -0.322274  -0.863564  -0.025981
N    -1.042030  0.815001  2.084703
C    -2.397977  0.495827  1.692753
C    -3.098330  1.811373  1.312791
O    -2.888206  2.841276  1.949883
H    -0.932992  1.691043  2.594816
H    -2.372458  -0.191803  0.836657
C    -3.209716  -0.176368  2.846875
C    -2.635493  -1.468969  3.307884
N    -1.507083  -1.569500  4.102057
C    -2.986291  -2.779353  3.046643
C    -1.231052  -2.897998  4.267350
N    -2.112490  -3.658370  3.644169
H    -4.236870  -0.354817  2.497709
H    -3.277593  0.550290  3.671414
H    -0.944461  -0.793376  4.433228
H    -3.834172  -3.130251  2.465818
H    -0.384942  -3.247464  4.849965
N    -3.981987  1.721144  0.281504
C    -4.786501  2.843769  -0.167957
H    -4.059174  0.837602  -0.207738
H    -5.858282  2.612156  -0.104240
H    -4.540678  3.119346  -1.202548
H    -4.563170  3.691902  0.487251
