29
Energy: -19618.5140021 eV PBE+vdW (tier 2 basis)
C    0.236291  -0.714293  0.778815
C    0.149521  0.324655  1.879037
O    1.139886  0.776101  2.441484
H    -0.274187  -0.390436  -0.138711
H    1.293856  -0.882593  0.560959
H    -0.217891  -1.664963  1.092917
N    -1.112635  0.785900  2.222572
C    -2.391778  0.179246  1.878798
C    -3.421288  1.239188  1.415780
O    -4.635360  1.007671  1.405999
H    -1.087623  1.358995  3.065332
H    -2.224012  -0.460683  1.000715
C    -2.948642  -0.725003  3.016177
C    -3.777358  -1.878107  2.559284
N    -4.965884  -1.736418  1.876145
C    -3.600338  -3.243424  2.679242
C    -5.440128  -2.988133  1.613937
N    -4.639836  -3.927043  2.091147
H    -3.500377  -0.098201  3.735635
H    -2.083415  -1.137608  3.551505
H    -5.317767  -0.820404  1.588223
H    -2.783365  -3.764348  3.170185
H    -6.366674  -3.159511  1.075297
N    -2.885681  2.410116  0.999664
C    -3.678797  3.505173  0.475054
H    -1.874935  2.492249  1.056569
H    -4.735117  3.239782  0.585898
H    -3.464357  3.675964  -0.589140
H    -3.478658  4.430990  1.030124
