32
Energy: -103893.423304 eV PBE+vdW (tier 2 basis)
C    0.131985  0.835528  0.272831
C    -0.011156  0.585845  1.736422
O    0.864620  1.004944  2.557659
H    0.157274  1.921080  0.101285
H    -0.676200  0.399339  -0.322993
H    1.094241  0.435842  -0.073893
N    -1.085639  -0.080689  2.181455
C    -1.410902  -0.251434  3.607431
C    -0.447120  -1.275696  4.246334
O    0.514323  -0.811682  4.950247
H    -1.787476  -0.358035  1.498638
H    -1.141441  0.694802  4.098458
C    -2.925220  -0.436688  3.807712
C    -3.437304  -0.260932  5.257597
C    -3.047034  -1.406350  6.199645
C    -3.071252  1.105509  5.850593
H    -3.263946  -1.402212  3.409936
H    -3.398942  0.339635  3.185496
H    -4.533648  -0.285774  5.155322
H    -3.572210  -1.303895  7.157366
H    -1.972113  -1.411434  6.436329
H    -3.319366  -2.389088  5.791189
H    -1.998323  1.177509  6.095944
H    -3.610329  1.269601  6.791557
H    -3.331923  1.934483  5.177604
N    -0.539665  -2.582699  4.063882
C    -1.499953  -3.372194  3.289478
H    0.163030  -3.116260  4.576882
H    -2.375899  -3.630557  3.896996
H    -1.002565  -4.296928  2.980372
H    -1.815661  -2.839780  2.388832
Sr    1.965349  0.914493  4.551804
