32
Energy: -103893.474069 eV PBE+vdW (tier 2 basis)
C    -0.040022  -1.906990  0.210622
C    -0.373450  -1.094004  1.416370
O    0.241692  -0.007662  1.658397
H    -0.231942  -1.299710  -0.685581
H    -0.615200  -2.835838  0.140732
H    1.032153  -2.143264  0.211534
N    -1.340848  -1.520399  2.239139
C    -1.880571  -0.743996  3.366136
C    -0.892269  -0.739870  4.553617
O    -0.104257  0.262284  4.651719
H    -1.831449  -2.375396  1.985991
H    -1.884878  0.307773  3.043585
C    -3.335466  -1.132104  3.661327
C    -4.345835  -0.626197  2.606423
C    -5.728080  -1.213748  2.918407
C    -4.402580  0.903755  2.529857
H    -3.606959  -0.718238  4.645468
H    -3.427449  -2.224351  3.751840
H    -4.035418  -1.009739  1.617503
H    -6.458308  -0.910718  2.158486
H    -6.098642  -0.861120  3.891648
H    -5.710145  -2.311760  2.941026
H    -5.153726  1.221136  1.796359
H    -3.452271  1.361334  2.211612
H    -4.685266  1.340668  3.498796
N    -0.818118  -1.705404  5.454912
C    -1.552522  -2.970279  5.562599
H    -0.137018  -1.521519  6.192578
H    -0.951284  -3.652588  6.170830
H    -1.695532  -3.427846  4.579724
H    -2.522130  -2.824118  6.053352
Sr    1.053647  1.524743  3.132101
