32
Energy: -103893.496901 eV PBE+vdW (tier 2 basis)
C    1.418175  -0.520223  -0.054576
C    0.703199  0.577890  0.662589
O    0.390461  1.649457  0.051450
H    0.785510  -0.862765  -0.885922
H    1.655014  -1.374247  0.588064
H    2.344245  -0.132256  -0.498252
N    0.393154  0.399604  1.950506
C    -0.474679  1.260261  2.770574
C    0.294500  2.509215  3.262362
O    0.482890  3.464689  2.437426
H    0.641607  -0.496608  2.368880
H    -1.215899  1.695466  2.080538
C    -1.285698  0.430245  3.799153
C    -0.681514  -0.720371  4.654857
C    -0.221443  -1.955657  3.857302
C    0.384683  -0.317855  5.680613
H    -2.108989  -0.014400  3.221130
H    -1.771655  1.153136  4.472352
H    -1.557758  -1.050441  5.235092
H    -0.193441  -2.834644  4.513439
H    0.812333  -1.869350  3.474869
H    -0.895918  -2.199068  3.025107
H    0.623463  -1.166924  6.333912
H    0.035486  0.480151  6.357485
H    1.339815  -0.027731  5.212168
N    0.710246  2.597028  4.507226
C    1.412934  3.752021  5.069221
H    0.554847  1.792995  5.116087
H    1.402222  3.665611  6.158957
H    0.909216  4.677772  4.772322
H    2.453329  3.778666  4.720949
Sr    0.372374  3.908260  0.200617
