32
Energy: -103893.452334 eV PBE+vdW (tier 2 basis)
C    0.139710  -0.104381  -0.073446
C    -0.021301  0.020819  1.404156
O    0.911065  0.504154  2.122042
H    0.281021  0.900764  -0.496434
H    -0.716289  -0.578822  -0.563889
H    1.049922  -0.675548  -0.298103
N    -1.171908  -0.370325  1.966207
C    -1.528163  -0.140855  3.374794
C    -0.746515  -1.106306  4.293092
O    0.315182  -0.659212  4.846655
H    -1.911926  -0.694280  1.347584
H    -1.120500  0.845435  3.644218
C    -3.052573  -0.079632  3.581763
C    -3.692141  1.304383  3.311995
C    -3.195134  2.376801  4.288088
C    -3.575517  1.766277  1.853869
H    -3.262973  -0.356442  4.625497
H    -3.546576  -0.840637  2.958502
H    -4.762523  1.148022  3.520180
H    -3.773210  3.301077  4.166995
H    -2.141889  2.651646  4.109979
H    -3.296387  2.060617  5.335286
H    -4.183804  2.664296  1.690611
H    -3.936958  1.004840  1.147048
H    -2.543519  2.035558  1.580115
N    -1.114964  -2.356607  4.520448
C    -2.245260  -3.125458  3.990699
H    -0.510769  -2.847668  5.180441
H    -3.148943  -2.963961  4.590704
H    -1.978763  -4.185722  4.036236
H    -2.441379  -2.868421  2.946339
Sr    2.026900  0.665852  4.098365
