32
Energy: -103892.993475 eV PBE+vdW (tier 2 basis)
C    -1.250217  -0.078202  -1.095172
C    -0.883176  -0.550357  0.271993
O    0.237399  -1.106848  0.495113
H    -0.825754  0.921364  -1.280279
H    -2.332448  -0.032348  -1.253836
H    -0.797080  -0.756294  -1.827992
N    -1.731122  -0.370950  1.311224
C    -2.488630  0.858068  1.541458
C    -1.480126  2.029168  1.666071
O    -0.237541  1.784538  1.833419
H    -1.471423  -0.873617  2.159863
H    -3.131142  1.045565  0.668654
C    -3.391915  0.714619  2.792480
C    -2.744914  0.864659  4.185999
C    -3.849065  0.786127  5.250737
C    -1.646417  -0.164026  4.504125
H    -3.890823  -0.263569  2.705612
H    -4.196262  1.456799  2.710642
H    -2.292536  1.870440  4.249327
H    -4.632644  1.533907  5.072585
H    -3.441211  0.965687  6.252908
H    -4.326320  -0.203989  5.256703
H    -0.730040  -0.004723  3.900770
H    -1.990736  -1.199177  4.354434
H    -1.330432  -0.081898  5.551559
N    -1.902287  3.280079  1.598866
C    -3.263918  3.788129  1.408009
H    -1.173156  3.981245  1.733642
H    -3.202872  4.737229  0.866409
H    -3.751590  3.963415  2.375356
H    -3.864293  3.091900  0.814903
Sr    1.497654  0.253148  1.897048
