32
Energy: -103893.62997 eV PBE+vdW (tier 2 basis)
C    -0.463340  -0.075190  0.005967
C    -0.287015  -0.146746  1.488201
O    0.800607  -0.578637  1.978879
H    0.355990  0.510507  -0.430945
H    -1.420823  0.356101  -0.303208
H    -0.381829  -1.092245  -0.403694
N    -1.304916  0.252979  2.264364
C    -1.465485  0.155260  3.734179
C    -0.525173  1.112038  4.489388
O    0.717942  0.868818  4.582226
H    -2.126216  0.581890  1.763974
H    -2.493195  0.498768  3.908875
C    -1.370884  -1.281802  4.275906
C    -1.704263  -1.421756  5.775605
C    -3.153786  -1.028552  6.089388
C    -1.415645  -2.858568  6.227668
H    -0.367523  -1.699809  4.084779
H    -2.058774  -1.903118  3.681993
H    -1.034225  -0.750572  6.344246
H    -3.368015  -1.178619  7.154427
H    -3.864969  -1.645895  5.522156
H    -3.377063  0.026934  5.873831
H    -1.603042  -2.975020  7.301808
H    -0.369729  -3.146806  6.043435
H    -2.057536  -3.578439  5.700509
N    -1.074498  2.167272  5.068559
C    -0.367359  3.164577  5.872105
H    -2.077021  2.295644  4.954926
H    -0.926193  3.340375  6.797905
H    -0.289092  4.107731  5.316645
H    0.632084  2.794076  6.109929
Sr    2.298989  -0.506197  3.667973
