32
Energy: -103893.457298 eV PBE+vdW (tier 2 basis)
C    -0.497896  1.695325  0.157105
C    -1.009028  1.014560  1.381974
O    -1.476297  1.688398  2.354520
H    -1.325166  2.254194  -0.303874
H    -0.081862  1.003037  -0.581811
H    0.267123  2.431366  0.436865
N    -0.983375  -0.322841  1.438403
C    -1.608289  -1.125215  2.502026
C    -0.774293  -1.035365  3.800240
O    -1.155724  -0.197631  4.686923
H    -0.661208  -0.823095  0.613098
H    -2.548649  -0.617203  2.769607
C    -1.971504  -2.541644  2.020093
C    -3.346603  -2.655965  1.326708
C    -3.470482  -1.801765  0.058261
C    -3.630707  -4.132272  1.024379
H    -1.973318  -3.208661  2.894846
H    -1.187021  -2.926552  1.348080
H    -4.103966  -2.307945  2.052259
H    -4.442352  -1.974173  -0.420143
H    -2.700405  -2.068396  -0.682523
H    -3.406127  -0.721102  0.252648
H    -4.633205  -4.252044  0.596129
H    -3.580720  -4.752598  1.929194
H    -2.912397  -4.535738  0.295949
N    0.303344  -1.769081  4.026311
C    0.975264  -2.758429  3.178184
H    0.715064  -1.617932  4.947960
H    0.529752  -3.752818  3.302524
H    2.024943  -2.802955  3.484006
H    0.939059  -2.464348  2.125948
Sr    -1.918968  1.958584  4.569322
