32
Energy: -103892.997335 eV PBE+vdW (tier 2 basis)
C    0.669835  0.004300  1.793787
C    0.304508  1.315453  2.408273
O    1.197262  2.184703  2.672126
H    0.751033  0.099944  0.699399
H    -0.053736  -0.786001  2.019045
H    1.660662  -0.285025  2.163429
N    -0.984933  1.607317  2.675254
C    -2.087171  1.302304  1.769719
C    -1.891164  2.184454  0.501295
O    -0.951419  3.046104  0.444726
H    -1.126126  2.431495  3.260889
H    -2.010120  0.249238  1.458096
C    -3.454406  1.529358  2.445289
C    -3.849118  0.512572  3.543407
C    -3.837225  -0.930237  3.027682
C    -3.057163  0.658220  4.849360
H    -4.224457  1.496800  1.660460
H    -3.484588  2.557098  2.846299
H    -4.895775  0.771737  3.771385
H    -4.282875  -1.604351  3.769276
H    -2.815412  -1.303128  2.850819
H    -4.414367  -1.046315  2.099000
H    -3.523284  0.056271  5.639140
H    -3.042064  1.697691  5.208384
H    -2.020946  0.304723  4.754433
N    -2.717088  2.007675  -0.512359
C    -2.675658  2.763063  -1.768593
H    -3.444620  1.303718  -0.412855
H    -1.725341  2.590900  -2.287712
H    -2.797823  3.834633  -1.572867
H    -3.496009  2.419629  -2.403687
Sr    0.988533  4.007699  1.265262
