32
Energy: -103893.635454 eV PBE+vdW (tier 2 basis)
C    0.389603  -0.995666  0.837923
C    -0.551333  -0.135797  1.617311
O    -0.273673  0.200721  2.806692
H    0.061505  -1.189732  -0.188289
H    0.504958  -1.954197  1.363560
H    1.380145  -0.522334  0.818233
N    -1.690768  0.255331  1.018695
C    -2.819357  1.014505  1.608996
C    -2.395874  2.480107  1.827020
O    -1.645575  2.813014  2.791320
H    -1.820313  -0.065504  0.063154
H    -3.586504  1.020930  0.824019
C    -3.417221  0.246840  2.819229
C    -4.477671  0.916741  3.726664
C    -3.879210  1.724549  4.890129
C    -5.535312  1.720731  2.960043
H    -2.603328  -0.151718  3.444887
H    -3.867153  -0.650594  2.370620
H    -4.999456  0.066860  4.193332
H    -4.654629  2.017795  5.609543
H    -3.402297  2.661916  4.561373
H    -3.176028  1.099065  5.481277
H    -5.132650  2.652570  2.536875
H    -6.358513  2.007032  3.625689
H    -5.974056  1.130501  2.144242
N    -2.837833  3.366802  0.946225
C    -2.536989  4.798149  0.955718
H    -3.453158  3.032663  0.208618
H    -2.054934  5.078385  0.011515
H    -1.868323  5.019527  1.789946
H    -3.467007  5.369208  1.065304
Sr    -0.581380  1.705580  4.498519
