32
Energy: -103892.245716 eV PBE+vdW (tier 2 basis)
C    0.292149  -0.258436  0.246519
C    0.044613  -0.636165  1.668232
O    0.866934  -1.435342  2.270342
H    -0.445605  0.455193  -0.132643
H    0.257263  -1.167741  -0.370873
H    1.298601  0.166844  0.136990
N    -1.001298  -0.149665  2.294797
C    -1.575335  -0.531369  3.584312
C    -3.084852  -0.151464  3.369528
O    -3.344257  0.625068  2.445188
H    -1.709800  0.446120  1.802975
H    -1.458955  -1.617144  3.723559
C    -1.028701  0.233391  4.811119
C    0.342400  -0.195799  5.393167
C    1.521997  0.590327  4.785314
C    0.362893  -0.056583  6.921836
H    -1.769956  0.111641  5.611382
H    -1.016692  1.309195  4.581607
H    0.426387  -1.296810  5.180416
H    1.441918  1.651008  5.061405
H    1.554867  0.596871  3.681194
H    2.504804  0.300838  5.216425
H    1.334530  -0.336461  7.351898
H    -0.405808  -0.683957  7.388920
H    0.167152  0.985291  7.210417
N    -4.014626  -0.657019  4.194786
C    -3.867569  -1.605958  5.290950
H    -4.953405  -0.311020  4.001822
H    -4.757050  -2.243952  5.328133
H    -3.767678  -1.099759  6.262056
H    -3.003493  -2.261072  5.132901
Sr    2.391152  -1.934256  3.743552
