32
Energy: -103893.626467 eV PBE+vdW (tier 2 basis)
C    -3.577720  0.436752  -0.848657
C    -2.604143  -0.189864  0.093434
O    -1.358755  -0.190536  -0.167664
H    -4.621332  0.306111  -0.544863
H    -3.437190  0.027177  -1.856959
H    -3.357495  1.512913  -0.907578
N    -3.066685  -0.730573  1.225684
C    -2.255921  -1.208672  2.360972
C    -1.698219  -2.613515  2.034450
O    -0.656748  -2.710512  1.307886
H    -4.068897  -0.667920  1.390387
H    -1.370145  -0.555843  2.425119
C    -3.044579  -1.104799  3.676160
C    -3.127876  0.301471  4.315731
C    -3.838040  1.352201  3.452379
C    -3.803773  0.177458  5.687390
H    -2.555702  -1.763031  4.409922
H    -4.067610  -1.500675  3.531373
H    -2.088784  0.637668  4.480591
H    -4.859860  1.035891  3.188757
H    -3.295274  1.595602  2.528514
H    -3.935549  2.290904  4.011400
H    -3.805461  1.144805  6.203842
H    -3.287517  -0.542796  6.336143
H    -4.851013  -0.143648  5.588739
N    -2.322856  -3.673459  2.511489
C    -1.939035  -5.068566  2.294971
H    -3.132861  -3.502826  3.104452
H    -1.869482  -5.577885  3.262891
H    -0.970858  -5.103590  1.791462
H    -2.695698  -5.571828  1.680166
Sr    0.537080  -1.430413  -0.168581
