32
Energy: -103893.0237 eV PBE+vdW (tier 2 basis)
C    -0.277339  2.084054  -0.149194
C    -0.281369  1.103045  0.976609
O    0.728997  0.989282  1.742543
H    -0.991215  1.833646  -0.940082
H    0.736346  2.115532  -0.567617
H    -0.499928  3.097515  0.219392
N    -1.360652  0.324155  1.206794
C    -2.731317  0.821057  1.172776
C    -2.928501  1.713551  2.438720
O    -1.940328  2.000722  3.193705
H    -1.201445  -0.433599  1.872086
H    -2.824568  1.504852  0.314979
C    -3.749034  -0.323294  0.979792
C    -3.629282  -1.547390  1.908651
C    -3.758578  -1.211934  3.400352
C    -4.675889  -2.590765  1.492305
H    -3.647434  -0.654935  -0.063196
H    -4.768796  0.089260  1.049790
H    -2.639989  -2.012095  1.738349
H    -3.695879  -2.125319  4.004686
H    -4.727263  -0.741782  3.623976
H    -2.969266  -0.535438  3.770133
H    -4.568543  -3.506863  2.085463
H    -4.575120  -2.865767  0.434611
H    -5.696135  -2.211530  1.647581
N    -4.130543  2.202937  2.668404
C    -4.480864  3.077499  3.790400
H    -4.880734  1.918354  2.043591
H    -5.472887  3.497331  3.604813
H    -3.755335  3.893274  3.873691
H    -4.501961  2.507477  4.728122
Sr    0.260099  1.784178  3.860987
