32
Energy: -103893.657643 eV PBE+vdW (tier 2 basis)
C    -3.764812  -0.645170  -1.685212
C    -2.837881  -0.832963  -0.530384
O    -1.578427  -0.762942  -0.692801
H    -4.818910  -0.783753  -1.424079
H    -3.495648  -1.339329  -2.491746
H    -3.626568  0.371778  -2.080284
N    -3.357022  -1.062499  0.682237
C    -2.607160  -1.089942  1.952159
C    -1.882139  -2.445031  2.106523
O    -0.749199  -2.603029  1.545933
H    -4.371942  -1.097767  0.753589
H    -1.802680  -0.345151  1.862281
C    -3.531644  -0.674524  3.103587
C    -2.853912  -0.480081  4.477946
C    -1.706121  0.536229  4.421701
C    -3.915275  -0.061495  5.503424
H    -4.372302  -1.386884  3.195662
H    -3.994252  0.280902  2.806673
H    -2.434551  -1.446685  4.808079
H    -0.862145  0.199684  3.799447
H    -1.300626  0.707856  5.426129
H    -2.049999  1.508407  4.038587
H    -4.736644  -0.788488  5.564585
H    -4.349054  0.916081  5.249231
H    -3.473789  0.023083  6.503569
N    -2.461740  -3.403819  2.802614
C    -1.920948  -4.741584  3.042306
H    -3.353180  -3.179363  3.240074
H    -0.899720  -4.792501  2.659404
H    -2.544354  -5.491443  2.539552
H    -1.920458  -4.942793  4.119755
Sr    0.440100  -1.650785  -0.164543
