32
Energy: -103893.054257 eV PBE+vdW (tier 2 basis)
C    0.337273  0.055887  0.175412
C    0.083624  0.316058  1.620845
O    0.962028  0.883032  2.350454
H    0.520317  1.013563  -0.332122
H    -0.492002  -0.458144  -0.320976
H    1.252617  -0.541267  0.066502
N    -1.087840  -0.045289  2.160438
C    -1.424153  0.299114  3.545554
C    -0.504240  -0.442517  4.543075
O    0.236650  0.301297  5.278191
H    -1.805951  -0.458643  1.568674
H    -1.072653  1.334333  3.673398
C    -2.942723  0.443345  3.833273
C    -4.004300  -0.669634  3.693878
C    -4.063904  -1.329947  2.308299
C    -4.033556  -1.670136  4.854466
H    -3.243560  1.274823  3.175612
H    -3.000855  0.848792  4.855197
H    -4.940434  -0.092855  3.781125
H    -4.975359  -1.932874  2.212355
H    -3.232980  -2.025906  2.109582
H    -4.099253  -0.583373  1.499369
H    -3.156669  -2.325413  4.893829
H    -4.911371  -2.322910  4.769739
H    -4.106768  -1.152718  5.820218
N    -0.374717  -1.756645  4.638213
C    -0.922465  -2.843802  3.832052
H    0.280744  -2.041125  5.368079
H    -1.372136  -3.597104  4.488844
H    -0.112066  -3.314607  3.259868
H    -1.684810  -2.476583  3.147136
Sr    1.845079  1.642355  4.327473
