32
Energy: -103893.39088 eV PBE+vdW (tier 2 basis)
C    -1.334137  -0.769261  0.550818
C    -1.117698  0.141314  1.717726
O    0.055593  0.466450  2.064077
H    -0.877088  -0.318557  -0.340847
H    -2.388518  -0.979581  0.344656
H    -0.808259  -1.716234  0.733105
N    -2.201985  0.597777  2.364744
C    -2.303486  1.498015  3.532617
C    -1.321920  2.678563  3.453124
O    -0.172771  2.630961  3.991844
H    -3.093014  0.254970  2.015143
H    -3.296789  1.946549  3.410909
C    -2.334293  0.816521  4.940905
C    -1.737787  -0.581928  5.198729
C    -0.200795  -0.668196  5.179317
C    -2.254652  -1.075826  6.561019
H    -3.397814  0.741687  5.202558
H    -1.909808  1.532116  5.661511
H    -2.114224  -1.275138  4.428949
H    0.146771  -1.594526  5.653315
H    0.243751  0.164078  5.759384
H    0.167534  -0.717427  4.139015
H    -1.903167  -0.433004  7.380891
H    -1.909669  -2.097148  6.763065
H    -3.351208  -1.085242  6.590800
N    -1.725221  3.794189  2.857595
C    -3.006141  4.074906  2.197809
H    -1.057107  4.563307  2.906286
H    -2.921165  5.044699  1.699603
H    -3.823773  4.137262  2.927747
H    -3.233453  3.321208  1.435848
Sr    1.586294  1.229497  3.593739
