32
Energy: -103893.612628 eV PBE+vdW (tier 2 basis)
C    -0.023625  -0.781900  0.300039
C    -0.048608  -0.375241  1.739781
O    0.999485  -0.467464  2.438961
H    0.301123  -1.829264  0.234920
H    0.730877  -0.181790  -0.226589
H    -0.986704  -0.672715  -0.208737
N    -1.214254  0.079816  2.234014
C    -1.605914  0.540968  3.592325
C    -0.795158  1.767601  4.048529
O    0.432247  1.688124  4.346101
H    -1.974970  0.098103  1.560562
H    -2.629961  0.903687  3.430774
C    -1.784465  -0.590362  4.640867
C    -0.603916  -1.440922  5.174696
C    0.097825  -0.818706  6.400972
C    -1.108432  -2.844831  5.548073
H    -2.505816  -1.278680  4.176832
H    -2.318281  -0.147057  5.496852
H    0.106522  -1.598347  4.338193
H    0.335568  0.256447  6.309380
H    0.993344  -1.392028  6.702123
H    -0.563683  -0.866642  7.277462
H    -0.304232  -3.461656  5.969350
H    -1.511907  -3.369939  4.673612
H    -1.904462  -2.780370  6.302964
N    -1.460482  2.912149  4.141584
C    -0.895121  4.186859  4.584022
H    -2.442331  2.915065  3.877438
H    -0.838049  4.883458  3.738197
H    0.105818  4.016938  4.986059
H    -1.538133  4.617753  5.359748
Sr    2.091698  0.090944  4.363895
