32
Energy: -103893.249069 eV PBE+vdW (tier 2 basis)
C    -0.419418  0.978524  -0.011408
C    -0.376585  0.623659  1.436213
O    0.661102  0.858664  2.136576
H    -0.271702  2.062807  -0.115288
H    -1.360322  0.698641  -0.495809
H    0.416146  0.492147  -0.532295
N    -1.449930  0.058162  2.002407
C    -1.538904  -0.196019  3.445308
C    -0.568309  -1.320091  3.884163
O    0.443929  -0.951538  4.577325
H    -2.286904  -0.083378  1.439272
H    -1.080666  0.682561  3.923872
C    -2.978334  -0.203153  4.011821
C    -4.092338  -1.159739  3.539412
C    -5.326253  -0.901243  4.419404
C    -4.468674  -1.005114  2.057415
H    -3.339397  0.830214  3.876327
H    -2.856383  -0.324139  5.099335
H    -3.780845  -2.198173  3.724739
H    -6.135889  -1.593813  4.159267
H    -5.707609  0.120687  4.281845
H    -5.101204  -1.037915  5.485156
H    -5.372522  -1.583578  1.829169
H    -3.705817  -1.379213  1.352677
H    -4.693671  0.043194  1.807243
N    -0.692180  -2.600828  3.576927
C    -1.632360  -3.305464  2.707325
H    0.034295  -3.183664  3.996469
H    -2.286114  -3.955167  3.301154
H    -1.059066  -3.927593  2.009470
H    -2.239424  -2.603136  2.136837
Sr    1.991662  0.634008  3.978644
