32
Energy: -103893.627996 eV PBE+vdW (tier 2 basis)
C    -1.090578  -3.800751  0.934697
C    -0.817503  -2.579739  1.748836
O    0.261357  -1.923664  1.590489
H    -2.016043  -4.312681  1.217477
H    -0.248036  -4.499162  1.015147
H    -1.158247  -3.503014  -0.122117
N    -1.738821  -2.180478  2.632025
C    -1.744685  -0.902254  3.365664
C    -0.794488  -0.995457  4.581353
O    0.457500  -0.851127  4.396168
H    -2.591489  -2.732976  2.688939
H    -1.285452  -0.150484  2.704927
C    -3.180242  -0.462896  3.688521
C    -4.045973  0.023766  2.496020
C    -3.391077  1.184013  1.737956
C    -4.502960  -1.088722  1.542039
H    -3.106843  0.371515  4.402389
H    -3.714650  -1.279846  4.206702
H    -4.952547  0.419758  2.980204
H    -4.099476  1.618180  1.021894
H    -2.519245  0.857256  1.148288
H    -3.073681  1.992661  2.411413
H    -5.285767  -0.710603  0.873044
H    -4.936274  -1.946078  2.078963
H    -3.690947  -1.448228  0.892874
N    -1.304669  -1.225208  5.776288
C    -0.552318  -1.343933  7.025383
H    -2.318006  -1.304114  5.836845
H    0.493141  -1.086684  6.844022
H    -0.621274  -2.371041  7.404820
H    -0.976811  -0.659677  7.768919
Sr    1.958103  -0.877335  2.666808
