32
Energy: -103892.960086 eV PBE+vdW (tier 2 basis)
C    -1.069032  1.387660  -0.455618
C    -0.361365  1.012294  0.804541
O    0.379859  1.848469  1.413678
H    -2.024236  1.886367  -0.225728
H    -1.275472  0.525071  -1.097664
H    -0.451712  2.113741  -0.997268
N    -0.522212  -0.218625  1.333898
C    -1.809740  -0.904909  1.416269
C    -2.742341  -0.027760  2.287104
O    -2.248093  0.919592  2.993446
H    0.129878  -0.451098  2.083661
H    -2.241419  -0.988436  0.407775
C    -1.632666  -2.318815  2.017240
C    -1.108002  -3.403736  1.047672
C    -2.087684  -3.672804  -0.099855
C    0.313837  -3.148986  0.533491
H    -2.601419  -2.649183  2.415869
H    -0.967596  -2.235223  2.894176
H    -1.073463  -4.314012  1.668332
H    -1.745913  -4.523522  -0.702002
H    -2.166805  -2.821104  -0.795258
H    -3.094403  -3.920186  0.265001
H    0.683623  -4.032657  -0.000911
H    1.021296  -2.952277  1.352296
H    0.359938  -2.309122  -0.174608
N    -4.044642  -0.252271  2.308835
C    -4.826454  -1.245831  1.567153
H    -4.567947  0.340095  2.954502
H    -5.753911  -0.773017  1.226715
H    -5.079045  -2.094898  2.215190
H    -4.277069  -1.608442  0.695022
Sr    -0.582626  2.457576  3.433577
