32
Energy: -103892.811694 eV PBE+vdW (tier 2 basis)
C    0.319765  0.470783  0.265011
C    0.066039  0.260816  1.719885
O    1.026763  0.200191  2.549537
H    0.627985  1.510394  0.074684
H    -0.542983  0.229451  -0.362455
H    1.169819  -0.161452  -0.024569
N    -1.200485  0.153542  2.184016
C    -2.295253  1.053303  1.788340
C    -1.782931  2.494347  2.006446
O    -0.894477  2.708002  2.906241
H    -1.264374  -0.165660  3.151862
H    -2.532067  0.900215  0.727148
C    -3.527060  0.659515  2.643120
C    -4.864114  1.394113  2.411247
C    -6.020819  0.451236  2.776935
C    -4.972478  2.698908  3.212274
H    -3.251180  0.743377  3.709518
H    -3.665605  -0.412649  2.436907
H    -4.957437  1.615651  1.335093
H    -5.959687  0.138315  3.829288
H    -6.022778  -0.451446  2.152190
H    -6.986181  0.953577  2.640048
H    -5.000516  2.484869  4.290598
H    -5.901376  3.228452  2.966951
H    -4.143372  3.399071  3.040862
N    -2.207329  3.501027  1.262404
C    -3.187127  3.529074  0.174067
H    -1.823215  4.407871  1.532329
H    -2.809082  4.188661  -0.614483
H    -4.145757  3.918791  0.538102
H    -3.341908  2.531305  -0.242838
Sr    1.003018  2.006327  4.014022
