32
Energy: -103892.983597 eV PBE+vdW (tier 2 basis)
C    -2.081558  -1.357938  0.449394
C    -1.079981  -1.150177  1.537434
O    0.049741  -1.737602  1.508148
H    -1.907056  -0.650636  -0.377103
H    -3.112625  -1.231666  0.796749
H    -1.948021  -2.367046  0.043203
N    -1.350630  -0.316215  2.562325
C    -1.999270  0.981331  2.407309
C    -1.008926  1.888158  1.613128
O    0.156772  1.470050  1.306868
H    -0.704707  -0.378515  3.350094
H    -2.902400  0.857324  1.788779
C    -2.399710  1.578052  3.772400
C    -3.696664  1.019734  4.396226
C    -3.650707  -0.484167  4.691149
C    -4.013397  1.818704  5.667016
H    -2.518013  2.665140  3.655139
H    -1.553759  1.453970  4.472673
H    -4.508002  1.203930  3.669173
H    -4.573810  -0.795201  5.195458
H    -2.817093  -0.735890  5.364678
H    -3.561003  -1.101088  3.786936
H    -4.970222  1.495210  6.094235
H    -4.087355  2.896540  5.468685
H    -3.242494  1.666981  6.436512
N    -1.417832  3.091780  1.260120
C    -0.609254  4.069193  0.524125
H    -2.357735  3.371243  1.531029
H    -1.208801  4.971091  0.377795
H    -0.321966  3.667836  -0.454793
H    0.291382  4.325449  1.094238
Sr    1.744125  -0.209070  1.135182
