32
Energy: -103892.0067 eV PBE+vdW (tier 2 basis)
C    -0.770917  1.966424  0.091102
C    -0.305660  1.248528  1.310827
O    0.850251  1.593190  1.834196
H    -1.835883  1.814708  -0.107071
H    -0.205450  1.606095  -0.781372
H    -0.571242  3.039727  0.193376
N    -0.969424  0.290021  1.884720
C    -2.249514  -0.352348  1.564682
C    -2.535360  -1.107933  2.899307
O    -1.602846  -1.196997  3.720703
H    -0.642856  -0.170816  2.778902
H    -3.015906  0.424444  1.421385
C    -2.203761  -1.233178  0.289239
C    -1.294992  -2.481189  0.226148
C    0.200556  -2.186542  0.413661
C    -1.748218  -3.638423  1.126280
H    -1.942616  -0.565744  -0.546524
H    -3.237928  -1.545809  0.088589
H    -1.417619  -2.823342  -0.815008
H    0.442828  -1.961992  1.463730
H    0.795171  -3.065163  0.133322
H    0.537917  -1.349646  -0.217267
H    -2.817523  -3.855247  1.000684
H    -1.202347  -4.553908  0.865211
H    -1.555138  -3.445484  2.189514
N    -3.752002  -1.611183  3.125392
C    -4.938944  -1.578549  2.276962
H    -3.825539  -2.115293  4.007068
H    -5.825403  -1.577532  2.919341
H    -4.988843  -2.453809  1.615115
H    -4.968576  -0.665498  1.672643
Sr    2.725475  2.063744  2.740600
