32
Energy: -103893.355426 eV PBE+vdW (tier 2 basis)
C    0.030570  0.239908  0.400718
C    0.018769  0.595348  1.853318
O    0.976100  1.251978  2.357059
H    -0.869184  -0.287771  0.068411
H    0.908568  -0.389581  0.197803
H    0.151714  1.155889  -0.192678
N    -1.027827  0.188673  2.587050
C    -1.295747  0.352527  4.030656
C    -1.013983  1.785166  4.515577
O    0.112337  2.126488  4.991913
H    -1.719925  -0.363233  2.087207
H    -2.386013  0.248716  4.088592
C    -0.753323  -0.745812  5.004519
C    0.536135  -1.575136  4.796881
C    0.495600  -2.528857  3.594328
C    1.872269  -0.818352  4.844033
H    -1.560400  -1.487567  5.078986
H    -0.711380  -0.271156  5.996716
H    0.539206  -2.212903  5.696175
H    1.308846  -3.262842  3.659246
H    0.609021  -2.010454  2.632918
H    -0.445186  -3.093418  3.566351
H    2.702513  -1.507164  5.044463
H    1.879632  -0.070797  5.659831
H    2.086968  -0.383324  3.848444
N    -2.007476  2.665568  4.483520
C    -3.382382  2.489593  4.000264
H    -1.776310  3.574562  4.884194
H    -3.869159  3.468797  4.011198
H    -3.952020  1.819055  4.656757
H    -3.396330  2.115919  2.970338
Sr    2.213247  2.087434  4.090475
