32
Energy: -103893.674484 eV PBE+vdW (tier 2 basis)
C    1.038245  -1.128256  1.035827
C    0.082054  -0.075405  1.490002
O    0.401797  1.154742  1.438117
H    1.243439  -0.972455  -0.033258
H    0.664309  -2.147023  1.180355
H    1.994078  -1.014040  1.563076
N    -1.120305  -0.451585  1.940422
C    -2.256660  0.437308  2.240363
C    -2.083998  1.075252  3.636196
O    -1.283467  2.057737  3.768129
H    -1.319048  -1.449774  1.942006
H    -2.195081  1.280893  1.535542
C    -3.578186  -0.303113  2.002824
C    -3.818092  -0.766233  0.546812
C    -5.160465  -1.504216  0.472136
C    -3.762531  0.395522  -0.451705
H    -4.398572  0.372211  2.293045
H    -3.641636  -1.186756  2.664030
H    -3.028275  -1.489472  0.275357
H    -5.326931  -1.901193  -0.536342
H    -5.997343  -0.830026  0.704258
H    -5.202943  -2.350345  1.171361
H    -2.768313  0.864069  -0.516329
H    -4.496167  1.175477  -0.199062
H    -4.002407  0.040070  -1.461137
N    -2.774361  0.591571  4.650848
C    -2.737183  1.080837  6.029000
H    -3.409317  -0.178514  4.449070
H    -2.321588  0.306698  6.685840
H    -3.756229  1.317130  6.356550
H    -2.117562  1.978382  6.077981
Sr    0.381734  3.103509  2.595688
