32
Energy: -103892.992553 eV PBE+vdW (tier 2 basis)
C    -0.469375  0.731110  0.181147
C    -0.145062  0.563031  1.627939
O    1.035816  0.746395  2.062065
H    -0.678987  1.789253  -0.042819
H    -1.330870  0.132962  -0.133378
H    0.412221  0.449448  -0.406357
N    -1.112389  0.237137  2.516081
C    -2.455896  0.810474  2.503352
C    -2.323549  2.351870  2.643572
O    -1.218237  2.878396  2.996129
H    -0.771670  -0.029478  3.439843
H    -2.916565  0.605229  1.525120
C    -3.347430  0.149383  3.586395
C    -3.111534  0.446808  5.088553
C    -1.689251  0.167397  5.599542
C    -3.591060  1.833202  5.539736
H    -3.264515  -0.933403  3.408340
H    -4.392180  0.400031  3.352013
H    -3.759295  -0.288127  5.593309
H    -1.660399  0.193694  6.695957
H    -0.976785  0.951846  5.267744
H    -1.307451  -0.820093  5.298223
H    -3.606636  1.891935  6.635370
H    -4.610843  2.043720  5.191630
H    -2.934964  2.645169  5.191263
N    -3.389645  3.080340  2.369813
C    -3.485643  4.533244  2.521282
H    -4.240018  2.587135  2.106503
H    -4.237396  4.910421  1.821929
H    -2.518969  4.992579  2.298719
H    -3.785648  4.789681  3.546346
Sr    1.030797  2.587265  3.477685
