32
Energy: -103893.039343 eV PBE+vdW (tier 2 basis)
C    0.274514  1.216918  -0.092846
C    0.182019  0.372279  1.133859
O    1.227032  -0.011125  1.747920
H    0.356224  2.280839  0.181274
H    -0.586859  1.095635  -0.757848
H    1.195200  0.953289  -0.626236
N    -1.024234  0.018874  1.635306
C    -2.165888  0.924890  1.722266
C    -1.755187  2.146841  2.593324
O    -0.686218  2.117266  3.284563
H    -0.990415  -0.697954  2.360084
H    -2.404084  1.290764  0.712325
C    -3.411209  0.197997  2.286901
C    -3.479835  -0.072644  3.805701
C    -4.832071  -0.726665  4.126762
C    -2.339745  -0.941615  4.363924
H    -3.510136  -0.743854  1.724389
H    -4.293824  0.791773  2.008928
H    -3.447491  0.899019  4.329609
H    -4.917217  -1.716132  3.655743
H    -5.669528  -0.113220  3.770232
H    -4.955908  -0.860309  5.208317
H    -2.533356  -1.207533  5.410587
H    -1.365118  -0.412209  4.366137
H    -2.225969  -1.887068  3.810872
N    -2.562774  3.191746  2.582008
C    -2.400907  4.420343  3.361419
H    -3.393339  3.131621  1.995747
H    -2.433719  5.285071  2.688734
H    -1.441479  4.394901  3.881439
H    -3.213929  4.505267  4.092961
Sr    1.261647  0.986277  3.845144
