32
Energy: -103892.836448 eV PBE+vdW (tier 2 basis)
C    0.111427  0.017449  1.586546
C    -0.954734  0.624519  2.435570
O    -0.680065  1.578870  3.233496
H    -0.174075  0.067169  0.527549
H    0.263681  -1.045704  1.824517
H    1.050814  0.555442  1.738654
N    -2.232129  0.181546  2.386031
C    -2.638472  -1.233263  2.366017
C    -1.971896  -1.912258  3.603733
O    -1.450272  -1.201631  4.527619
H    -2.883224  0.799503  2.867929
H    -3.714771  -1.207099  2.604649
C    -2.517855  -1.995952  1.032715
C    -3.357070  -1.429828  -0.138824
C    -2.719300  -0.214751  -0.823860
C    -3.605538  -2.549413  -1.159208
H    -2.898402  -3.013460  1.219581
H    -1.467220  -2.118448  0.733065
H    -4.335785  -1.124150  0.272539
H    -3.353701  0.124763  -1.651889
H    -1.743735  -0.476272  -1.261270
H    -2.589238  0.644276  -0.153667
H    -4.214020  -2.181706  -1.994138
H    -4.137389  -3.400645  -0.712779
H    -2.660564  -2.920998  -1.581840
N    -2.002420  -3.226873  3.696866
C    -1.501081  -3.996193  4.839545
H    -2.407966  -3.742625  2.919824
H    -0.414307  -3.881682  4.931717
H    -1.735704  -5.050600  4.673697
H    -1.984401  -3.661510  5.764508
Sr    -0.682151  0.796494  5.405251
