32
Energy: -103891.850307 eV PBE+vdW (tier 2 basis)
C    0.592930  0.506038  0.865328
C    -0.232877  -0.466480  1.634716
O    0.138737  -1.727773  1.648213
H    1.623610  0.492236  1.245731
H    0.207898  1.527651  0.919050
H    0.629402  0.199649  -0.189326
N    -1.301872  -0.135362  2.299129
C    -2.000894  1.154282  2.456065
C    -2.783495  0.877553  3.774330
O    -3.161611  -0.294165  3.948826
H    -1.870188  -0.839805  2.826622
H    -1.271936  1.966941  2.550666
C    -2.919912  1.343575  1.215260
C    -3.651837  2.684395  0.994619
C    -4.871723  2.893908  1.898340
C    -2.705026  3.889897  0.976526
H    -3.652216  0.521727  1.224015
H    -2.271104  1.175639  0.340522
H    -4.045236  2.578674  -0.030691
H    -5.445031  3.766295  1.560703
H    -4.603350  3.074663  2.945528
H    -5.545893  2.027412  1.871729
H    -3.232568  4.785249  0.625108
H    -1.853314  3.731648  0.298452
H    -2.307698  4.133461  1.971612
N    -3.002956  1.848895  4.669732
C    -2.530681  3.227563  4.710887
H    -3.569575  1.536894  5.457310
H    -2.187731  3.454392  5.726794
H    -3.325552  3.935513  4.441796
H    -1.688033  3.373728  4.029713
Sr    0.703021  -3.790017  1.685784
