32
Energy: -103893.496465 eV PBE+vdW (tier 2 basis)
C    -1.331134  0.902338  0.058783
C    -0.923646  0.486123  1.434897
O    0.287407  0.204399  1.684626
H    -2.391941  1.158650  -0.027216
H    -1.105407  0.080466  -0.635640
H    -0.724325  1.761257  -0.256546
N    -1.871924  0.416231  2.381007
C    -1.762096  -0.094577  3.769358
C    -0.943695  0.885641  4.628540
O    0.326643  0.878374  4.580546
H    -2.812648  0.651510  2.076615
H    -2.794875  -0.085247  4.134833
C    -1.273423  -1.555686  3.852891
C    -1.723575  -2.338331  5.108650
C    -1.129720  -1.799106  6.415076
C    -3.249206  -2.478685  5.190736
H    -0.171735  -1.605291  3.787359
H    -1.652494  -2.069989  2.958368
H    -1.315329  -3.350482  4.956345
H    -1.559418  -0.827912  6.703489
H    -0.036963  -1.684119  6.361542
H    -1.341355  -2.486782  7.242769
H    -3.678211  -2.872701  4.259640
H    -3.752004  -1.527056  5.424192
H    -3.521474  -3.173213  5.994793
N    -1.568801  1.748958  5.414762
C    -3.009966  1.907951  5.641822
H    -0.948729  2.350036  5.957843
H    -3.542446  2.104769  4.704318
H    -3.152200  2.771783  6.296804
H    -3.432680  1.026316  6.140289
Sr    1.984372  0.155378  3.183508
