32
Energy: -103892.196082 eV PBE+vdW (tier 2 basis)
C    0.044062  1.116784  0.821081
C    -0.415677  0.222802  1.924393
O    0.261114  0.182994  3.034229
H    0.077846  2.155625  1.177143
H    -0.606638  1.063615  -0.057094
H    1.064599  0.836642  0.525529
N    -1.489157  -0.503908  1.758500
C    -2.135227  -1.468673  2.647661
C    -3.107299  -2.183620  1.643081
O    -3.298758  -1.630944  0.553505
H    -2.033703  -0.505434  0.857826
H    -1.383194  -2.177590  3.026502
C    -2.916106  -0.783415  3.813013
C    -2.689647  -1.322173  5.238677
C    -1.270305  -1.048334  5.772368
C    -3.730771  -0.733919  6.199085
H    -3.990823  -0.847845  3.595056
H    -2.688647  0.293816  3.794131
H    -2.808892  -2.416085  5.235234
H    -1.137546  -1.443732  6.787810
H    -1.133841  0.056101  5.818168
H    -0.526135  -1.539881  5.111357
H    -3.673857  0.364106  6.233540
H    -3.597299  -1.113402  7.219910
H    -4.746188  -0.999111  5.879710
N    -3.710232  -3.329699  1.991806
C    -3.569672  -4.125579  3.202995
H    -4.358313  -3.670274  1.283651
H    -4.272104  -3.810782  3.987665
H    -2.543777  -4.082102  3.587662
H    -3.779349  -5.171845  2.958191
Sr    1.274301  0.254674  4.940355
