32
Energy: -103892.846808 eV PBE+vdW (tier 2 basis)
C    0.407065  0.052415  1.557330
C    -0.644776  0.696191  2.397040
O    -0.350506  1.663220  3.172529
H    0.138025  0.134838  0.495576
H    0.506268  -1.020763  1.775176
H    1.367634  0.545219  1.728357
N    -1.929320  0.273943  2.361091
C    -2.358630  -1.133410  2.373792
C    -1.679911  -1.806782  3.602808
O    -1.143488  -1.092527  4.515911
H    -2.571173  0.914745  2.825404
H    -3.428060  -1.084052  2.636827
C    -2.282538  -1.913398  1.046323
C    -3.099198  -1.324870  -0.134123
C    -4.536403  -0.970758  0.263187
C    -2.401615  -0.167957  -0.859615
H    -2.708211  -2.910559  1.246281
H    -1.239435  -2.080058  0.744767
H    -3.156591  -2.157850  -0.853045
H    -5.131710  -0.742799  -0.629263
H    -4.586284  -0.073945  0.901615
H    -5.043496  -1.797255  0.782391
H    -2.964858  0.100591  -1.762100
H    -1.391137  -0.445951  -1.191199
H    -2.338854  0.740890  -0.245480
N    -1.713094  -3.121038  3.704504
C    -1.202107  -3.884373  4.846884
H    -2.131602  -3.640200  2.936833
H    -0.116677  -3.757603  4.937824
H    -1.425046  -4.941368  4.681400
H    -1.688007  -3.555197  5.772600
Sr    -0.353633  0.912357  5.356301
