32
Energy: -103892.743244 eV PBE+vdW (tier 2 basis)
C    0.137577  0.474655  0.042661
C    0.018570  0.282295  1.515308
O    1.050591  0.148393  2.243856
H    0.801607  1.316295  -0.193680
H    -0.824580  0.591657  -0.463195
H    0.629942  -0.425352  -0.359257
N    -1.201378  0.245184  2.103408
C    -2.262886  1.242022  1.860931
C    -1.584605  2.621927  1.955099
O    -0.642869  2.782939  2.812016
H    -1.184172  -0.098084  3.065235
H    -2.710945  1.086165  0.872383
C    -3.331170  0.993750  2.963295
C    -4.710883  1.677088  2.892050
C    -4.700526  3.166250  3.256120
C    -5.460644  1.382908  1.587634
H    -2.865027  1.223989  3.937168
H    -3.495020  -0.095160  2.935039
H    -5.270811  1.169746  3.695493
H    -5.727117  3.528774  3.389382
H    -4.247734  3.797094  2.480215
H    -4.167263  3.352566  4.198942
H    -6.499844  1.725760  1.661770
H    -5.489036  0.307475  1.365151
H    -5.024812  1.897195  0.719302
N    -1.909810  3.623919  1.156164
C    -2.870983  3.685694  0.053731
H    -1.423212  4.496494  1.366903
H    -2.435726  4.293816  -0.746447
H    -3.808967  4.149384  0.384082
H    -3.084574  2.688443  -0.337844
Sr    1.275878  1.913807  3.747096
