32
Energy: -103893.548453 eV PBE+vdW (tier 2 basis)
C    0.733882  -0.161755  0.163057
C    0.481600  -0.158900  1.635755
O    1.407881  0.148066  2.442618
H    1.104365  0.826153  -0.141364
H    -0.147386  -0.416270  -0.434460
H    1.534233  -0.883011  -0.054444
N    -0.748711  -0.496853  2.064734
C    -1.211710  -0.667841  3.462461
C    -1.304625  0.712441  4.134770
O    -0.266738  1.297683  4.570010
H    -1.419297  -0.735258  1.339482
H    -2.233940  -1.048865  3.367661
C    -0.384808  -1.763634  4.186633
C    -0.567184  -2.000389  5.706272
C    0.367718  -1.152223  6.584223
C    -2.024129  -1.910158  6.177612
H    0.686189  -1.634610  3.963730
H    -0.652458  -2.690740  3.659515
H    -0.247730  -3.043714  5.852605
H    1.425980  -1.285094  6.273076
H    0.344897  -1.489613  7.628500
H    0.087469  -0.087077  6.604330
H    -2.118024  -2.267481  7.210227
H    -2.685710  -2.534685  5.562144
H    -2.406042  -0.878265  6.167300
N    -2.486978  1.304938  4.238654
C    -3.805286  0.818585  3.814575
H    -2.455608  2.225488  4.677350
H    -4.060322  -0.124691  4.312941
H    -3.856190  0.699285  2.725537
H    -4.547172  1.566669  4.106906
Sr    1.991835  0.908819  4.520592
