32
Energy: -103893.577659 eV PBE+vdW (tier 2 basis)
C    -1.742557  -1.890665  0.565492
C    -1.237671  -0.785461  1.433819
O    -0.020610  -0.762204  1.805960
H    -2.816260  -1.825658  0.361955
H    -1.518251  -2.859496  1.029805
H    -1.196598  -1.860133  -0.388564
N    -2.087273  0.180492  1.796949
C    -1.734590  1.435887  2.486649
C    -1.563088  1.187520  4.001406
O    -0.473724  0.667399  4.412537
H    -3.051070  0.104149  1.476569
H    -0.717135  1.689207  2.148833
C    -2.636356  2.602151  2.023521
C    -4.159851  2.661998  2.306608
C    -4.730043  3.870187  1.547017
C    -4.944052  1.387427  1.961869
H    -2.499028  2.653382  0.931242
H    -2.176938  3.522723  2.413290
H    -4.333355  2.887976  3.377637
H    -4.197929  4.797128  1.796793
H    -5.788913  4.016569  1.791616
H    -4.655609  3.719160  0.460647
H    -4.694697  0.527355  2.604176
H    -4.808066  1.106475  0.904197
H    -6.020147  1.555852  2.092660
N    -2.532189  1.521800  4.829229
C    -2.510910  1.359711  6.282601
H    -3.359869  1.950018  4.413217
H    -1.487185  1.173253  6.614424
H    -3.152891  0.519537  6.576987
H    -2.888194  2.276230  6.748883
Sr    1.346048  -0.442965  3.582978
