32
Energy: -103892.877944 eV PBE+vdW (tier 2 basis)
C    -0.204935  0.049912  -0.710779
C    -0.214488  -0.287446  0.742255
O    0.858158  -0.599850  1.348416
H    0.248417  1.039920  -0.872740
H    -1.199675  0.029986  -1.165010
H    0.444024  -0.674302  -1.221242
N    -1.369264  -0.244662  1.445602
C    -2.341780  0.852141  1.351115
C    -1.565674  2.164617  1.607368
O    -0.492598  2.119203  2.309584
H    -1.306617  -0.660500  2.376109
H    -2.798044  0.858007  0.352885
C    -3.426650  0.606051  2.431329
C    -4.732097  1.415577  2.338182
C    -5.553577  1.046101  1.097401
C    -5.548445  1.184484  3.618535
H    -2.963945  0.766560  3.420168
H    -3.677671  -0.465335  2.365717
H    -4.484173  2.489886  2.305889
H    -6.454397  1.668184  1.030744
H    -5.882443  -0.001667  1.145431
H    -5.009822  1.171322  0.148567
H    -6.485643  1.752865  3.585312
H    -4.999627  1.500232  4.516037
H    -5.811613  0.123542  3.735244
N    -1.977270  3.326428  1.131738
C    -3.090966  3.648410  0.235891
H    -1.408649  4.120994  1.429252
H    -2.708636  4.257856  -0.591190
H    -3.854740  4.220448  0.775779
H    -3.546959  2.742668  -0.166978
Sr    1.431190  1.006941  2.926589
