32
Energy: -103892.024722 eV PBE+vdW (tier 2 basis)
C    -1.616992  1.435763  -0.277047
C    -1.283777  1.220742  1.159323
O    -0.417825  2.032552  1.725911
H    -0.719989  1.266522  -0.889694
H    -1.925476  2.478570  -0.429474
H    -2.410431  0.773116  -0.632548
N    -1.803363  0.275208  1.886040
C    -2.777605  -0.781036  1.574448
C    -3.286409  -1.121499  3.008541
O    -2.540063  -0.843175  3.962885
H    -1.584226  0.164171  2.910977
H    -3.589997  -0.373158  0.958081
C    -2.053734  -1.947169  0.850971
C    -2.895630  -3.116141  0.280914
C    -3.212715  -4.222472  1.295217
C    -4.134990  -2.649456  -0.491760
H    -1.283581  -2.342698  1.530431
H    -1.516514  -1.484539  0.007918
H    -2.220063  -3.572192  -0.461438
H    -3.638953  -5.092490  0.779977
H    -3.937294  -3.916213  2.059389
H    -2.306246  -4.561285  1.814214
H    -4.925570  -2.245765  0.162101
H    -4.588286  -3.489600  -1.031845
H    -3.894771  -1.877570  -1.237773
N    -4.499138  -1.666806  3.114628
C    -5.079867  -2.117986  4.376804
H    -5.011259  -1.861144  2.259641
H    -5.083533  -3.214850  4.428430
H    -6.108151  -1.750064  4.462759
H    -4.477853  -1.722795  5.198884
Sr    0.969406  3.336029  2.697134
