32
Energy: -103892.118792 eV PBE+vdW (tier 2 basis)
C    0.012408  -0.602465  0.356409
C    -0.425871  -0.171748  1.714336
O    0.480431  -0.050583  2.659009
H    -0.652288  -0.229383  -0.429813
H    0.006079  -1.702186  0.305245
H    1.034385  -0.262031  0.161062
N    -1.664653  0.077231  2.021952
C    -2.896193  0.065990  1.225378
C    -3.892523  0.745596  2.223210
O    -3.468785  1.058886  3.350865
H    -1.955448  0.442528  2.974605
H    -2.772781  0.748122  0.368496
C    -3.306107  -1.326743  0.696518
C    -3.299407  -2.507283  1.685471
C    -4.334547  -2.373871  2.809779
C    -3.509067  -3.809983  0.901330
H    -2.652384  -1.568566  -0.154557
H    -4.310556  -1.228200  0.254150
H    -2.295831  -2.557750  2.148130
H    -4.330764  -3.273200  3.438549
H    -5.349537  -2.271952  2.399118
H    -4.149675  -1.517780  3.471302
H    -3.455509  -4.679673  1.567798
H    -2.753991  -3.943673  0.114268
H    -4.497565  -3.826733  0.420419
N    -5.130858  0.968932  1.785128
C    -6.180623  1.583269  2.596139
H    -5.376907  0.661414  0.849705
H    -6.689487  2.358308  2.012799
H    -5.721665  2.032525  3.480363
H    -6.912814  0.829285  2.912326
Sr    1.909342  0.218946  4.224685
