32
Energy: -103892.35255 eV PBE+vdW (tier 2 basis)
C    0.156612  -0.153202  -0.004754
C    0.025680  -0.173832  1.481436
O    1.095280  -0.130914  2.215300
H    0.703429  0.747236  -0.315730
H    -0.813107  -0.176487  -0.511078
H    0.747911  -1.021856  -0.326776
N    -1.166181  -0.233682  2.022238
C    -1.574604  -0.280585  3.424239
C    -3.141490  -0.313149  3.291782
O    -3.626705  -0.218318  2.161209
H    -2.045074  -0.226496  1.445358
H    -1.254676  -1.243786  3.857634
C    -1.026853  0.894788  4.273528
C    0.083534  0.501296  5.274258
C    1.029804  1.684328  5.549814
C    -0.470749  -0.069133  6.586392
H    -1.848832  1.357137  4.838215
H    -0.677612  1.676883  3.584976
H    0.636833  -0.353403  4.806092
H    0.504001  2.479183  6.097991
H    1.369543  2.212759  4.631398
H    1.888427  1.420776  6.194323
H    0.328242  -0.373881  7.274560
H    -1.093762  -0.955716  6.406954
H    -1.083310  0.683643  7.100992
N    -3.841919  -0.449007  4.424849
C    -5.304904  -0.512174  4.461289
H    -3.344871  -0.570154  5.300862
H    -5.693711  0.229764  5.167903
H    -5.636133  -1.512901  4.764252
H    -5.684294  -0.295326  3.459535
Sr    2.711096  0.223868  3.622227
