32
Energy: -103893.65051 eV PBE+vdW (tier 2 basis)
C    -0.748212  0.107743  -0.044838
C    -0.526292  0.031278  1.430695
O    0.542208  -0.470058  1.890881
H    -0.736302  -0.912701  -0.453466
H    0.088421  0.646155  -0.509284
H    -1.689296  0.592170  -0.324298
N    -1.493750  0.501286  2.238408
C    -1.567958  0.437677  3.716268
C    -0.576248  1.433744  4.346535
O    0.672317  1.222647  4.315157
H    -2.309024  0.886831  1.769954
H    -2.577784  0.797743  3.954752
C    -1.483418  -1.020943  4.232226
C    -1.330442  -1.238969  5.758083
C    -2.152647  -2.459169  6.196380
C    0.138110  -1.417274  6.183892
H    -0.695216  -1.573330  3.696400
H    -2.414146  -1.494844  3.890363
H    -1.728579  -0.357224  6.288821
H    -3.217580  -2.322710  5.969551
H    -2.062412  -2.629404  7.276121
H    -1.814420  -3.372423  5.685201
H    0.222213  -1.677526  7.246670
H    0.730209  -0.492481  6.066597
H    0.596134  -2.266220  5.637925
N    -1.090855  2.512730  4.919414
C    -0.325160  3.580796  5.562717
H    -2.102430  2.617292  4.907928
H    -0.473466  4.521170  5.017873
H    0.734378  3.317159  5.556848
H    -0.671028  3.707461  6.595256
Sr    2.025673  -0.506607  3.624970
