32
Energy: -103892.233313 eV PBE+vdW (tier 2 basis)
C    0.891568  2.762587  2.304489
C    0.355593  1.395902  2.568729
O    1.176497  0.419386  2.798390
H    1.572580  3.067027  3.110179
H    0.100608  3.510680  2.194080
H    1.482974  2.733759  1.377551
N    -0.941237  1.198340  2.570378
C    -1.705650  -0.044105  2.657885
C    -3.181305  0.482960  2.516233
O    -3.365870  1.701706  2.584235
H    -1.622680  1.986620  2.472983
H    -1.462309  -0.671047  1.785122
C    -1.518662  -0.879323  3.942591
C    -1.612910  -0.135148  5.298166
C    -2.515455  -0.890260  6.281749
C    -0.235489  0.118214  5.931338
H    -0.566298  -1.453609  3.868168
H    -2.276626  -1.674405  3.912234
H    -2.063279  0.853453  5.114009
H    -2.604226  -0.353680  7.234490
H    -2.127737  -1.897245  6.498186
H    -3.527107  -1.001736  5.871919
H    -0.312034  0.645421  6.891080
H    0.407540  0.760796  5.298183
H    0.251687  -0.851676  6.188734
N    -4.141102  -0.434955  2.346653
C    -5.554385  -0.085886  2.179507
H    -3.877469  -1.403220  2.195123
H    -6.174038  -0.815117  2.711561
H    -5.829778  -0.080841  1.117222
H    -5.720121  0.911508  2.595040
Sr    2.047109  -1.001524  4.200348
