32
Energy: -103892.880717 eV PBE+vdW (tier 2 basis)
C    0.048012  0.043222  0.445205
C    -0.394429  0.173189  1.865922
O    0.373305  0.704812  2.731470
H    -0.554472  0.712532  -0.186481
H    -0.091647  -0.971055  0.049857
H    1.097589  0.335321  0.355774
N    -1.611748  -0.261492  2.268945
C    -2.213809  -1.541810  1.873663
C    -1.225542  -2.666667  2.290464
O    -0.182696  -2.397260  2.980012
H    -1.852184  0.051485  3.208914
H    -3.080758  -1.652180  2.545505
C    -2.759015  -1.606893  0.416633
C    -4.238518  -2.041799  0.286130
C    -4.496394  -3.496174  0.697696
C    -5.189132  -1.076131  1.001452
H    -2.119413  -2.253328  -0.202464
H    -2.676971  -0.595967  -0.001407
H    -4.445625  -1.971398  -0.793572
H    -5.531712  -3.783481  0.475542
H    -4.374805  -3.658612  1.783017
H    -3.863162  -4.206373  0.138632
H    -6.233168  -1.337390  0.789616
H    -5.036297  -0.038169  0.677526
H    -5.082214  -1.110279  2.098263
N    -1.513919  -3.904074  1.945160
C    -0.724743  -5.081501  2.314873
H    -2.375568  -4.055780  1.417247
H    0.301168  -4.986327  1.940906
H    -1.189096  -5.961343  1.862373
H    -0.706232  -5.206695  3.404310
Sr    1.257871  -0.959543  4.067348
