32
Energy: -103892.075973 eV PBE+vdW (tier 2 basis)
C    -0.994025  0.678647  0.028998
C    -0.748411  0.815831  1.494541
O    0.242261  1.538722  1.907067
H    -1.065120  1.670182  -0.437241
H    -1.896339  0.102664  -0.198302
H    -0.129257  0.172026  -0.424109
N    -1.556751  0.207491  2.334858
C    -1.518635  0.066631  3.794311
C    -2.934430  -0.527101  4.106140
O    -3.789188  -0.453056  3.217634
H    -2.449740  -0.195502  1.989207
H    -0.741809  -0.675604  4.038090
C    -1.220059  1.328076  4.631364
C    -2.163158  2.550534  4.601121
C    -1.565478  3.664859  5.469182
C    -2.577856  3.087454  3.225858
H    -0.166729  1.619391  4.419186
H    -1.153889  0.995297  5.676639
H    -3.098608  2.234915  5.091978
H    -0.631491  4.099955  5.032770
H    -1.288030  3.322445  6.474067
H    -2.250126  4.515154  5.574092
H    -3.228389  3.963398  3.339813
H    -3.116383  2.349618  2.622047
H    -1.729367  3.439900  2.593073
N    -3.164685  -1.074015  5.310628
C    -2.235099  -1.364787  6.398322
H    -4.121427  -1.407695  5.418548
H    -2.541426  -2.299503  6.879749
H    -2.234690  -0.573910  7.161761
H    -1.216521  -1.514047  6.022466
Sr    0.841496  3.386901  2.911701
