32
Energy: -103892.147837 eV PBE+vdW (tier 2 basis)
C    -0.864981  0.555324  -0.441977
C    -0.831586  0.813196  1.025385
O    0.037767  1.686910  1.484525
H    -0.926394  1.509404  -0.981437
H    -1.702271  -0.080701  -0.741536
H    0.070732  0.065288  -0.747766
N    -1.614409  0.221587  1.878991
C    -2.677359  -0.774834  1.703583
C    -3.437150  -0.627949  3.058806
O    -2.853202  -0.040158  3.986746
H    -1.615412  0.453526  2.910566
H    -3.324948  -0.487235  0.863884
C    -2.078943  -2.186653  1.492221
C    -3.074166  -3.319703  1.173014
C    -3.936055  -3.022863  -0.060697
C    -2.291525  -4.627655  0.992800
H    -1.495987  -2.447533  2.388672
H    -1.359954  -2.119918  0.658844
H    -3.734187  -3.458150  2.045352
H    -4.590096  -3.873652  -0.287791
H    -3.311084  -2.849747  -0.950078
H    -4.592627  -2.145967  0.055877
H    -2.976361  -5.467840  0.824912
H    -1.686498  -4.864100  1.878162
H    -1.617995  -4.571911  0.125050
N    -4.662731  -1.150350  3.133067
C    -5.478200  -1.144791  4.346367
H    -5.043292  -1.603810  2.308384
H    -6.454643  -0.692966  4.137143
H    -4.960750  -0.559880  5.110700
H    -5.625369  -2.168804  4.711335
Sr    1.410626  3.114943  2.285066
