32
Energy: -103892.107317 eV PBE+vdW (tier 2 basis)
C    0.581655  1.079133  0.837861
C    -0.023684  -0.055967  1.589453
O    0.597257  -1.215758  1.578199
H    0.141634  2.043036  1.108585
H    0.426516  0.924726  -0.240565
H    1.663646  1.109195  1.013731
N    -1.141251  0.032191  2.247966
C    -2.056131  1.154253  2.475238
C    -2.977715  0.549454  3.585501
O    -2.820761  -0.649963  3.881227
H    -1.541631  -0.768761  2.821271
H    -1.491167  1.998367  2.900218
C    -2.824638  1.605356  1.199596
C    -2.759571  3.115186  0.895306
C    -3.418363  3.390353  -0.461513
C    -3.389440  3.979987  1.994053
H    -3.876324  1.291594  1.280359
H    -2.419029  1.051145  0.340898
H    -1.693507  3.398507  0.817083
H    -4.487240  3.133466  -0.442661
H    -2.948923  2.810865  -1.268117
H    -3.339818  4.452186  -0.725358
H    -3.341702  5.042639  1.725768
H    -2.870188  3.892975  2.962502
H    -4.454485  3.735176  2.131026
N    -3.880024  1.361586  4.133188
C    -4.838818  0.943815  5.154377
H    -3.926214  2.320824  3.799496
H    -5.859255  0.966524  4.752068
H    -4.777385  1.615845  6.017939
H    -4.596483  -0.074913  5.466662
Sr    1.555775  -3.123286  1.642799
