32
Energy: -103892.894215 eV PBE+vdW (tier 2 basis)
C    0.172909  1.597107  0.134831
C    0.085134  0.687163  1.314552
O    1.133884  0.221738  1.862759
H    0.353686  2.632971  0.464235
H    -0.731157  1.581236  -0.481967
H    1.039221  1.300154  -0.468212
N    -1.119104  0.366007  1.839036
C    -2.192103  1.340489  2.061995
C    -1.606634  2.456148  2.966348
O    -0.571266  2.227147  3.679934
H    -1.090113  -0.388038  2.527040
H    -2.485071  1.786624  1.100601
C    -3.400238  0.573684  2.657876
C    -4.774903  1.275316  2.785819
C    -4.967760  2.073799  4.082317
C    -5.173679  2.065004  1.533402
H    -3.108060  0.167872  3.641117
H    -3.523233  -0.287813  1.983794
H    -5.478177  0.429486  2.849582
H    -6.019189  2.368426  4.188218
H    -4.378223  2.999325  4.123138
H    -4.709944  1.474252  4.965902
H    -6.225203  2.370493  1.593527
H    -5.058017  1.474798  0.613692
H    -4.600373  3.000234  1.399562
N    -2.200490  3.632475  2.941691
C    -1.872445  4.793414  3.766820
H    -3.023481  3.712690  2.343800
H    -1.676183  5.658495  3.122657
H    -0.991358  4.573738  4.372514
H    -2.718617  5.025305  4.426264
Sr    1.421888  1.101111  3.989966
