18
Energy: -30473.6941477 eV PBE+vdW (tier 2 basis)
N    -0.521354  -1.217770  0.126556
C    -0.207479  -0.345213  1.294881
C    1.314509  -0.309794  1.428848
O    2.003864  -1.307334  1.141684
H    -0.254348  -0.737414  -0.740340
H    -1.538978  -1.329871  0.059264
H    -0.588729  0.680649  1.189063
C    -0.820483  -0.955360  2.583612
O    -0.379331  -2.377438  2.585150
C    -2.330282  -0.852907  2.665279
H    -0.355466  -0.467583  3.452960
H    -0.688508  -2.792814  3.410682
H    -2.631199  0.203135  2.691384
H    -2.692931  -1.309028  3.596357
H    -2.845181  -1.344452  1.828747
O    1.789228  0.810261  1.893221
H    2.766894  0.781412  2.006257
Ca    0.805775  -3.157479  0.787395
