18
Energy: -30473.3809583 eV PBE+vdW (tier 2 basis)
N    1.286328  -1.962547  0.883420
C    0.566094  -0.731620  1.375294
C    1.441173  0.018688  2.367629
O    1.109988  1.189161  2.745715
H    1.791790  -1.809452  0.002623
H    0.516261  -2.664601  0.733350
H    0.357772  -0.090656  0.507754
C    -0.801763  -1.197065  1.992699
O    -1.159526  -2.286008  1.133841
C    -1.836584  -0.086528  2.007409
H    -0.616603  -1.576121  3.015464
H    -1.982640  -2.710378  1.430970
H    -2.058054  0.253227  0.987562
H    -1.501026  0.771219  2.603279
H    -2.766152  -0.455626  2.459266
O    2.500344  -0.542497  2.828317
H    1.958565  -2.300915  1.588870
Ca    2.892033  1.302718  4.018539
