18
Energy: -30472.6460346 eV PBE+vdW (tier 2 basis)
N    0.104144  -0.052653  0.038937
C    0.045426  0.012069  1.531397
C    1.439206  0.272139  2.053499
O    2.429965  -0.097377  1.376286
H    -0.160802  0.862206  -0.344383
H    -0.683079  -0.685348  -0.207057
H    -0.662951  0.784760  1.867099
C    -0.475041  -1.406638  2.054601
O    -1.464242  -1.832427  1.136304
C    -0.939435  -1.376737  3.498416
H    0.362422  -2.119659  1.943235
H    -2.355449  -1.726325  1.514890
H    -0.121580  -1.138851  4.192174
H    -1.303248  -2.371858  3.784344
H    -1.754286  -0.653294  3.648694
O    1.667216  0.807955  3.217456
H    0.859555  1.099379  3.688797
Ca    2.320178  -0.737342  -0.662688
