18
Energy: -30472.707678 eV PBE+vdW (tier 2 basis)
N    0.939164  -0.938732  0.285730
C    0.065869  -0.345821  1.370845
C    1.079682  0.091600  2.439553
O    2.246720  -0.234348  2.359332
H    1.891783  -1.016858  0.732950
H    1.017051  -0.329965  -0.538839
H    -0.463004  0.522497  0.960788
C    -0.993282  -1.390284  1.869396
O    -1.955392  -0.724305  2.637866
C    -0.371836  -2.558739  2.631235
H    -1.481434  -1.768778  0.949144
H    0.620557  -1.864172  -0.029750
H    0.088294  -2.224516  3.570642
H    0.398293  -3.086811  2.049657
H    -1.146276  -3.298708  2.864448
O    0.537955  0.824388  3.414684
H    1.256715  1.079851  4.033653
Ca    -3.319861  -0.038300  3.821667
