18
Energy: -30472.3646346 eV PBE+vdW (tier 2 basis)
N    0.778227  -0.738069  0.065694
C    0.178721  -0.128331  1.231452
C    1.276801  0.247503  2.230830
O    1.946921  1.320780  2.121627
H    1.204746  -0.083271  -0.585055
H    1.378206  -1.542675  0.231687
H    -0.307478  0.808654  0.921516
C    -0.930153  -0.989981  1.862103
O    -0.162497  -2.187766  2.493982
C    -1.958409  -1.537676  0.917837
H    -1.375997  -0.464146  2.718638
H    -0.741189  -2.752964  3.046874
H    -2.523244  -0.693735  0.495716
H    -2.684533  -2.171316  1.443921
H    -1.500735  -2.089762  0.090850
O    1.626529  -0.601547  3.176053
H    0.622523  -1.752025  3.022801
Ca    3.270561  0.841329  3.765476
