18
Energy: -30472.3316575 eV PBE+vdW (tier 2 basis)
N    0.566489  -0.442774  0.029372
C    0.370860  0.037110  1.360544
C    1.614130  0.110241  2.263989
O    2.785912  0.164325  1.788873
H    1.222041  -1.213579  -0.069319
H    0.765503  0.279011  -0.656974
H    0.029354  1.088127  1.309723
C    -0.791863  -0.769585  2.003682
O    -1.006750  -0.103188  3.390453
C    -0.595893  -2.254059  2.163343
H    -1.712170  -0.521708  1.465226
H    -1.597264  -0.631762  3.967824
H    -1.467095  -2.721902  2.641589
H    0.307259  -2.512356  2.733144
H    -0.520664  -2.702040  1.163269
O    1.471715  0.160302  3.569112
H    -0.054576  0.000125  3.787833
Ca    3.704011  0.471713  3.737319
