18
Energy: -30472.7483748 eV PBE+vdW (tier 2 basis)
N    0.986049  -0.934453  0.431617
C    -0.055744  -0.478082  1.435920
C    0.741473  -0.073672  2.671070
O    1.920139  -0.276638  2.792571
H    0.667702  -1.754248  -0.104741
H    1.851937  -1.177169  0.956338
H    -0.575301  0.391568  1.014132
C    -1.133729  -1.589671  1.721838
O    -2.034885  -1.016968  2.609649
C    -0.541608  -2.893093  2.250779
H    -1.633043  -1.775412  0.750244
H    1.234721  -0.194927  -0.240772
H    -0.004033  -2.747285  3.198524
H    0.142086  -3.379932  1.539014
H    -1.358340  -3.603550  2.424889
O    -0.000117  0.555943  3.659011
H    0.663143  0.847961  4.325227
Ca    -2.481449  0.101631  4.141689
