18
Energy: -30473.3487146 eV PBE+vdW (tier 2 basis)
N    0.545782  -0.383543  -0.098937
C    0.081514  0.003186  1.287950
C    1.314511  0.052281  2.187070
O    1.158584  0.446830  3.377952
H    0.737149  0.446400  -0.678705
H    -0.138206  -0.967549  -0.601419
H    -0.451298  0.958760  1.229944
C    -0.849997  -1.046530  1.972047
O    0.010026  -2.069069  2.612553
C    -1.880581  -1.684750  1.062959
H    -1.343154  -0.488291  2.780486
H    -0.518988  -2.881600  2.697988
H    -2.573174  -2.305269  1.648308
H    -1.437906  -2.334268  0.291778
H    -2.497500  -0.914409  0.578874
O    2.327241  -0.627549  1.810704
H    1.442551  -0.900287  0.017478
Ca    2.100447  -1.478344  3.898970
