18
Energy: -30472.8634832 eV PBE+vdW (tier 2 basis)
N    -1.018860  -0.461371  0.132866
C    -0.270374  -0.183240  1.382873
C    1.225151  -0.303358  1.100635
O    1.834812  -1.399909  1.076776
H    -0.543986  -0.128585  -0.708596
H    -1.926830  0.010663  0.150096
H    -0.457980  0.818635  1.793876
C    -0.723883  -1.288893  2.384726
O    -0.745049  -2.521501  1.556417
C    -2.077692  -1.041124  3.014517
H    0.035647  -1.433471  3.170781
H    -1.094089  -2.089447  0.683165
H    -2.365283  -1.890520  3.644849
H    -2.865593  -0.896114  2.263670
H    -2.034451  -0.147283  3.651651
O    1.815859  0.835402  0.882501
H    2.777672  0.733158  0.697136
Ca    1.204929  -3.488042  1.372061
