18
Energy: -30472.7375967 eV PBE+vdW (tier 2 basis)
N    -0.561414  -0.787506  0.345151
C    -0.243677  -0.068774  1.542403
C    1.231624  -0.027141  1.957248
O    1.611386  0.276690  3.122278
H    -0.036793  -1.645623  0.194110
H    -0.551228  -0.223797  -0.500527
H    -0.503717  0.995265  1.391072
C    -1.172443  -0.592964  2.680928
O    -1.130657  0.357094  3.866740
C    -0.892711  -1.998200  3.164136
H    -2.187582  -0.511171  2.276598
H    -2.049571  0.608239  4.070026
H    0.120837  -2.116571  3.580671
H    -0.985345  -2.701210  2.325400
H    -1.625486  -2.309177  3.918361
O    2.079350  -0.324495  1.019313
H    3.012779  -0.250102  1.321056
Ca    0.724647  0.771440  4.999034
