18
Energy: -30472.3611997 eV PBE+vdW (tier 2 basis)
N    0.820771  -0.226140  0.184517
C    0.090113  -0.001652  1.413677
C    1.209962  0.301702  2.418200
O    1.682611  1.464577  2.575535
H    0.488924  0.307620  -0.613157
H    0.990648  -1.197305  -0.062473
H    -0.520343  0.908365  1.328783
C    -0.850819  -1.118954  1.900358
O    0.111804  -2.299186  2.201657
C    -1.887898  -1.590078  0.922377
H    -1.284413  -0.851589  2.875178
H    -0.327557  -3.026221  2.689250
H    -2.473969  -2.423529  1.331028
H    -1.452683  -1.889126  -0.037781
H    -2.593818  -0.766442  0.742158
O    1.784280  -0.694923  3.060863
H    0.918049  -1.865467  2.725581
Ca    3.374225  0.778489  3.732624
