18
Energy: -30471.7678527 eV PBE+vdW (tier 2 basis)
N    0.341758  -0.622355  -0.055300
C    -0.140289  -0.091838  1.179940
C    0.882779  0.236197  2.256770
O    0.528138  0.360171  3.482410
H    0.619832  0.080356  -0.735127
H    1.067177  -1.331117  0.024680
H    -0.620560  0.884182  0.978105
C    -1.265366  -1.014824  1.780327
O    -1.817835  -0.397972  2.993395
C    -0.806742  -2.434174  2.070643
H    -2.049413  -1.020031  1.009885
H    -0.492951  0.116176  3.509087
H    -0.015890  -2.474641  2.833043
H    -0.436787  -2.908899  1.153163
H    -1.646848  -3.048737  2.420127
O    2.116264  0.383586  1.919858
H    2.696807  0.614143  2.681880
Ca    -3.528075  -0.314222  4.017110
