18
Energy: -30472.5327023 eV PBE+vdW (tier 2 basis)
N    0.521836  -0.153649  0.112079
C    -0.092009  0.088867  1.479424
C    0.353778  -1.116157  2.317197
O    1.357556  -1.732298  2.090394
H    0.655802  0.725177  -0.406405
H    1.437005  -0.626673  0.229548
H    0.419390  0.971925  1.896070
C    -1.617607  0.330791  1.415702
O    -2.265772  -0.916329  1.310585
C    -2.029499  1.295326  0.304935
H    -1.852565  0.817762  2.383931
H    -0.083623  -0.767249  -0.455311
H    -3.097896  1.518927  0.400219
H    -1.890330  0.859805  -0.695216
H    -1.489095  2.250613  0.369806
O    -0.481645  -1.422712  3.387481
H    0.065867  -1.964188  3.999814
Ca    -2.869192  -2.185937  2.694748
