18
Energy: -30472.4401236 eV PBE+vdW (tier 2 basis)
N    0.050453  -0.375403  -0.002691
C    -0.277703  -0.163047  1.462376
C    1.001844  0.055621  2.284585
O    0.986616  0.528997  3.386240
H    0.219714  0.509158  -0.499481
H    0.908511  -0.943632  -0.091295
H    -0.892410  0.743628  1.531696
C    -1.100654  -1.393935  1.941461
O    -2.169028  -1.604095  1.018187
C    -1.635578  -1.211469  3.356597
H    -0.435676  -2.276865  1.905880
H    -0.751273  -0.867044  -0.433983
H    -2.165237  -2.124218  3.671089
H    -2.314258  -0.347951  3.414618
H    -0.837864  -1.048282  4.091126
O    2.085080  -0.389434  1.603399
H    2.890277  -0.259058  2.148352
Ca    -4.032599  -2.249523  1.004604
