18
Energy: -30473.1860615 eV PBE+vdW (tier 2 basis)
N    0.023647  0.648899  -0.002623
C    0.260830  0.150176  1.400191
C    1.673708  -0.516017  1.311095
O    2.093004  -1.052252  2.414172
H    -0.766074  0.207463  -0.489595
H    0.945946  0.354514  -0.474324
H    0.309147  1.020377  2.067525
C    -0.852940  -0.808735  1.888751
O    -0.560164  -1.093086  3.322289
C    -0.975095  -2.107521  1.114188
H    -1.806202  -0.259499  1.885206
H    -1.415597  -1.105723  3.787742
H    -0.034345  -2.674835  1.101305
H    -1.263533  -1.929584  0.067559
H    -1.767941  -2.734766  1.539689
O    2.244270  -0.485902  0.231758
H    -0.092374  1.668004  -0.059008
Ca    1.482714  -1.795513  4.202079
