18
Energy: -30473.1988428 eV PBE+vdW (tier 2 basis)
N    0.725217  1.098082  1.714736
C    -0.352091  0.080093  2.043127
C    0.165152  -1.340202  1.905877
O    -0.531310  -2.323565  2.160305
H    1.535493  1.043031  2.350690
H    1.081068  0.975320  0.754084
H    -0.632298  0.245357  3.092703
C    -1.661656  0.322515  1.167997
O    -2.596402  -0.600811  1.581532
C    -1.391010  0.260350  -0.334576
H    -1.989324  1.347500  1.439674
H    0.337771  2.052457  1.782139
H    -2.339299  0.417258  -0.862564
H    -0.991627  -0.716569  -0.644167
H    -0.713238  1.051661  -0.691074
O    1.411143  -1.411648  1.464773
H    1.710582  -2.344702  1.382438
Ca    -2.871172  -2.463128  2.202306
