26
Energy: -572025.083284 eV PBE+vdW (tier 2 basis)
C    0.475480  -0.636621  -0.909863
C    0.186454  0.273789  0.233173
O    1.235154  0.563330  0.959694
H    1.222863  -0.173098  -1.568848
H    -0.429306  -0.880157  -1.477301
H    0.923518  -1.563062  -0.520571
N    -1.049929  0.710813  0.425053
C    -1.756046  1.343416  1.545774
C    -3.213169  0.714963  1.380410
O    -3.488206  0.254243  0.276911
H    -1.799995  0.339734  -0.209720
H    -1.352372  1.013253  2.516445
C    -1.896018  2.914196  1.455249
C    -1.335143  3.769223  2.581418
O    -2.001385  4.786331  3.036176
O    -0.202285  3.616912  3.138363
H    -2.957639  3.166630  1.327334
H    -1.410425  3.270054  0.529644
N    -4.037860  0.772539  2.432834
C    -3.730843  1.170647  3.806290
H    -4.963048  0.384453  2.249731
H    -4.598953  0.935015  4.428751
H    -3.554093  2.251790  3.900753
H    -2.878343  0.612103  4.215463
H    -2.872371  4.926648  2.610190
Hg    0.952598  2.093894  2.285500
