26
Energy: -572024.988907 eV PBE+vdW (tier 2 basis)
C    2.456441  -0.105717  3.616484
C    1.117830  -0.623644  4.010914
O    0.839457  -1.867722  4.046874
H    2.599208  -0.263532  2.535383
H    3.232894  -0.684983  4.132489
H    2.590125  0.961336  3.823857
N    0.155299  0.255287  4.356058
C    -1.214470  -0.063094  4.713560
C    -1.809391  -1.178041  3.813492
O    -1.479119  -1.230663  2.589225
H    0.411591  1.242433  4.342444
H    -1.214908  -0.474076  5.739498
C    -2.088406  1.200639  4.725221
C    -2.018749  1.978387  3.414898
O    -3.036463  2.808506  3.266402
O    -1.087707  1.850501  2.630311
H    -1.754868  1.884506  5.523904
H    -3.132051  0.957060  4.960269
N    -2.684202  -2.017925  4.352968
C    -3.160107  -2.085001  5.737217
H    -3.076209  -2.696650  3.697938
H    -3.734760  -3.007551  5.855949
H    -3.809789  -1.234426  5.981006
H    -2.314728  -2.117107  6.439961
H    -2.932175  3.339812  2.446604
Hg    0.137257  -2.812335  2.074075
