26
Energy: -572025.558935 eV PBE+vdW (tier 2 basis)
C    -0.116791  -0.295903  0.061915
C    0.006483  -0.115151  1.541061
O    1.122239  0.376737  1.941891
H    0.729672  -0.888471  -0.308026
H    -0.051605  0.693470  -0.416346
H    -1.065521  -0.765760  -0.221845
N    -1.029843  -0.456734  2.322366
C    -1.286609  -0.083013  3.727100
C    -0.734837  -1.137352  4.727214
O    0.385004  -0.912354  5.349697
H    -1.794669  -0.942490  1.853247
H    -0.709452  0.832356  3.932546
C    -2.755096  0.356686  3.926829
C    -3.809733  -0.654041  3.505754
O    -4.990501  -0.088619  3.342482
O    -3.570103  -1.848700  3.340595
H    -2.920691  1.298400  3.385137
H    -2.917724  0.595788  4.990067
N    -1.408723  -2.232093  4.960793
C    -1.005255  -3.309751  5.863930
H    -2.312909  -2.306175  4.440305
H    -1.500540  -3.179368  6.836427
H    0.078484  -3.297580  6.009796
H    -1.330920  -4.260458  5.428676
H    -5.666356  -0.765480  3.118942
Hg    1.710746  0.178873  4.030337
