26
Energy: -572024.529618 eV PBE+vdW (tier 2 basis)
C    -0.189534  0.682757  -0.214750
C    -0.097943  0.571526  1.282406
O    0.646811  1.267364  1.964764
H    -0.995484  1.388287  -0.467382
H    -0.409738  -0.287819  -0.678389
H    0.749676  1.086356  -0.604446
N    -0.923470  -0.363363  1.901841
C    -1.038190  -0.454525  3.336595
C    -0.860645  -1.910182  3.840257
O    -1.708995  -2.373690  4.608068
H    -1.586711  -0.868524  1.315384
H    -0.232641  0.170987  3.753990
C    -2.407298  0.068675  3.818875
C    -2.619430  -0.059132  5.324939
O    -3.779423  -0.443151  5.810065
O    -1.734861  0.331561  6.107702
H    -3.226841  -0.441169  3.294341
H    -2.479633  1.144178  3.590886
N    0.217329  -2.635639  3.454053
C    1.471289  -2.187415  2.865556
H    0.206896  -3.587063  3.830463
H    2.305600  -2.604142  3.443081
H    1.549311  -1.095958  2.859389
H    1.557098  -2.559202  1.832024
H    -4.400708  -0.784262  5.135993
Hg    -2.165281  0.127013  8.423330
