26
Energy: -572025.244139 eV PBE+vdW (tier 2 basis)
C    -0.037794  0.283114  -0.058369
C    0.116466  -0.095059  1.382121
O    1.267714  -0.575030  1.687790
H    0.361801  -0.526686  -0.683937
H    0.578998  1.172084  -0.258278
H    -1.079786  0.478611  -0.334286
N    -0.919195  0.116318  2.209624
C    -1.323011  -0.466294  3.525356
C    -0.755523  0.245366  4.773337
O    0.430029  0.056992  5.250360
H    -1.720592  0.516136  1.724013
H    -2.404961  -0.271906  3.532848
C    -1.207724  -1.996546  3.586972
C    -2.257137  -2.628045  2.651562
O    -2.095660  -3.945915  2.595295
O    -3.098765  -1.969906  2.077958
H    -1.411214  -2.347266  4.610627
H    -0.223715  -2.406178  3.309200
N    -1.571892  1.034861  5.440062
C    -1.233101  1.752277  6.675594
H    -2.534359  1.108734  5.113480
H    -1.822135  2.673904  6.709446
H    -0.164100  1.982643  6.686326
H    -1.480455  1.130786  7.546749
H    -2.793575  -4.342878  2.030799
Hg    1.796683  -0.714116  3.771352
