26
Energy: -572025.366707 eV PBE+vdW (tier 2 basis)
C    -0.897520  -0.312308  -0.387920
C    -0.529329  -0.515547  1.042972
O    0.620440  -0.082561  1.393538
H    -0.005286  -0.270901  -1.018959
H    -1.425010  0.654536  -0.452313
H    -1.579052  -1.098914  -0.740397
N    -1.411796  -1.135929  1.862947
C    -1.663278  -0.821394  3.288553
C    -1.183348  -1.955787  4.226493
O    0.063404  -2.068766  4.540043
H    -2.229073  -1.496888  1.371754
H    -1.041338  0.055693  3.541582
C    -3.111030  -0.361319  3.476723
C    -3.334307  0.988095  2.772427
O    -4.582902  1.402682  2.956270
O    -2.461828  1.561389  2.150813
H    -3.332037  -0.217587  4.545082
H    -3.845967  -1.085796  3.089038
N    -2.040955  -2.809478  4.735586
C    -1.694697  -3.917159  5.639932
H    -3.029259  -2.663233  4.536306
H    -1.681996  -3.559963  6.678018
H    -0.708642  -4.311481  5.378164
H    -2.454041  -4.696949  5.532251
H    -4.713240  2.272741  2.521735
Hg    1.321491  -0.796931  3.310549
