26
Energy: -572025.178531 eV PBE+vdW (tier 2 basis)
C    0.933471  -0.038289  -0.126786
C    0.484546  -0.497176  1.217552
O    1.305809  -1.337246  1.793239
H    1.912944  0.452222  -0.039323
H    0.210053  0.642281  -0.588757
H    1.072766  -0.917626  -0.773240
N    -0.657003  -0.045050  1.715750
C    -1.532568  -0.451216  2.821053
C    -2.966861  -0.071067  2.230505
O    -2.983396  0.767934  1.334975
H    -1.235958  0.591276  1.113894
H    -1.506438  -1.543334  2.972011
C    -1.325238  0.350451  4.167860
C    -1.023733  -0.437324  5.433343
O    -1.647602  -0.185337  6.542679
O    -0.147560  -1.353454  5.540033
H    -2.210770  0.975405  4.344972
H    -0.492686  1.065592  4.047617
N    -4.021335  -0.656871  2.802319
C    -5.405081  -0.377576  2.385447
H    -3.875010  -1.437980  3.435193
H    -5.450047  0.627277  1.957135
H    -6.059120  -0.437359  3.260844
H    -5.731671  -1.106299  1.633163
H    -2.317567  0.526733  6.480298
Hg    0.927043  -1.687130  3.772831
