26
Energy: -572024.953999 eV PBE+vdW (tier 2 basis)
C    -0.125930  0.212535  0.042919
C    0.085954  0.024230  1.513463
O    1.303422  -0.151604  1.866695
H    0.366592  -0.599035  -0.507051
H    0.356848  1.153140  -0.262294
H    -1.190640  0.254914  -0.214789
N    -0.987919  0.058018  2.318331
C    -1.034230  0.235914  3.774149
C    -0.935282  -1.100654  4.576642
O    0.191265  -1.397352  5.136012
H    -1.886804  0.240057  1.853623
H    -0.108831  0.756830  4.079574
C    -2.146599  1.219332  4.220421
C    -3.562777  1.139406  3.655269
O    -3.568266  0.965211  2.295331
O    -4.552944  1.274329  4.318017
H    -1.794236  2.232670  3.966565
H    -2.230611  1.190262  5.313977
N    -1.928005  -1.942269  4.778197
C    -3.341133  -1.879392  4.393368
H    -1.662037  -2.747014  5.353210
H    -3.924180  -1.310932  5.128925
H    -3.716581  -2.907671  4.369824
H    -3.453513  -1.450552  3.394068
H    -4.495290  1.023856  1.977633
Hg    1.872728  -0.695227  3.909925
