26
Energy: -572025.289146 eV PBE+vdW (tier 2 basis)
C    -0.188935  0.149103  0.035514
C    0.062054  -0.058557  1.496022
O    1.308565  -0.184900  1.808393
H    0.335539  1.061018  -0.286595
H    -1.258341  0.250337  -0.181298
H    0.240685  -0.686543  -0.532506
N    -0.984034  -0.095818  2.322684
C    -1.047255  0.095431  3.781588
C    -0.962241  -1.238254  4.584571
O    0.187432  -1.596343  5.067476
H    -1.942014  0.035830  1.905686
H    -0.138911  0.628757  4.109845
C    -2.208253  1.057453  4.151343
C    -3.466030  1.002351  3.293545
O    -4.485274  1.579084  3.908258
O    -3.512789  0.518112  2.166618
H    -1.829064  2.087031  4.050063
H    -2.470951  0.954127  5.212135
N    -1.977237  -2.027987  4.863218
C    -3.409241  -1.906125  4.563322
H    -1.708525  -2.846189  5.417329
H    -3.852237  -2.897562  4.697047
H    -3.565232  -1.593573  3.526945
H    -3.899926  -1.214457  5.260425
H    -5.262735  1.618966  3.309221
Hg    1.786950  -0.920292  3.767150
