26
Energy: -572024.688506 eV PBE+vdW (tier 2 basis)
C    -0.694428  -0.487967  -0.004268
C    -0.441750  -0.451835  1.477042
O    0.710835  -0.496679  1.936785
H    -0.448154  0.500603  -0.418958
H    -1.741007  -0.720987  -0.235371
H    -0.027004  -1.220497  -0.470613
N    -1.510387  -0.338537  2.320512
C    -1.314097  -0.026867  3.736750
C    -0.892417  -1.310792  4.510115
O    -1.637820  -2.067998  5.207799
H    -2.452093  -0.352006  1.938482
H    -0.443632  0.643970  3.791602
C    -2.474038  0.772563  4.357384
C    -3.770115  0.002879  4.441970
O    -4.679019  0.288671  5.343742
O    -3.964754  -0.949446  3.660926
H    -2.643948  1.677724  3.750231
H    -2.177655  1.129524  5.354999
N    0.412887  -1.573476  4.444048
C    1.083272  -2.747249  4.969089
H    0.983512  -0.882604  3.936284
H    1.557905  -2.502424  5.934090
H    1.881824  -3.029626  4.270367
H    0.371126  -3.562911  5.116772
H    -4.458108  1.060378  5.904713
Hg    -3.661279  -3.071080  4.638368
