26
Energy: -572025.156448 eV PBE+vdW (tier 2 basis)
C    -0.421579  0.808286  0.041776
C    -0.339523  0.051116  1.331511
O    0.767892  0.149118  1.957293
H    -0.388568  1.884763  0.263811
H    -1.323868  0.575569  -0.534590
H    0.466482  0.579349  -0.562900
N    -1.413764  -0.665919  1.706437
C    -1.628552  -1.671025  2.768963
C    -1.907652  -1.027364  4.141902
O    -1.136085  -0.149701  4.660114
H    -2.197738  -0.579749  1.063618
H    -2.556252  -2.168664  2.469694
C    -0.516756  -2.784621  2.783105
C    -0.176131  -3.300405  4.169634
O    0.958558  -2.649573  4.698177
O    -0.753215  -4.135155  4.797167
H    0.390861  -2.436533  2.278200
H    -0.888250  -3.643539  2.212374
N    -2.992082  -1.385242  4.808871
C    -4.055221  -2.324908  4.422854
H    -3.086589  -0.932169  5.720917
H    -3.655075  -3.343434  4.331170
H    -4.546502  -2.014821  3.492165
H    -4.806680  -2.319277  5.217099
H    1.158095  -3.038064  5.581249
Hg    1.032191  -0.267040  4.101390
