26
Energy: -572024.882243 eV PBE+vdW (tier 2 basis)
C    0.966406  -0.406701  1.003617
C    -0.131819  0.557876  0.686073
O    -0.093195  1.307716  -0.306348
H    0.834321  -0.929050  1.957057
H    1.920616  0.137090  1.010690
H    1.031911  -1.141765  0.189035
N    -1.217150  0.591222  1.525365
C    -2.288103  1.579530  1.489121
C    -3.182640  1.579097  0.222939
O    -4.473013  1.713520  0.331736
H    -1.247260  -0.080123  2.287536
H    -2.963570  1.260268  2.294829
C    -1.788868  3.048671  1.797037
C    -2.314141  3.646867  3.090140
O    -1.503976  4.212541  3.942125
O    -3.527763  3.675735  3.427707
H    -2.092821  3.746199  0.998174
H    -0.692981  3.055537  1.780472
N    -2.643401  1.445402  -0.957613
C    -3.347560  1.460341  -2.238576
H    -1.588236  1.343637  -0.928742
H    -3.587000  0.430004  -2.538006
H    -2.675890  1.892855  -2.987709
H    -4.273821  2.037365  -2.165164
H    -0.561962  4.184705  3.679396
Hg    -5.080331  2.919712  2.017282
