26
Energy: -572025.2816 eV PBE+vdW (tier 2 basis)
C    0.940382  0.582682  -0.184646
C    0.726222  0.074734  1.204339
O    1.737470  -0.507300  1.740008
H    1.746880  1.329190  -0.177515
H    0.032502  1.004716  -0.629366
H    1.291311  -0.252180  -0.810430
N    -0.475273  0.257479  1.781453
C    -1.199724  -0.458096  2.866933
C    -1.072048  0.159189  4.278640
O    0.048390  0.449075  4.858079
H    -1.099246  0.828136  1.213864
H    -2.254049  -0.321831  2.589500
C    -1.003394  -1.990567  2.890221
C    -2.321395  -2.659157  3.311950
O    -2.199433  -3.978574  3.320852
O    -3.323400  -2.024689  3.587871
H    -0.220253  -2.347097  3.579519
H    -0.726783  -2.360951  1.892984
N    -2.192071  0.359228  4.933489
C    -2.306928  0.849780  6.309297
H    -3.054689  0.089750  4.451947
H    -1.367823  0.685082  6.844232
H    -3.128307  0.314350  6.796820
H    -2.536250  1.923905  6.298321
H    -3.051650  -4.394480  3.574805
Hg    1.767558  -0.428374  3.899833
