26
Energy: -572024.993645 eV PBE+vdW (tier 2 basis)
C    0.175761  -0.216482  0.291130
C    -0.600894  0.691605  1.182869
O    -0.672779  1.915945  0.959204
H    -0.164326  -0.084501  -0.744549
H    0.113184  -1.271721  0.577274
H    1.229803  0.098186  0.316589
N    -1.223020  0.132003  2.283159
C    -2.002299  0.984395  3.164654
C    -2.307983  0.341838  4.534075
O    -3.249117  0.754082  5.314724
H    -1.453769  -0.857845  2.210314
H    -1.325217  1.819321  3.428681
C    -3.256310  1.593110  2.446153
C    -3.157767  3.111093  2.437769
O    -2.302405  3.665568  1.680918
O    -3.861451  3.858764  3.213596
H    -4.211190  1.250020  2.868751
H    -3.262843  1.248215  1.404601
N    -1.538375  -0.637064  4.956703
C    -1.637287  -1.287190  6.272020
H    -0.801230  -0.952795  4.326913
H    -2.384855  -2.090163  6.237846
H    -1.928906  -0.551586  7.027628
H    -0.659095  -1.710732  6.516339
H    -1.624654  2.931471  1.277616
Hg    -4.242625  2.675425  4.981473
