26
Energy: -572025.06001 eV PBE+vdW (tier 2 basis)
C    0.990011  -1.265595  0.173245
C    0.022397  -0.139569  0.296941
O    0.187330  0.854243  -0.489082
H    0.995227  -1.924306  1.046473
H    1.992104  -0.826371  0.058139
H    0.798137  -1.834277  -0.748055
N    -0.945069  -0.107285  1.246929
C    -1.882174  -1.155621  1.736621
C    -1.623409  -2.550996  1.171614
O    -1.828150  -2.817932  -0.078797
H    -1.335795  0.826842  1.387305
H    -1.816276  -1.202807  2.831997
C    -3.345775  -0.701179  1.344549
C    -3.205649  -0.005171  -0.014647
O    -2.779926  -0.647987  -1.005395
O    -3.298369  1.278006  0.023241
H    -3.732686  -0.002452  2.093040
H    -4.025669  -1.560790  1.282037
N    -1.257260  -3.513013  1.981197
C    -1.073489  -4.923671  1.610753
H    -1.089480  -3.268292  2.956610
H    -1.614006  -5.544958  2.334006
H    -0.005191  -5.172151  1.652079
H    -1.458514  -5.094048  0.603178
H    -2.243641  -2.010117  -0.581773
Hg    -1.678498  1.783005  -1.396878
