26
Energy: -572025.357748 eV PBE+vdW (tier 2 basis)
C    1.114484  1.227169  0.374202
C    0.053324  0.363769  0.984457
O    0.383745  -0.827797  1.263859
H    1.900261  1.399578  1.123936
H    0.738464  2.187357  0.005175
H    1.583684  0.677192  -0.452862
N    -1.161219  0.923992  1.178369
C    -2.515683  0.412757  1.498199
C    -2.760406  0.161885  3.003062
O    -1.913348  -0.393024  3.776103
H    -1.172889  1.909720  0.928860
H    -3.133824  1.290932  1.269309
C    -3.100246  -0.644772  0.509651
C    -2.934951  -2.154997  0.643010
O    -3.513131  -2.889136  -0.284526
O    -2.363558  -2.780191  1.546496
H    -2.766754  -0.357398  -0.500132
H    -4.192077  -0.488101  0.503698
N    -3.894954  0.596713  3.535747
C    -4.954309  1.423314  2.942572
H    -3.991895  0.368998  4.527861
H    -5.478931  0.889033  2.140723
H    -4.557909  2.377983  2.573248
H    -5.681859  1.645365  3.728248
H    -3.995596  -2.383310  -0.968131
Hg    -0.663683  -1.971931  2.833786
