26
Energy: -572025.302415 eV PBE+vdW (tier 2 basis)
C    -0.905811  0.807199  -0.584902
C    -0.494949  1.450941  0.698256
O    0.117585  2.571268  0.597883
H    -0.018721  0.635060  -1.209283
H    -1.547321  1.512193  -1.136339
H    -1.455741  -0.128476  -0.433242
N    -0.788828  0.836332  1.859200
C    -0.961255  1.412726  3.214799
C    0.273850  1.128984  4.109149
O    1.469053  1.394742  3.674531
H    -1.199389  -0.089743  1.745679
H    -1.007083  2.512117  3.104461
C    -2.355727  0.918313  3.688676
C    -2.862733  1.415236  5.039244
O    -3.988268  2.100009  4.928254
O    -2.305247  1.158207  6.100560
H    -2.351850  -0.182268  3.752097
H    -3.079779  1.204737  2.917141
N    0.135428  0.615999  5.302526
C    1.227523  0.371326  6.243956
H    -0.850358  0.528574  5.675714
H    1.553641  -0.675341  6.161055
H    0.844026  0.538410  7.255931
H    2.076544  1.027566  6.031408
H    -4.323161  2.345055  5.819202
Hg    1.588781  2.960780  2.178429
