26
Energy: -572024.828844 eV PBE+vdW (tier 2 basis)
C    0.219768  0.433512  0.011361
C    0.099106  0.145575  1.474799
O    0.934411  0.504194  2.312566
H    -0.529072  -0.091256  -0.592120
H    1.229450  0.174612  -0.329432
H    0.098652  1.517656  -0.130753
N    -1.012187  -0.546722  1.918013
C    -1.197023  -0.787041  3.340192
C    -0.250159  -1.933009  3.793396
O    -0.535345  -3.168414  3.678714
H    -1.597970  -1.030128  1.240007
H    -0.853291  0.126349  3.854758
C    -2.701348  -1.004933  3.611007
C    -3.051526  -1.042670  5.091595
O    -3.483239  0.036691  5.698248
O    -2.929313  -2.058135  5.800968
H    -3.053403  -1.943608  3.154892
H    -3.244609  -0.187817  3.116765
N    0.965033  -1.550598  4.177333
C    2.067241  -2.447615  4.487729
H    1.185059  -0.555087  4.059611
H    2.750956  -2.512517  3.626573
H    1.685725  -3.447418  4.711485
H    2.625820  -2.031573  5.335217
H    -3.613053  0.802303  5.103975
Hg    -2.203606  -4.101949  4.927307
