26
Energy: -572024.856544 eV PBE+vdW (tier 2 basis)
C    -0.997086  -1.147340  -0.220387
C    -0.497323  -0.315604  0.928366
O    0.172868  0.704803  0.768194
H    -1.915133  -0.681262  -0.608272
H    -1.215415  -2.179891  0.078257
H    -0.254643  -1.134834  -1.025223
N    -0.826445  -0.723098  2.206756
C    -0.500857  0.110280  3.353702
C    0.248860  -0.760532  4.378806
O    -0.308390  -1.279655  5.410511
H    -1.452523  -1.517039  2.320961
H    0.189865  0.874246  2.962491
C    -1.775233  0.828532  3.881048
C    -1.504489  2.006361  4.787144
O    -1.441991  3.152022  4.154859
O    -1.339381  1.959857  6.026715
H    -2.446173  0.122858  4.390685
H    -2.301340  1.213168  2.999012
N    1.509880  -1.104411  4.136667
C    2.316692  -0.884693  2.939700
H    1.909028  -1.728067  4.843642
H    2.182618  -1.718649  2.234051
H    3.369304  -0.856079  3.242864
H    2.053854  0.053459  2.441424
H    -1.270862  3.901143  4.770534
Hg    -1.270688  -0.100575  7.082495
