26
Energy: -572024.809621 eV PBE+vdW (tier 2 basis)
C    -0.232603  1.353563  -0.493885
C    0.141517  0.868470  0.855998
O    1.353644  0.916450  1.234516
H    0.447990  0.887779  -1.225080
H    -0.046511  2.435934  -0.564058
H    -1.265020  1.109319  -0.760967
N    -0.781903  0.334342  1.717816
C    -2.025188  0.963600  2.170191
C    -1.796958  2.452679  2.539221
O    -0.636118  2.908681  2.804959
H    -0.347993  -0.278377  2.408312
H    -2.779562  0.912454  1.372533
C    -2.574323  0.165529  3.376183
C    -1.689823  0.042445  4.620571
O    -2.216872  -0.540067  5.674321
O    -0.508986  0.409773  4.739035
H    -2.811404  -0.858285  3.039899
H    -3.533401  0.604334  3.688894
N    -2.821080  3.293226  2.565295
C    -4.220906  3.103935  2.172885
H    -2.568086  4.235943  2.872969
H    -4.860857  3.107772  3.065315
H    -4.365050  2.168340  1.626196
H    -4.521121  3.935114  1.524633
H    -3.139386  -0.842982  5.555315
Hg    1.090999  1.543031  3.427936
