26
Energy: -572025.167656 eV PBE+vdW (tier 2 basis)
C    0.779417  0.477895  0.020209
C    0.550158  0.046221  1.434857
O    1.524967  -0.595900  1.965721
H    0.846572  -0.424189  -0.608041
H    1.743598  0.995714  -0.055727
H    -0.025557  1.114584  -0.364598
N    -0.624601  0.357491  2.012323
C    -1.387665  -0.198082  3.171993
C    -1.015205  0.424736  4.540878
O    -0.050053  -0.025300  5.284011
H    -1.206199  0.935419  1.409433
H    -2.412939  0.137104  2.980345
C    -1.453407  -1.736099  3.193462
C    -2.473368  -2.161075  4.244947
O    -2.639125  -3.476442  4.271287
O    -3.035870  -1.342894  4.950926
H    -0.500121  -2.246700  3.410409
H    -1.757143  -2.102127  2.202174
N    -1.694760  1.445366  5.019881
C    -2.997382  1.960065  4.578957
H    -1.354987  1.784179  5.923993
H    -3.769754  1.191040  4.716853
H    -2.959233  2.289618  3.534304
H    -3.239332  2.825884  5.201418
H    -3.308413  -3.716435  4.947850
Hg    1.558401  -0.816076  4.109139
