26
Energy: -572025.164507 eV PBE+vdW (tier 2 basis)
C    0.407446  -0.733668  0.116227
C    0.349550  -0.843723  1.607345
O    1.456370  -1.119539  2.182573
H    0.920237  -1.610227  -0.298270
H    1.011649  0.149437  -0.143204
H    -0.586587  -0.627786  -0.334066
N    -0.832789  -0.638098  2.220400
C    -1.085702  -0.332813  3.638786
C    -1.335461  -1.607468  4.501324
O    -0.367604  -2.087452  5.220358
H    -1.604863  -0.451570  1.583140
H    -0.156710  0.084074  4.060679
C    -2.122808  0.797491  3.765038
C    -2.412789  1.031226  5.238482
O    -3.109943  2.137759  5.449326
O    -2.027172  0.245127  6.090248
H    -3.065571  0.580057  3.243121
H    -1.721088  1.712385  3.307138
N    -2.446356  -2.319293  4.481441
C    -3.767489  -1.995901  3.937989
H    -2.403511  -3.148700  5.079127
H    -4.334619  -2.929753  3.875338
H    -3.691266  -1.578459  2.929628
H    -4.306002  -1.306244  4.601602
H    -3.280955  2.250159  6.409253
Hg    1.543754  -1.723177  4.288972
