26
Energy: -572025.683849 eV PBE+vdW (tier 2 basis)
C    -0.960963  0.418949  0.253326
C    -0.645015  0.114999  1.685577
O    0.559412  0.187789  2.054388
H    -2.033007  0.400476  0.028588
H    -0.438225  -0.304981  -0.386818
H    -0.554916  1.409563  0.006646
N    -1.684878  -0.194855  2.497425
C    -1.730987  -0.434308  3.948852
C    -0.869461  0.561742  4.766513
O    0.266356  0.258759  5.264984
H    -2.590539  -0.217363  2.034957
H    -2.763967  -0.178030  4.219010
C    -1.604812  -1.924255  4.419795
C    -0.771929  -2.915084  3.632144
O    -1.459074  -3.976908  3.285874
O    0.442155  -2.833517  3.350052
H    -2.614759  -2.345336  4.470336
H    -1.213049  -1.940835  5.450633
N    -1.374469  1.753286  5.045300
C    -2.711372  2.289853  4.765816
H    -0.754631  2.339650  5.609976
H    -3.456692  1.868411  5.454448
H    -3.001571  2.106370  3.726047
H    -2.675012  3.372118  4.922438
H    -0.886627  -4.648553  2.849696
Hg    1.515033  -0.884943  3.816996
