26
Energy: -572025.179547 eV PBE+vdW (tier 2 basis)
C    1.600184  0.556455  1.005422
C    1.014872  0.395051  2.372531
O    1.591864  1.061476  3.296909
H    2.692591  0.607475  1.064679
H    1.240066  1.513908  0.595462
H    1.293591  -0.253005  0.331027
N    -0.052862  -0.414654  2.523627
C    -1.052853  -0.383837  3.603776
C    -0.782919  -1.407283  4.731040
O    -0.187646  -1.002790  5.806098
H    -0.343693  -0.880870  1.665704
H    -0.947596  0.605718  4.089229
C    -2.474536  -0.305423  3.042065
C    -2.752973  1.155885  2.641871
O    -3.894636  1.247805  1.970275
O    -2.004263  2.067852  2.933666
H    -3.210410  -0.585323  3.811179
H    -2.652720  -0.966425  2.183533
N    -1.154099  -2.669562  4.692097
C    -1.915490  -3.397362  3.669927
H    -0.914138  -3.200731  5.533918
H    -1.649215  -4.455932  3.754311
H    -1.652519  -3.056996  2.664869
H    -2.995004  -3.292377  3.837664
H    -4.079626  2.187152  1.755378
Hg    1.050488  0.748750  5.380338
