26
Energy: -572024.5215 eV PBE+vdW (tier 2 basis)
C    -0.221747  0.585118  0.178400
C    -0.365922  -0.382050  1.306356
O    0.508763  -1.235779  1.612490
H    0.609102  1.272088  0.397813
H    -1.124112  1.178862  0.000685
H    0.036693  0.028553  -0.732774
N    -1.498553  -0.351590  2.052995
C    -1.770688  -1.232528  3.195412
C    -3.273381  -1.068241  3.615416
O    -3.937533  -2.093133  3.703462
H    -2.270388  0.205173  1.688738
H    -1.703423  -2.278955  2.867076
C    -0.865853  -1.009011  4.440205
C    0.581754  -1.412985  4.200870
O    0.946859  -2.676399  4.171369
O    1.433421  -0.524034  4.016659
H    -1.268461  -1.613424  5.267808
H    -0.867650  0.042703  4.750696
N    -3.758725  0.175281  3.829509
C    -5.138717  0.406425  4.258650
H    -3.105636  0.951136  3.921739
H    -5.440694  1.408777  3.936651
H    -5.227962  0.342314  5.353638
H    -5.783375  -0.358318  3.811594
H    0.232713  -3.310225  4.384425
Hg    2.824120  -0.991675  2.191564
