26
Energy: -572024.942676 eV PBE+vdW (tier 2 basis)
C    -0.415969  0.719834  -0.558032
C    -0.299587  0.248687  0.850587
O    0.788280  -0.334054  1.179161
H    -1.449190  0.909904  -0.862897
H    0.002288  -0.066605  -1.203543
H    0.210205  1.609888  -0.716441
N    -1.321314  0.343525  1.738742
C    -2.265141  1.455074  2.036569
C    -2.173737  2.635387  1.073572
O    -1.136026  3.416168  1.077733
H    -1.197639  -0.258884  2.555386
H    -3.287788  1.062196  2.023000
C    -1.957823  1.964439  3.503500
C    -0.440706  1.828342  3.676806
O    0.332718  2.488489  2.940601
O    -0.066192  0.838507  4.408503
H    -2.482101  1.335608  4.229869
H    -2.280671  3.004478  3.641901
N    -3.157659  2.955146  0.269919
C    -4.426864  2.265372  0.002925
H    -3.010946  3.833882  -0.237581
H    -4.360660  1.201185  0.244015
H    -4.647361  2.366984  -1.065344
H    -5.235525  2.735823  0.576822
H    -0.455809  3.163423  1.817688
Hg    1.676011  0.176812  3.211900
