26
Energy: -572025.320479 eV PBE+vdW (tier 2 basis)
C    -1.439496  2.168219  0.278011
C    -0.715733  2.331640  1.581232
O    0.244847  3.184182  1.550557
H    -1.482750  3.130253  -0.245674
H    -2.449968  1.769101  0.425188
H    -0.857701  1.477928  -0.353020
N    -1.107897  1.572120  2.611773
C    -0.889340  1.757135  4.059687
C    0.443160  1.129095  4.573892
O    1.502853  1.846096  4.707092
H    -2.040906  1.130550  2.447069
H    -0.791176  2.837373  4.275392
C    -2.117857  1.245926  4.853380
C    -3.464266  1.577014  4.205582
O    -4.331065  2.063955  5.076981
O    -3.688733  1.350006  3.023907
H    -2.071391  1.631621  5.877787
H    -2.126884  0.146034  4.915910
N    0.492212  -0.138506  4.917309
C    1.686482  -0.833964  5.415642
H    -0.375666  -0.671155  4.901922
H    1.616450  -1.886480  5.124436
H    1.729639  -0.761592  6.510749
H    2.583321  -0.376919  4.988175
H    -5.206613  2.187946  4.648506
Hg    1.538479  3.481422  3.255514
