18
Energy: -31948.4306026 eV PBE+vdW (tier 2 basis)
N    0.550486  0.700281  0.775817
C    -0.524970  -0.172360  1.202267
C    -0.040624  -1.034456  2.370201
O    0.293367  -2.246069  2.295576
H    0.721461  1.490483  1.395292
H    -3.595230  -0.615223  -0.595284
H    -1.332916  0.461099  1.597691
C    -1.032693  -0.945436  -0.044085
C    -2.188022  -1.897149  0.159668
O    -1.988742  -3.063617  0.644377
N    -3.407702  -1.522035  -0.175553
H    -0.202580  -1.522915  -0.478762
H    -1.287230  -0.172410  -0.779742
H    1.425459  0.231589  0.544556
H    -4.194491  -2.160007  -0.061306
O    0.085034  -0.352984  3.482141
H    0.514360  -0.875836  4.193170
Ca    -0.472966  -4.154954  1.625975
