18
Energy: -31947.5474952 eV PBE+vdW (tier 2 basis)
N    0.007013  1.114067  1.765608
C    -0.455044  -0.233809  1.572000
C    0.786389  -1.097543  1.813370
O    1.844087  -1.027907  1.288715
H    -0.735724  1.792904  1.913641
H    -2.807875  -1.392333  -1.634555
H    -1.196677  -0.435023  2.360417
C    -1.093431  -0.568092  0.186687
C    -1.927681  -1.823894  0.158239
O    -1.863227  -2.673336  1.120765
N    -2.736884  -2.045272  -0.857072
H    -0.304109  -0.651742  -0.579174
H    -1.716114  0.287760  -0.114897
H    0.672896  1.442660  1.068171
H    -3.306343  -2.889059  -0.901663
O    0.592102  -2.113202  2.872729
H    1.507313  -2.374242  3.121022
Ca    -1.216692  -3.493935  2.916996
