18
Energy: -31947.5509525 eV PBE+vdW (tier 2 basis)
N    4.404248  1.611497  -0.461936
C    4.270439  1.688081  0.976569
C    4.925561  0.479209  1.616151
O    5.741903  -0.240673  1.149483
H    1.622441  1.211367  -0.884895
H    4.606679  2.525427  -0.867276
H    4.830473  2.531750  1.435535
C    2.775468  1.942600  1.360911
C    1.912784  0.748089  1.070126
O    1.726807  -0.125985  1.998177
N    1.407317  0.566700  -0.126781
H    2.453319  2.816522  0.781587
H    2.676906  2.207585  2.421414
H    5.146793  0.973656  -0.751033
H    0.852250  -0.260747  -0.343170
O    4.539663  0.256323  3.041504
H    5.376038  -0.084397  3.428385
Ca    2.575912  -0.763004  3.773249
