18
Energy: -31948.8082163 eV PBE+vdW (tier 2 basis)
N    0.752767  -1.817920  -2.920134
C    1.194712  -2.543912  -1.727465
C    2.747156  -2.479517  -1.774262
O    3.493089  -3.065549  -0.953014
H    0.067739  -1.087077  -2.731565
H    0.404233  -2.413667  -3.672323
H    0.902661  -1.965376  -0.836549
C    0.612646  -3.987444  -1.618196
C    0.579401  -4.604005  -0.230510
O    1.640274  -4.807595  0.440938
N    -0.593085  -4.956992  0.268207
H    1.176105  -4.676315  -2.267302
H    -0.409536  -3.951733  -2.014812
H    -1.463255  -4.827982  -0.240195
H    -0.645663  -5.411433  1.179052
O    3.213691  -1.747347  -2.714435
H    2.328673  -1.433542  -3.186971
Ca    3.727392  -4.443592  0.632535
