18
Energy: -31948.2701285 eV PBE+vdW (tier 2 basis)
N    -1.260841  -1.119058  1.288618
C    0.009447  -0.831060  2.034718
C    0.709125  0.352531  1.313950
O    0.106198  1.022822  0.508343
H    -1.002000  -1.634770  0.435095
H    -1.535477  -0.196471  0.898120
H    -0.262476  -0.432050  3.027879
C    0.898264  -2.065611  2.226231
C    0.312436  -3.112627  3.151529
O    -0.954130  -3.215606  3.300201
N    1.121444  -3.934049  3.788447
H    1.877363  -1.739519  2.601589
H    1.100488  -2.553014  1.255731
H    2.133059  -3.870057  3.702230
H    0.746124  -4.671310  4.384118
O    1.959645  0.525661  1.739061
H    2.347387  1.316846  1.306490
Ca    -2.763056  -2.385657  2.627650
