18
Energy: -31947.3983537 eV PBE+vdW (tier 2 basis)
N    3.875411  1.582577  -0.347267
C    4.270147  1.460507  1.094931
C    5.799260  1.286368  1.116866
O    6.409363  0.962513  0.123277
H    3.981963  2.544780  -0.688412
H    4.508516  0.989600  -0.912048
H    3.979840  2.387345  1.604996
C    3.582478  0.249905  1.769525
C    2.083961  0.132688  1.538115
O    1.412926  -0.572307  2.461205
N    1.569286  0.649399  0.486918
H    3.788968  0.312534  2.844914
H    4.044440  -0.689352  1.420395
H    2.833821  1.278113  -0.378151
H    0.562161  0.513228  0.369364
O    6.293954  1.501606  2.336851
H    7.265828  1.369722  2.317938
Ca    0.331677  -1.617227  3.728582
