18
Energy: -31947.2322169 eV PBE+vdW (tier 2 basis)
N    -0.135399  -0.823494  0.204320
C    -0.070259  -0.080856  1.468133
C    1.360926  0.371882  1.785012
O    2.199117  -0.334028  2.345506
H    0.733998  -1.318223  -0.000158
H    -0.309555  -0.197140  -0.581497
H    -0.683439  0.823041  1.368930
C    -0.712117  -0.910348  2.616561
C    -0.271564  -2.348725  2.694161
O    -1.174073  -3.295938  2.687602
N    0.995015  -2.635657  2.779311
H    -1.796341  -0.899301  2.462920
H    -0.512721  -0.438681  3.593030
H    1.672212  -1.814277  2.713438
H    1.324380  -3.596776  2.848341
O    1.611342  1.589655  1.327923
H    2.552230  1.818395  1.489324
Ca    -2.723265  -4.528200  2.456477
