18
Energy: -31947.315265 eV PBE+vdW (tier 2 basis)
N    -0.322419  0.476306  0.257917
C    0.014529  -0.277779  1.518163
C    1.479065  -0.126379  1.960564
O    1.980818  -0.868227  2.763815
H    -0.304285  1.492298  0.403925
H    -1.325274  0.107437  0.024338
H    -0.602058  0.183174  2.305221
C    -0.367014  -1.761703  1.389207
C    -1.804258  -2.002608  0.967306
O    -2.309464  -3.201442  1.288403
N    -2.424377  -1.089019  0.317372
H    -0.167142  -2.230202  2.360437
H    0.297097  -2.272063  0.671105
H    0.327885  0.265627  -0.508975
H    -3.384810  -1.309835  0.042477
O    2.059092  0.928924  1.356411
H    2.975686  1.025416  1.691588
Ca    -3.074069  -4.948925  1.765725
