18
Energy: -31947.1748148 eV PBE+vdW (tier 2 basis)
N    -0.030822  0.043927  -0.481612
C    -0.407270  0.275259  0.888621
C    0.719994  0.559034  1.907845
O    0.531310  0.637419  3.121486
H    0.183107  0.906498  -0.978495
H    0.768149  -0.581868  -0.580656
H    -1.032324  1.184117  0.913243
C    -1.303331  -0.930525  1.346860
C    -2.282878  -0.721247  2.466437
O    -3.462079  -1.294632  2.380015
N    -1.969724  0.003373  3.499854
H    -0.666271  -1.788540  1.623511
H    -1.860230  -1.233453  0.452460
H    -0.963943  0.380173  3.528781
H    -2.618343  0.143354  4.272156
O    1.902075  0.736468  1.342904
H    2.565379  0.949803  2.034266
Ca    -5.176278  -2.263370  2.079474
