18
Energy: -31949.345909 eV PBE+vdW (tier 2 basis)
N    -1.235220  -0.532084  0.682036
C    -0.159929  -0.060780  1.604441
C    1.119147  0.112359  0.777848
O    1.298612  -0.480543  -0.297226
H    -1.597348  0.275994  0.162673
H    -2.032798  -0.854856  1.239771
H    -0.402507  0.922864  2.035080
C    0.056253  -1.012151  2.804470
C    0.422480  -2.455351  2.477692
O    0.338107  -2.911215  1.298293
N    0.811803  -3.230395  3.475887
H    -0.868997  -1.024319  3.404287
H    0.821407  -0.576237  3.463320
H    0.889886  -2.892786  4.431596
H    1.030813  -4.210522  3.304198
O    1.983210  0.927652  1.323991
H    2.798274  1.012322  0.780020
Ca    -0.080193  -2.221951  -0.700378
