18
Energy: -31947.6430629 eV PBE+vdW (tier 2 basis)
N    0.025702  0.480320  0.224530
C    0.232917  0.005812  1.566325
C    1.658279  0.309903  2.070936
O    2.692463  0.208366  1.507464
H    0.682027  0.095226  -0.456034
H    0.020279  1.496140  0.143609
H    -0.487138  0.526902  2.216225
C    -0.051459  -1.513534  1.602482
C    -0.380318  -2.093056  2.953708
O    -0.210471  -1.413555  4.028925
N    -0.856287  -3.319430  3.020927
H    0.797721  -2.074595  1.177150
H    -0.898908  -1.682283  0.918777
H    -1.011050  -3.879140  2.185008
H    -1.086509  -3.744262  3.917591
O    1.678167  0.898829  3.454511
H    2.580883  1.281300  3.523997
Ca    0.446700  0.165056  5.206869
