18
Energy: -31948.87681 eV PBE+vdW (tier 2 basis)
N    0.721795  -1.897119  -3.120795
C    1.156553  -2.486626  -1.797592
C    2.725998  -2.368972  -1.882175
O    3.388721  -2.779574  -0.861775
H    1.698375  -1.646399  -3.531475
H    0.140487  -1.056294  -3.028460
H    0.793676  -1.823168  -1.001895
C    0.600045  -3.921878  -1.613645
C    0.556307  -4.442594  -0.178025
O    1.595147  -4.544582  0.534461
N    -0.618289  -4.832248  0.295645
H    1.202829  -4.638688  -2.194219
H    -0.418330  -3.962353  -2.023604
H    -1.474857  -4.786963  -0.247765
H    -0.677837  -5.237875  1.228719
O    3.178135  -1.886540  -2.917045
H    0.244391  -2.556528  -3.746339
Ca    3.672856  -3.985600  0.778986
