18
Energy: -31947.4043422 eV PBE+vdW (tier 2 basis)
N    -0.291796  0.461201  -0.076586
C    -0.006580  0.160664  1.366329
C    1.414118  -0.441483  1.362078
O    2.137976  -0.343211  0.397500
H    0.627323  0.574022  -0.547778
H    -0.878372  1.288600  -0.219648
H    0.065872  1.109723  1.917694
C    -1.099172  -0.705720  2.023624
C    -1.530023  -1.928046  1.232118
O    -2.116899  -2.902659  1.943242
N    -1.357820  -1.941347  -0.036093
H    -1.996030  -0.092570  2.209079
H    -0.731711  -1.011280  3.010488
H    -0.764125  -0.445621  -0.444014
H    -1.685096  -2.779526  -0.523228
O    1.721367  -1.006517  2.533724
H    2.662221  -1.281781  2.508454
Ca    -3.023250  -4.372449  2.882016
