18
Energy: -31948.2770631 eV PBE+vdW (tier 2 basis)
N    0.469359  -0.899082  -0.357289
C    0.041742  -0.253450  0.931847
C    1.346532  0.172402  1.655149
O    2.416079  -0.286766  1.318112
H    0.652263  -0.123741  -1.009310
H    1.440534  -1.216023  -0.137565
H    -0.556911  0.639134  0.706486
C    -0.748285  -1.182246  1.885238
C    -2.087965  -1.637020  1.360774
O    -2.163680  -2.207095  0.217862
N    -3.172378  -1.468904  2.088957
H    -0.864810  -0.659601  2.843095
H    -0.156495  -2.089528  2.097098
H    -3.145307  -1.026674  3.004330
H    -4.074508  -1.809886  1.757193
O    1.106638  1.029766  2.641562
H    1.947635  1.269683  3.087544
Ca    -0.914588  -2.535697  -1.426038
