35
Energy: -36757.5816925 eV PBE+vdW (tier 2 basis)
C    -1.849965  -1.762115  -0.032908
C    -0.867337  -0.827147  0.626523
O    0.272983  -1.140675  0.914372
H    -2.472807  -1.268903  -0.790447
H    -2.517906  -2.217256  0.714291
H    -1.285076  -2.570675  -0.506529
N    -1.289185  0.486597  0.923928
C    -2.647649  0.839672  1.316689
C    -2.945744  2.197536  0.666315
O    -3.548038  2.196628  -0.497661
H    -0.536111  0.988476  1.395041
H    -3.308530  0.157852  0.769086
C    -3.000368  0.690611  2.841586
C    -1.846226  0.532944  3.858913
C    -1.353015  -0.913141  4.080903
C    -0.260733  -0.952399  5.150219
N    0.269246  -2.362221  5.372028
H    -3.658180  -0.185481  2.923631
H    -3.632747  1.535581  3.147049
H    -2.211159  0.926757  4.818665
H    -0.985477  1.166216  3.595525
H    -0.955030  -1.335926  3.146962
H    -2.202987  -1.539656  4.395030
H    -0.622642  -0.607488  6.127025
H    0.611513  -0.347932  4.871101
H    1.000675  -2.374466  6.099169
H    0.686038  -2.752573  4.513700
H    -0.473209  -3.008180  5.678294
N    -2.600358  3.365859  1.163579
C    -1.896788  3.695112  2.411232
H    -2.849472  4.170922  0.588502
H    -1.034778  3.039600  2.559881
H    -2.574911  3.630701  3.270467
H    -1.535093  4.723858  2.325619
Ca    -4.417408  2.228178  -2.323751
