35
Energy: -36759.5827868 eV PBE+vdW (tier 2 basis)
C    0.554568  0.890443  0.170696
C    0.235511  0.418927  1.542606
O    1.158114  0.226487  2.397547
H    1.221892  0.133225  -0.275154
H    -0.318935  0.998477  -0.477615
H    1.136381  1.821886  0.192722
N    -1.045097  0.146733  1.914343
C    -2.143151  1.100547  1.747546
C    -1.827505  2.308423  2.692399
O    -0.855469  2.235993  3.517289
H    -1.094397  -0.373982  2.792502
H    -2.128236  1.474915  0.712668
C    -3.489638  0.372030  2.011096
C    -4.765675  1.047964  1.474948
C    -5.975044  0.086595  1.529297
C    -7.243913  0.730846  0.968789
N    -8.422687  -0.233100  0.987030
H    -3.593291  0.171282  3.089171
H    -3.379902  -0.605545  1.518640
H    -4.606482  1.364655  0.431520
H    -5.006486  1.950961  2.058044
H    -6.146819  -0.230453  2.570274
H    -5.736648  -0.820723  0.951592
H    -7.124652  1.038293  -0.077786
H    -7.561348  1.604460  1.551712
H    -8.648071  -0.550555  1.941667
H    -8.241497  -1.074265  0.418908
H    -9.272547  0.211526  0.606746
N    -2.564902  3.397732  2.600724
C    -2.383850  4.611892  3.410081
H    -3.283957  3.424630  1.882109
H    -3.282182  5.227755  3.315550
H    -1.520234  5.185638  3.050263
H    -2.238113  4.342709  4.460786
Ca    1.096277  1.490244  4.140404
