35
Energy: -36760.0064462 eV PBE+vdW (tier 2 basis)
C    0.508232  0.375345  0.300737
C    0.107964  0.168926  1.722171
O    0.950866  -0.273327  2.567079
H    1.382920  1.038965  0.257852
H    -0.287809  0.787285  -0.327952
H    0.829087  -0.591795  -0.114847
N    -1.152987  0.460605  2.077126
C    -1.872685  0.223383  3.353695
C    -1.250802  1.015289  4.526282
O    -0.131847  0.680917  5.032894
H    -1.735195  0.821170  1.324532
H    -2.865764  0.655092  3.166942
C    -2.073181  -1.282557  3.660981
C    -3.297735  -1.587019  4.548539
C    -3.458101  -3.102017  4.787242
C    -4.593807  -3.540086  5.715344
N    -5.961954  -3.597968  5.039824
H    -1.163216  -1.697888  4.118308
H    -2.189874  -1.790432  2.692791
H    -4.195959  -1.170405  4.062096
H    -3.204067  -1.077703  5.521040
H    -2.541655  -3.487988  5.258698
H    -3.531243  -3.640894  3.828069
H    -4.711671  -2.878980  6.583108
H    -4.417660  -4.556880  6.085427
H    -5.965189  -4.258392  4.248143
H    -6.272641  -2.683796  4.684102
H    -6.682030  -3.923207  5.703796
N    -1.940691  2.039051  4.998355
C    -1.529777  2.906064  6.108519
H    -2.813067  2.279719  4.532434
H    -2.422674  3.215613  6.660932
H    -1.025295  3.801005  5.720683
H    -0.856041  2.359020  6.772619
Ca    1.801417  -0.059451  4.478473
