35
Energy: -36758.3580555 eV PBE+vdW (tier 2 basis)
C    1.357478  -0.583448  0.805706
C    0.641241  0.351707  1.721549
O    1.282490  1.367847  2.224739
H    1.707789  -0.035618  -0.082059
H    0.730582  -1.414775  0.465181
H    2.241324  -1.000859  1.309839
N    -0.632363  0.132350  2.006413
C    -1.566266  0.949574  2.799594
C    -2.106886  0.246921  4.078236
O    -3.034120  0.807143  4.678145
H    -1.049154  -0.654547  1.506285
H    -0.991990  1.810596  3.167943
C    -2.712298  1.489915  1.909550
C    -3.690437  0.486983  1.265973
C    -4.812842  -0.130474  2.126412
C    -5.808582  0.883178  2.725284
N    -5.752122  0.906693  4.240150
H    -3.250100  2.219508  2.530399
H    -2.242847  2.077792  1.107908
H    -3.147611  -0.341489  0.780566
H    -4.163988  1.014886  0.425161
H    -4.401811  -0.768023  2.923265
H    -5.373224  -0.816518  1.478580
H    -5.607037  1.909965  2.396897
H    -6.843276  0.650771  2.452266
H    -4.751967  0.965999  4.556941
H    -6.282179  1.698726  4.627414
H    -6.158984  0.050885  4.639647
N    -1.527814  -0.885743  4.496276
C    -1.937189  -1.592449  5.716284
H    -0.771867  -1.289212  3.954788
H    -2.248432  -0.864136  6.471067
H    -1.087551  -2.168886  6.093736
H    -2.767669  -2.279960  5.510031
Ca    2.788268  2.702441  2.571236
