35
Energy: -36758.8294022 eV PBE+vdW (tier 2 basis)
C    -0.240866  -0.003840  -0.613034
C    -0.136105  0.202182  0.857167
O    1.062754  0.220578  1.398140
H    0.252571  -0.946902  -0.887111
H    0.291159  0.803941  -1.135926
H    -1.274099  -0.030594  -0.968281
N    -1.163725  0.371011  1.643501
C    -2.605281  0.517898  1.372940
C    -3.032073  1.395239  2.599173
O    -2.348971  1.290764  3.626416
H    -1.046158  0.558663  2.672031
H    -2.761433  1.045286  0.421856
C    -3.294610  -0.872052  1.379401
C    -4.824616  -0.871558  1.196673
C    -5.382461  -2.306514  1.284633
C    -6.898770  -2.451790  1.396356
N    -7.638998  -2.252044  0.075099
H    -3.048150  -1.358569  2.335638
H    -2.829935  -1.481067  0.588246
H    -5.082735  -0.402918  0.231558
H    -5.290267  -0.260937  1.984659
H    -4.991412  -2.779302  2.198778
H    -5.005093  -2.930072  0.457417
H    -7.339527  -1.735376  2.101044
H    -7.168550  -3.462473  1.724743
H    -8.654367  -2.382548  0.200942
H    -7.332761  -2.933982  -0.634155
H    -7.500732  -1.311059  -0.316864
N    -4.109698  2.174622  2.460035
C    -4.615038  3.043794  3.528364
H    -4.526117  2.267737  1.538961
H    -5.709299  3.006005  3.544012
H    -4.293258  4.080202  3.366355
H    -4.221302  2.690078  4.484669
Ca    2.936997  0.338871  2.101232
