35
Energy: -36758.1010561 eV PBE+vdW (tier 2 basis)
C    0.244306  -0.355273  0.306101
C    0.039403  0.194339  1.690304
O    0.955592  0.674278  2.374216
H    0.921435  0.300902  -0.252742
H    -0.683301  -0.497591  -0.259792
H    0.737032  -1.336511  0.381884
N    -1.239330  0.139531  2.186985
C    -1.588320  0.355373  3.594028
C    -1.777431  1.845292  3.913563
O    -2.266772  2.647914  3.016495
H    -1.913099  -0.388857  1.640331
H    -2.626258  -0.018201  3.665534
C    -0.786107  -0.502063  4.628017
C    0.514088  0.037919  5.278922
C    1.577403  -1.045922  5.554665
C    2.292520  -1.664071  4.356352
N    3.104216  -0.652449  3.564317
H    -0.582521  -1.439557  4.092688
H    -1.486582  -0.796553  5.423085
H    0.290172  0.467329  6.269715
H    0.944819  0.847783  4.678178
H    1.124210  -1.884128  6.105566
H    2.330363  -0.631334  6.242936
H    1.609038  -2.128398  3.634205
H    2.991248  -2.437125  4.696984
H    3.733253  -1.125262  2.901433
H    3.696601  -0.078803  4.179905
H    2.464540  -0.025942  3.015814
N    -1.560412  2.286056  5.128267
C    -1.835514  3.637492  5.625418
H    -1.148724  1.624523  5.786171
H    -1.558151  3.679925  6.682284
H    -2.905859  3.865847  5.541385
H    -1.237417  4.377640  5.078655
Ca    -3.115901  3.937784  1.708548
