35
Energy: -36758.1360182 eV PBE+vdW (tier 2 basis)
C    -0.074439  -1.197249  3.026188
C    -0.167790  0.263661  2.693019
O    0.527147  1.120548  3.230522
H    -0.652689  -1.418993  3.935923
H    0.972269  -1.425099  3.259913
H    -0.413937  -1.859694  2.222102
N    -1.067062  0.669105  1.685526
C    -2.428062  0.148273  1.575601
C    -2.761241  -0.164116  0.108121
O    -3.949620  -0.565260  -0.238184
H    -1.008473  1.682410  1.565060
H    -2.457148  -0.829316  2.085717
C    -3.469544  1.075056  2.262183
C    -3.165652  1.314586  3.762297
C    -2.280298  2.544798  4.070938
C    -1.532359  2.430950  5.411500
N    -0.124829  2.983649  5.295482
H    -4.458801  0.605683  2.171044
H    -3.528322  2.032444  1.720215
H    -2.703642  0.406075  4.180660
H    -4.119794  1.421800  4.294193
H    -2.893614  3.455638  4.058796
H    -1.531309  2.678266  3.279462
H    -1.406524  1.385953  5.719506
H    -2.029659  2.966326  6.227679
H    0.382019  2.457165  4.549666
H    -0.118351  3.984638  5.056143
H    0.395074  2.880720  6.178609
N    -1.805160  -0.043568  -0.775360
C    -1.884397  -0.315243  -2.210987
H    -0.906713  0.241073  -0.365852
H    -2.022921  -1.389613  -2.392505
H    -2.700044  0.261543  -2.664986
H    -0.943989  -0.005535  -2.675433
Ca    -5.715328  -1.265402  -0.951521
