35
Energy: -36759.2424019 eV PBE+vdW (tier 2 basis)
C    -0.241564  -0.015848  0.312322
C    -0.367305  -0.256990  1.774098
O    0.661046  -0.259355  2.521726
H    0.467323  -0.765939  -0.075307
H    0.218792  0.961071  0.108272
H    -1.181790  -0.110584  -0.237167
N    -1.577024  -0.513210  2.344052
C    -2.741877  0.349263  2.141951
C    -2.407626  1.715753  2.841900
O    -1.290649  1.864972  3.441443
H    -1.489250  -0.855440  3.303504
H    -2.839672  0.549786  1.064233
C    -4.031520  -0.338335  2.683848
C    -5.340774  -0.051492  1.911888
C    -5.568500  -0.912529  0.647374
C    -6.204153  -2.289552  0.865018
N    -7.724008  -2.228692  0.996125
H    -4.164266  -0.063937  3.739806
H    -3.835111  -1.420458  2.674660
H    -5.398104  1.006596  1.614589
H    -6.175798  -0.174857  2.618504
H    -4.612683  -1.097457  0.134366
H    -6.167764  -0.351477  -0.086346
H    -5.843087  -2.794797  1.769882
H    -6.017033  -2.949928  0.010260
H    -8.119597  -3.171110  1.139001
H    -8.160716  -1.846278  0.143546
H    -8.035182  -1.648336  1.787943
N    -3.287073  2.695406  2.794915
C    -3.104566  4.020728  3.407945
H    -4.153070  2.537972  2.286345
H    -4.034464  4.583451  3.292770
H    -2.293824  4.563076  2.906553
H    -2.876410  3.915164  4.474271
Ca    0.763525  1.353710  3.947858
