35
Energy: -36758.560762 eV PBE+vdW (tier 2 basis)
C    1.060881  0.007350  0.907258
C    0.242044  -0.872718  1.785704
O    0.614981  -2.105177  2.002088
H    2.077057  -0.384889  0.806196
H    1.110671  1.035895  1.284906
H    0.611021  0.048335  -0.099031
N    -0.875016  -0.438418  2.345633
C    -1.548153  0.864048  2.099938
C    -0.999948  2.061431  2.920211
O    -1.212710  3.196996  2.474793
H    -1.394029  -1.115666  2.909061
H    -1.361726  1.134147  1.052213
C    -3.072941  0.665944  2.287428
C    -3.927095  1.881045  1.864952
C    -4.336736  2.839003  3.005569
C    -4.634226  4.256698  2.524074
N    -3.343403  5.049731  2.318321
H    -3.286417  0.392412  3.333835
H    -3.358690  -0.196291  1.667712
H    -4.843144  1.502614  1.393324
H    -3.396454  2.424593  1.068617
H    -3.580239  2.878593  3.804345
H    -5.248203  2.461377  3.488572
H    -5.238286  4.820679  3.242639
H    -5.165640  4.256852  1.564944
H    -3.422851  5.723384  1.546269
H    -2.531964  4.412723  2.144479
H    -3.110129  5.588670  3.161568
N    -0.341932  1.817125  4.063080
C    0.175691  2.877892  4.933481
H    -0.267247  0.861558  4.393890
H    0.482911  3.728818  4.318466
H    1.040956  2.497851  5.484754
H    -0.587769  3.205838  5.651036
Ca    1.469046  -3.952268  1.965201
