35
Energy: -36758.6311005 eV PBE+vdW (tier 2 basis)
C    -0.960771  0.632742  0.490409
C    -0.165829  0.042892  1.603225
O    1.108299  0.347454  1.647562
H    -1.989733  0.276751  0.454727
H    -0.484314  0.412093  -0.470704
H    -0.975102  1.725803  0.631456
N    -0.687524  -0.532292  2.694267
C    -1.759845  -1.538195  2.651509
C    -1.297067  -2.546368  1.534342
O    -0.516203  -2.137865  0.664146
H    0.005664  -0.710078  3.420537
H    -1.721333  -2.029201  3.634432
C    -3.200820  -0.983696  2.461350
C    -4.278428  -1.933766  3.017096
C    -5.742822  -1.470314  2.846399
C    -6.182738  -0.388640  3.831926
N    -7.683997  -0.142460  3.734135
H    -3.404740  -0.799009  1.397727
H    -3.237611  -0.011730  2.974667
H    -4.083191  -2.144527  4.080962
H    -4.210807  -2.897747  2.494286
H    -6.380341  -2.356565  2.991295
H    -5.911204  -1.131011  1.811821
H    -5.707330  0.583270  3.653020
H    -5.996140  -0.681341  4.873006
H    -8.220820  -0.997342  3.945197
H    -7.962724  0.165348  2.790779
H    -7.993582  0.583178  4.397945
N    -1.790327  -3.786968  1.587210
C    -1.467007  -4.821813  0.598421
H    -2.319801  -4.070178  2.404853
H    -0.531477  -5.332862  0.859850
H    -1.360998  -4.360034  -0.387310
H    -2.280245  -5.553142  0.573555
Ca    3.022670  0.678852  1.143488
