35
Energy: -36757.9952371 eV PBE+vdW (tier 2 basis)
C    -0.835867  -0.106365  -0.339892
C    -0.766999  -0.269760  1.141904
O    0.241484  -0.914757  1.663508
H    0.058761  0.421600  -0.700823
H    -1.718940  0.453076  -0.667135
H    -0.859158  -1.094425  -0.822887
N    -1.724772  0.232045  1.896862
C    -1.902499  0.176446  3.358968
C    -3.334720  -0.358525  3.716776
O    -4.066837  0.327040  4.420336
H    -2.457641  0.719459  1.381075
H    -1.169771  -0.552519  3.732334
C    -1.608278  1.533421  4.045085
C    -2.186691  2.848692  3.473174
C    -3.703253  3.121350  3.536039
C    -4.335397  3.263806  4.921324
N    -4.190391  4.673499  5.493852
H    -1.906420  1.397540  5.093227
H    -0.514774  1.651880  4.053798
H    -1.875087  2.965836  2.422863
H    -1.642446  3.656657  3.989064
H    -4.263148  2.318975  3.042031
H    -3.916045  4.026173  2.943026
H    -5.414222  3.077440  4.881643
H    -3.908799  2.579726  5.662047
H    -4.651767  5.372441  4.893331
H    -4.626719  4.740131  6.425427
H    -3.207372  4.959186  5.597567
N    -3.702129  -1.574915  3.248637
C    -2.923515  -2.580484  2.541024
H    -4.640929  -1.842694  3.542030
H    -2.926475  -2.423511  1.451921
H    -3.365910  -3.562730  2.735950
H    -1.888508  -2.613231  2.909495
Ca    2.002532  -1.921611  1.789801
