35
Energy: -36757.9194131 eV PBE+vdW (tier 2 basis)
C    -1.003962  -2.713491  -0.520041
C    -0.732226  -1.782725  0.629200
O    0.405027  -1.554915  1.030226
H    -2.044595  -2.749990  -0.857172
H    -0.703175  -3.723810  -0.202442
H    -0.355415  -2.460465  -1.367597
N    -1.808792  -1.221470  1.334183
C    -3.061292  -0.693317  0.783885
C    -4.165453  -1.766885  0.760947
O    -5.327113  -1.519372  0.230747
H    -1.468824  -0.714433  2.150622
H    -3.429638  0.011733  1.551514
C    -2.929358  0.130410  -0.523051
C    -2.012570  1.374780  -0.412732
C    -0.497552  1.152926  -0.685150
C    0.400577  1.554323  0.490905
N    1.747756  0.861940  0.423349
H    -3.938014  0.482594  -0.782911
H    -2.605839  -0.510602  -1.355310
H    -2.159399  1.851191  0.569612
H    -2.384988  2.107672  -1.138047
H    -0.201177  1.729468  -1.571507
H    -0.312263  0.103396  -0.947510
H    -0.022276  1.258853  1.458117
H    0.585235  2.634647  0.517100
H    2.387648  1.207408  1.152774
H    2.215651  1.003478  -0.482628
H    1.601777  -0.158870  0.579944
N    -3.929368  -2.907858  1.355008
C    -4.857784  -4.026611  1.522792
H    -2.993019  -2.971588  1.768768
H    -4.315754  -4.863416  1.972137
H    -5.248167  -4.350027  0.549569
H    -5.679811  -3.747082  2.195594
Ca    -7.225126  -1.258924  -0.443916
