35
Energy: -36758.3200043 eV PBE+vdW (tier 2 basis)
C    -0.858810  -0.872298  0.281503
C    -0.589818  -0.743946  1.750048
O    0.434760  -1.160621  2.300866
H    -0.861994  -1.940403  0.020833
H    -1.805028  -0.424805  -0.041815
H    -0.035833  -0.418334  -0.286883
N    -1.576316  -0.124046  2.505467
C    -1.379431  0.126638  3.928585
C    -2.663283  -0.224936  4.691303
O    -2.850035  0.165037  5.917585
H    -2.228154  0.471124  1.996280
H    -0.651230  -0.648176  4.244099
C    -0.764509  1.501813  4.285536
C    0.762269  1.586365  4.047346
C    1.198143  1.952797  2.614808
C    2.646347  1.620307  2.261902
N    2.931894  0.116896  2.267913
H    -0.944148  1.680918  5.355232
H    -1.294851  2.301344  3.745753
H    1.202050  0.627645  4.363686
H    1.172143  2.341846  4.731741
H    1.095051  3.038300  2.470567
H    0.541110  1.503123  1.859137
H    3.365089  2.080798  2.950271
H    2.878137  1.974115  1.251253
H    3.302089  -0.196718  3.172994
H    3.641306  -0.124836  1.563802
H    2.065697  -0.449417  2.085101
N    -3.555031  -0.985957  4.103569
C    -4.791891  -1.501314  4.692829
H    -3.315434  -1.264805  3.148519
H    -5.313533  -2.097655  3.938948
H    -5.449779  -0.673948  4.989620
H    -4.569458  -2.149547  5.551084
Ca    -3.353962  0.661954  7.818544
