35
Energy: -36759.9553201 eV PBE+vdW (tier 2 basis)
C    0.011167  0.599543  0.167038
C    -0.252088  0.177162  1.572857
O    0.626723  -0.478148  2.218201
H    0.931138  1.199688  0.131758
H    -0.806883  1.169785  -0.284859
H    0.201217  -0.299001  -0.438646
N    -1.429883  0.509099  2.126734
C    -2.015099  0.127006  3.435867
C    -1.169355  0.650496  4.621275
O    -0.053475  0.118445  4.922359
H    -2.044710  1.053258  1.526116
H    -2.971078  0.668767  3.461231
C    -2.320777  -1.387407  3.538057
C    -3.244391  -1.768491  4.720053
C    -4.765708  -1.826947  4.433167
C    -5.202696  -3.166289  3.834078
N    -6.719863  -3.283426  3.750910
H    -1.374700  -1.938754  3.618329
H    -2.758741  -1.691882  2.576634
H    -3.089815  -1.068729  5.554444
H    -2.923248  -2.741908  5.116197
H    -5.076085  -0.998220  3.776128
H    -5.292074  -1.680140  5.388720
H    -4.875719  -4.009190  4.455928
H    -4.831542  -3.327190  2.814358
H    -7.158862  -3.207116  4.681210
H    -7.003135  -4.194358  3.357643
H    -7.137490  -2.553003  3.155712
N    -1.664284  1.653499  5.325365
C    -1.022338  2.276609  6.488894
H    -2.546933  2.058931  5.021470
H    -0.439845  3.152703  6.174342
H    -0.367553  1.551967  6.979390
H    -1.801126  2.601339  7.186137
Ca    1.692255  -0.730096  4.018902
