35
Energy: -36757.8241621 eV PBE+vdW (tier 2 basis)
C    0.225158  0.055045  -0.245514
C    0.345835  0.246123  1.239090
O    1.218365  -0.295811  1.916915
H    1.212361  -0.196681  -0.646652
H    -0.173438  0.927612  -0.776103
H    -0.436842  -0.798712  -0.460862
N    -0.568375  1.081078  1.890527
C    -1.985448  1.182719  1.527736
C    -2.493924  2.536759  2.042398
O    -1.938934  3.630119  1.611523
H    -0.397973  1.050862  2.896925
H    -2.040399  1.284009  0.431898
C    -2.830605  -0.063675  1.929792
C    -2.441658  -0.765911  3.254967
C    -1.425863  -1.920777  3.051322
C    -0.395429  -2.065328  4.178950
N    0.918140  -2.596620  3.637485
H    -2.730998  -0.783856  1.105529
H    -3.901961  0.190380  1.908166
H    -3.350231  -1.165150  3.722301
H    -2.043116  -0.037978  3.982000
H    -0.884474  -1.760253  2.110303
H    -1.970595  -2.865345  2.919566
H    -0.145738  -1.099409  4.634878
H    -0.723248  -2.742474  4.975831
H    1.613850  -2.722900  4.386335
H    0.805858  -3.508572  3.172815
H    1.297509  -1.911351  2.948088
N    -3.484086  2.600288  2.898759
C    -4.091015  3.818904  3.446865
H    -3.894346  1.711355  3.182634
H    -4.850164  3.527727  4.177909
H    -4.577554  4.393979  2.648486
H    -3.332817  4.429039  3.952624
Ca    -1.056976  5.306257  0.890123
