35
Energy: -36758.43527 eV PBE+vdW (tier 2 basis)
C    0.054862  0.329952  0.504138
C    0.253898  0.570951  1.960467
O    1.373376  0.207047  2.534566
H    0.919369  -0.179919  0.071571
H    -0.109154  1.275993  -0.034154
H    -0.841392  -0.282776  0.323886
N    -0.676097  1.154541  2.694824
C    -1.979134  1.643200  2.191288
C    -1.872745  2.955670  1.339629
O    -2.409594  2.930777  0.240118
H    -0.452481  1.312990  3.678521
H    -2.320521  0.912835  1.448075
C    -3.039381  1.713011  3.309616
C    -4.409838  2.140683  2.749302
C    -5.534082  2.122086  3.802228
C    -6.856093  2.559865  3.172893
N    -8.000187  2.550428  4.178500
H    -2.725953  2.410140  4.101830
H    -3.119084  0.715957  3.770372
H    -4.680964  1.477910  1.913240
H    -4.332510  3.150113  2.319056
H    -5.278261  2.794258  4.637294
H    -5.638637  1.108474  4.221805
H    -7.166352  1.893720  2.358161
H    -6.808773  3.583335  2.780461
H    -8.884491  2.847537  3.739045
H    -7.822183  3.188921  4.967404
H    -8.156025  1.611064  4.572279
N    -1.242660  4.048529  1.838809
C    -0.554078  4.245933  3.107131
H    -1.244925  4.831449  1.186949
H    -0.452819  5.322042  3.280433
H    0.460346  3.817631  3.107545
H    -1.122795  3.843545  3.954675
Ca    3.197429  -0.574627  2.919768
