35
Energy: -36758.3442887 eV PBE+vdW (tier 2 basis)
C    0.055274  -0.548215  0.427242
C    -0.380020  -0.579122  1.845862
O    0.543215  -0.600309  2.779971
H    0.794720  -1.344632  0.262631
H    0.556674  0.411543  0.227624
H    -0.770043  -0.699991  -0.276010
N    -1.639725  -0.582691  2.244524
C    -2.925432  -0.523183  1.474552
C    -3.052358  -1.776401  0.553339
O    -2.606454  -1.724866  -0.592149
H    -1.757616  -0.606469  3.257868
H    -3.686409  -0.561440  2.264201
C    -3.076424  0.799781  0.700927
C    -4.499552  1.143184  0.201238
C    -5.001169  0.354746  -1.028186
C    -5.960390  1.106756  -1.945687
N    -7.330155  1.380986  -1.324688
H    -2.391800  0.800063  -0.157526
H    -2.759523  1.608557  1.374798
H    -4.459062  2.212927  -0.058530
H    -5.211343  1.065453  1.039641
H    -5.440420  -0.613794  -0.742134
H    -4.147835  0.094306  -1.671725
H    -6.164228  0.532474  -2.857219
H    -5.566827  2.088535  -2.238701
H    -7.809900  0.507486  -1.064617
H    -7.941934  1.875888  -1.991137
H    -7.265529  1.966804  -0.481011
N    -3.662816  -2.865230  1.067947
C    -4.208521  -3.070303  2.409008
H    -3.705511  -3.650101  0.419757
H    -4.606517  -4.087956  2.461582
H    -5.036352  -2.383416  2.630551
H    -3.438418  -2.982601  3.188131
Ca    2.282270  -0.648559  3.805686
