35
Energy: -36758.8315159 eV PBE+vdW (tier 2 basis)
C    -0.385965  -1.773108  1.876916
C    -0.108066  -0.339381  2.167756
O    1.058419  -0.031434  2.694011
H    0.346379  -2.149762  1.147851
H    -1.391128  -1.946858  1.484869
H    -0.259862  -2.363660  2.795291
N    -0.950440  0.628245  1.926962
C    -2.192555  0.632785  1.133756
C    -2.178142  2.093248  0.576982
O    -1.454618  2.912301  1.169258
H    -0.691094  1.644404  2.056123
H    -2.096440  -0.095453  0.318636
C    -3.481658  0.317840  1.935454
C    -3.987153  1.416684  2.885815
C    -5.360922  1.056730  3.488619
C    -5.906817  2.184123  4.362512
N    -7.289693  1.853896  4.911707
H    -3.324140  -0.621838  2.486733
H    -4.259292  0.096932  1.189558
H    -4.074094  2.368158  2.339299
H    -3.260122  1.592246  3.693385
H    -5.280271  0.130874  4.080756
H    -6.070566  0.850962  2.670432
H    -6.022315  3.121700  3.804365
H    -5.273961  2.379680  5.237030
H    -7.652410  2.619682  5.499381
H    -7.278959  1.002309  5.491975
H    -7.973695  1.699984  4.156153
N    -2.944637  2.405341  -0.472379
C    -3.793593  1.541990  -1.292077
H    -2.883734  3.386428  -0.743642
H    -3.754740  1.893570  -2.328369
H    -4.839477  1.567960  -0.958011
H    -3.435329  0.507148  -1.282785
Ca    2.957962  0.277681  3.254117
