35
Energy: -36758.7756083 eV PBE+vdW (tier 2 basis)
C    -0.313165  -1.984764  1.133679
C    -0.172291  -0.635580  1.748223
O    1.003656  -0.296455  2.229558
H    -1.331597  -2.208031  0.806555
H    -0.001290  -2.750969  1.857357
H    0.359096  -2.065623  0.266730
N    -1.148720  0.229332  1.828757
C    -2.474459  0.222806  1.185150
C    -2.730946  1.752928  0.999234
O    -2.094920  2.529451  1.727340
H    -0.999406  1.202005  2.197613
H    -2.392668  -0.274571  0.209686
C    -3.591926  -0.468058  2.006727
C    -4.118569  0.276957  3.246601
C    -5.201849  -0.555875  3.958212
C    -5.783820  0.025480  5.245110
N    -6.810338  1.130226  5.003755
H    -3.236338  -1.469014  2.297124
H    -4.424181  -0.643670  1.308236
H    -4.512367  1.258683  2.935899
H    -3.296790  0.485070  3.949279
H    -4.775219  -1.527655  4.250216
H    -6.019947  -0.806717  3.262092
H    -5.017540  0.463173  5.897169
H    -6.319505  -0.743529  5.813964
H    -7.193720  1.477963  5.895705
H    -7.606282  0.786771  4.446335
H    -6.408776  1.938555  4.509863
N    -3.645172  2.105629  0.090778
C    -3.988959  3.497550  -0.216385
H    -4.045838  1.383799  -0.501707
H    -5.078094  3.612205  -0.246033
H    -3.574017  3.785933  -1.190099
H    -3.567899  4.142393  0.559142
Ca    2.924813  0.069207  2.682905
