35
Energy: -36759.4506294 eV PBE+vdW (tier 2 basis)
C    -1.619352  0.344548  -0.465376
C    -0.962808  0.250474  0.865035
O    0.145875  -0.354792  1.003310
H    -1.733142  -0.684395  -0.843759
H    -0.970814  0.855537  -1.191296
H    -2.603903  0.819061  -0.441101
N    -1.543181  0.791168  1.973688
C    -1.971868  2.193010  2.025593
C    -0.687940  3.068956  1.857509
O    0.462697  2.505242  1.907220
H    -1.072959  0.496981  2.832239
H    -2.627933  2.395029  1.165472
C    -2.733199  2.483738  3.339118
C    -4.152568  1.882428  3.405592
C    -4.873795  2.310196  4.700952
C    -6.381552  2.063637  4.773022
N    -6.769367  0.623073  5.098326
H    -2.804903  3.572471  3.465876
H    -2.122807  2.131372  4.186985
H    -4.095946  0.785577  3.321092
H    -4.731034  2.235543  2.536667
H    -4.770167  3.399935  4.819528
H    -4.378969  1.881767  5.587938
H    -6.894692  2.310454  3.834981
H    -6.829069  2.665576  5.572773
H    -7.794975  0.529751  5.164464
H    -6.382118  0.322913  6.005178
H    -6.451804  -0.046478  4.384648
N    -0.773110  4.366928  1.642190
C    -1.956754  5.216282  1.469762
H    0.127238  4.847161  1.577630
H    -1.757139  5.922141  0.655774
H    -2.152909  5.787494  2.386364
H    -2.834897  4.621458  1.204311
Ca    1.839187  0.872691  1.562933
