35
Energy: -36758.3427216 eV PBE+vdW (tier 2 basis)
C    0.589390  1.149739  1.061595
C    -0.137585  -0.147778  1.192668
O    0.372848  -1.219988  0.644903
H    1.597566  1.059393  1.491464
H    0.074339  1.976685  1.561271
H    0.697389  1.409473  -0.001943
N    -1.273740  -0.182785  1.848481
C    -2.217853  -1.281317  2.087038
C    -3.596444  -0.581723  2.202738
O    -3.634974  0.564100  2.698734
H    -1.650300  0.705692  2.210615
H    -2.196476  -1.951675  1.219401
C    -1.910491  -2.111012  3.375871
C    -1.332930  -1.408392  4.623170
C    -2.063505  -0.206092  5.250451
C    -3.515840  -0.455948  5.679918
N    -4.338372  0.802730  5.480911
H    -1.195949  -2.898617  3.099003
H    -2.837063  -2.648192  3.626776
H    -0.306908  -1.074858  4.407619
H    -1.216691  -2.197057  5.381318
H    -2.046497  0.638639  4.548302
H    -1.481196  0.115925  6.124633
H    -3.601277  -0.743831  6.733623
H    -4.016145  -1.225794  5.080725
H    -4.329425  1.036512  4.464042
H    -3.952674  1.599415  6.007093
H    -5.313295  0.681305  5.788646
N    -4.684933  -1.250338  1.811934
C    -4.774798  -2.562720  1.162269
H    -5.551051  -0.718205  1.890554
H    -4.451408  -2.514824  0.113775
H    -5.822631  -2.876775  1.176618
H    -4.197312  -3.321282  1.702815
Ca    1.680580  -2.311823  -0.469257
