35
Energy: -36758.0737579 eV PBE+vdW (tier 2 basis)
C    0.950062  -1.324696  0.549381
C    0.556387  -0.667379  1.831399
O    1.396237  -0.308066  2.698906
H    1.686841  -0.693877  0.033854
H    0.109070  -1.527359  -0.121942
H    1.455525  -2.275976  0.771305
N    -0.761767  -0.439724  2.055969
C    -1.334072  0.000806  3.337558
C    -1.106944  1.499010  3.589590
O    -2.116605  2.247794  3.941994
H    -1.419390  -0.720008  1.333460
H    -2.417092  -0.083878  3.191928
C    -0.965659  -0.947546  4.550435
C    -0.310845  -0.386018  5.829924
C    1.205587  -0.118608  5.916641
C    2.167056  -1.304410  6.012095
N    2.446663  -2.005065  4.681118
H    -0.379384  -1.770916  4.125855
H    -1.911878  -1.410687  4.856728
H    -0.571527  -1.086192  6.638201
H    -0.822325  0.547183  6.118169
H    1.367838  0.425039  6.859788
H    1.560368  0.562493  5.132648
H    1.820594  -2.074165  6.712257
H    3.140582  -0.948397  6.366666
H    3.426815  -2.313755  4.630403
H    2.249934  -1.373901  3.865716
H    1.871144  -2.847672  4.566741
N    0.088316  1.999260  3.434108
C    0.474640  3.401589  3.590572
H    0.806228  1.285799  3.171568
H    1.547740  3.487907  3.399707
H    0.270214  3.749518  4.611403
H    -0.055017  4.031022  2.863278
Ca    -3.683660  3.479089  4.329022
