35
Energy: -36758.4812648 eV PBE+vdW (tier 2 basis)
C    0.702546  -1.233243  0.787819
C    0.257581  -0.106549  1.659514
O    1.145002  0.727138  2.126696
H    1.442607  -1.849950  1.318613
H    1.186913  -0.833670  -0.115730
H    -0.121518  -1.882437  0.472425
N    -1.026645  0.023343  1.944680
C    -1.717323  1.069542  2.724452
C    -2.658555  0.455183  3.819737
O    -3.720150  1.028213  4.093568
H    -1.632264  -0.668276  1.500230
H    -0.936556  1.633662  3.253697
C    -2.507709  2.032700  1.818539
C    -3.686740  1.399371  1.052661
C    -4.843947  2.366975  0.731471
C    -5.517970  3.075295  1.906028
N    -6.035311  2.115535  2.960748
H    -1.812100  2.518343  1.119652
H    -2.858896  2.823504  2.494049
H    -4.083838  0.538946  1.613728
H    -3.338092  0.989343  0.093991
H    -5.602837  1.819476  0.152476
H    -4.493029  3.166591  0.061884
H    -6.374498  3.660711  1.551939
H    -4.846337  3.760454  2.437281
H    -6.567027  2.617906  3.684352
H    -5.231817  1.628616  3.430665
H    -6.667683  1.412095  2.556616
N    -2.247439  -0.655375  4.445185
C    -3.015719  -1.281626  5.529695
H    -1.339676  -1.048474  4.224775
H    -2.520595  -2.213651  5.814242
H    -4.033367  -1.503509  5.189994
H    -3.069211  -0.614447  6.398433
Ca    2.962693  1.607695  2.422838
