35
Energy: -36758.5247366 eV PBE+vdW (tier 2 basis)
C    -0.813518  1.262575  0.147285
C    -0.538164  0.935205  1.583023
O    0.618795  0.781621  2.016251
H    -0.432988  2.272375  -0.063102
H    -1.872600  1.218054  -0.128876
H    -0.234721  0.580894  -0.489047
N    -1.619695  0.820902  2.418885
C    -1.577263  0.371389  3.816556
C    -0.833333  1.366894  4.731959
O    -1.423044  1.835737  5.805015
H    -2.535068  1.030563  2.034037
H    -2.621031  0.376684  4.156403
C    -1.006644  -1.060385  4.034063
C    -1.737055  -2.202990  3.287117
C    -1.143017  -2.556049  1.910364
C    -1.781431  -3.748415  1.196712
N    -1.365901  -5.100048  1.773310
H    -1.067188  -1.252903  5.115337
H    0.062036  -1.070847  3.781782
H    -2.808216  -1.969547  3.178549
H    -1.693792  -3.082220  3.949179
H    -0.053524  -2.706417  1.986085
H    -1.267206  -1.712669  1.217445
H    -1.480394  -3.781733  0.143119
H    -2.877921  -3.728078  1.238786
H    -0.345822  -5.236532  1.718298
H    -1.803171  -5.872418  1.247794
H    -1.642365  -5.211346  2.758326
N    0.386282  1.699342  4.424693
C    1.240490  2.615866  5.171869
H    0.705623  1.288497  3.478106
H    2.215937  2.659612  4.679155
H    1.390453  2.257930  6.199854
H    0.816341  3.630352  5.178424
Ca    -2.075479  2.823462  7.432838
