35
Energy: -36758.1498148 eV PBE+vdW (tier 2 basis)
C    0.817230  -0.397447  0.518269
C    0.105889  0.169149  1.693792
O    0.768587  1.014298  2.449434
H    0.263116  -1.178430  -0.000460
H    1.781706  -0.805785  0.851685
H    1.035604  0.408518  -0.198697
N    -1.133289  -0.110080  2.052695
C    -2.290740  -0.860866  1.463229
C    -2.792687  -2.030153  2.358672
O    -4.020468  -2.118938  2.506035
H    -1.413524  0.374477  2.908673
H    -3.105031  -0.129394  1.564377
C    -2.237385  -1.246390  -0.028337
C    -3.645222  -1.592552  -0.576229
C    -4.027554  -3.090324  -0.562239
C    -5.535632  -3.330089  -0.509573
N    -6.072192  -3.210792  0.916874
H    -1.555354  -2.088350  -0.211771
H    -1.853885  -0.381992  -0.587727
H    -3.696573  -1.238434  -1.613837
H    -4.391345  -0.993795  -0.031455
H    -3.544474  -3.636124  0.262742
H    -3.656466  -3.568156  -1.479039
H    -5.805586  -4.330858  -0.862857
H    -6.083013  -2.601235  -1.119022
H    -7.025525  -2.827210  0.938986
H    -5.446439  -2.621389  1.515524
H    -6.113178  -4.133211  1.368267
N    -1.942924  -2.918593  2.904164
C    -0.501699  -3.078602  2.732781
H    -2.413171  -3.611662  3.485593
H    -0.239279  -4.106518  3.001943
H    0.070334  -2.407006  3.388069
H    -0.203358  -2.933747  1.688632
Ca    2.046889  2.361809  3.268688
