35
Energy: -36758.1383108 eV PBE+vdW (tier 2 basis)
C    -0.400130  0.429334  -0.326038
C    -0.240070  -0.023035  1.098796
O    0.801658  -0.543997  1.524941
H    -1.254843  1.094636  -0.492778
H    -0.531519  -0.453447  -0.970039
H    0.519008  0.932081  -0.648980
N    -1.338753  0.164151  1.903761
C    -1.596033  -0.278353  3.274968
C    -1.567446  0.887098  4.285771
O    -2.593805  1.009215  5.094314
H    -2.137079  0.586037  1.437965
H    -2.651179  -0.592549  3.284710
C    -0.784518  -1.473012  3.857453
C    -1.112894  -2.870359  3.282833
C    -0.387171  -3.335579  2.007266
C    1.126761  -3.540136  2.194876
N    1.904582  -3.028166  1.001351
H    -1.043939  -1.499495  4.927499
H    0.288018  -1.254930  3.814547
H    -2.196053  -2.950366  3.105311
H    -0.900739  -3.596964  4.081288
H    -0.574536  -2.632675  1.185302
H    -0.840914  -4.284813  1.693090
H    1.388661  -4.595268  2.330441
H    1.520909  -2.983462  3.052811
H    2.918451  -3.156655  1.123327
H    1.699382  -2.004571  0.901691
H    1.640283  -3.513500  0.133641
N    -0.587576  1.749453  4.400894
C    0.688770  1.841026  3.679431
H    -0.730472  2.477822  5.103131
H    1.463392  2.110473  4.406119
H    0.623325  2.634787  2.923634
H    0.945375  0.892325  3.203257
Ca    -4.167906  1.237526  6.354280
