35
Energy: -36759.9849474 eV PBE+vdW (tier 2 basis)
C    1.119951  -1.993832  3.144285
C    0.349407  -0.717751  3.107336
O    0.949916  0.398172  3.011324
H    1.736987  -2.059219  2.236152
H    0.490290  -2.886447  3.219928
H    1.818442  -1.976776  3.992712
N    -0.993256  -0.770707  3.167124
C    -1.921529  0.372736  3.065855
C    -1.874948  1.200302  4.382326
O    -0.890568  1.990603  4.559137
H    -1.405695  -1.688059  3.319943
H    -1.510135  1.052390  2.303468
C    -3.332992  -0.068222  2.625849
C    -3.542243  -0.408321  1.127609
C    -3.198409  -1.842685  0.687330
C    -3.486149  -2.164686  -0.782929
N    -4.968888  -2.330235  -1.104851
H    -4.000682  0.776301  2.846780
H    -3.683727  -0.907336  3.251835
H    -2.988584  0.313805  0.507280
H    -4.606738  -0.207470  0.930018
H    -3.704501  -2.580653  1.332074
H    -2.121138  -2.033452  0.805246
H    -3.021053  -3.114401  -1.071829
H    -3.117394  -1.384002  -1.460319
H    -5.098231  -2.571689  -2.099966
H    -5.513458  -1.473456  -0.933378
H    -5.398523  -3.088872  -0.554695
N    -2.830662  1.072374  5.280119
C    -2.911269  1.790137  6.558813
H    -3.588972  0.424556  5.077762
H    -2.236463  2.648327  6.539463
H    -2.636610  1.117037  7.381229
H    -3.941296  2.132501  6.706044
Ca    1.125656  2.314058  3.929591
