35
Energy: -36760.0498622 eV PBE+vdW (tier 2 basis)
C    0.054561  1.607640  2.395605
C    -0.436509  0.254150  2.006708
O    0.267022  -0.487014  1.248791
H    1.045359  1.518277  2.862114
H    -0.616248  2.144136  3.074425
H    0.191978  2.204571  1.481491
N    -1.627369  -0.148337  2.477776
C    -2.442179  -1.346131  2.156931
C    -1.725417  -2.657821  2.534212
O    -0.734778  -3.085238  1.852186
H    -2.094316  0.525948  3.079942
H    -3.306361  -1.248237  2.824413
C    -2.988264  -1.336087  0.705991
C    -4.239883  -2.216783  0.520602
C    -4.929241  -1.988394  -0.842272
C    -6.220942  -2.799973  -0.959250
N    -6.944614  -2.537704  -2.273526
H    -2.199584  -1.623116  -0.004086
H    -3.242551  -0.289644  0.482929
H    -4.959576  -1.985573  1.322514
H    -3.981622  -3.282045  0.629006
H    -4.242702  -2.259112  -1.660132
H    -5.157202  -0.916249  -0.955237
H    -6.938601  -2.547126  -0.168616
H    -6.038877  -3.881411  -0.926215
H    -7.814540  -3.089270  -2.334608
H    -6.368650  -2.789704  -3.090359
H    -7.207640  -1.546196  -2.377434
N    -2.162537  -3.364806  3.562418
C    -3.251179  -3.070646  4.508501
H    -1.651692  -4.235630  3.720602
H    -3.218107  -3.826883  5.297960
H    -4.230119  -3.131374  4.017965
H    -3.115913  -2.088718  4.975931
Ca    1.047293  -2.406502  0.885720
