35
Energy: -36758.3010836 eV PBE+vdW (tier 2 basis)
C    -0.126006  -1.015998  1.287183
C    -0.624129  -0.538110  2.600378
O    0.246079  -0.356519  3.568048
H    0.541570  -0.253587  0.857491
H    0.472257  -1.925321  1.442668
H    -0.934875  -1.265379  0.593920
N    -1.888894  -0.273785  2.874624
C    -3.136184  -0.347516  2.047759
C    -3.398342  -1.819712  1.605968
O    -2.840052  -2.244173  0.592248
H    -2.047382  0.043928  3.831350
H    -3.911343  -0.023854  2.752781
C    -3.144339  0.628325  0.853944
C    -4.557580  0.823095  0.246233
C    -4.966685  -0.159488  -0.876962
C    -4.611776  0.261551  -2.300957
N    -5.591232  1.289016  -2.867744
H    -2.440020  0.282721  0.085198
H    -2.781003  1.598263  1.220440
H    -4.616239  1.862704  -0.113079
H    -5.306724  0.774108  1.049958
H    -6.047326  -0.364848  -0.823141
H    -4.483719  -1.134553  -0.725355
H    -4.654770  -0.588624  -2.991650
H    -3.616669  0.717464  -2.379669
H    -5.331283  1.567363  -3.825678
H    -5.632035  2.147028  -2.300186
H    -6.546783  0.904984  -2.911764
N    -4.245969  -2.553280  2.353229
C    -4.981266  -2.177657  3.561843
H    -4.380201  -3.500182  2.001208
H    -5.540315  -3.053825  3.903129
H    -5.708652  -1.377184  3.372144
H    -4.309035  -1.883029  4.379016
Ca    1.884010  -0.279557  4.745134
