35
Energy: -36760.2011123 eV PBE+vdW (tier 2 basis)
C    0.007587  -0.744753  0.145392
C    -0.184914  -0.218883  1.526104
O    0.806839  0.189357  2.209775
H    0.732995  -1.569730  0.161184
H    0.453163  0.050515  -0.471063
H    -0.918444  -1.087672  -0.327579
N    -1.427714  -0.173337  2.035585
C    -1.825106  0.431151  3.322167
C    -1.391850  -0.494302  4.489447
O    -0.171411  -0.468346  4.854520
H    -2.169508  -0.561458  1.456763
H    -1.213536  1.338095  3.450835
C    -3.313519  0.843035  3.291330
C    -3.592587  2.008607  2.318586
C    -5.078044  2.381707  2.105196
C    -5.709598  3.173765  3.251447
N    -7.098251  3.673747  2.871855
H    -3.597934  1.125937  4.315543
H    -3.937544  -0.025408  3.015180
H    -3.193169  1.758379  1.325460
H    -3.033059  2.899145  2.645349
H    -5.669562  1.474565  1.902246
H    -5.123870  2.992534  1.190166
H    -5.127593  4.070637  3.498990
H    -5.844641  2.583951  4.166246
H    -7.527896  4.212970  3.639170
H    -7.740966  2.899694  2.646417
H    -7.067210  4.292593  2.047119
N    -2.272215  -1.285963  5.068996
C    -1.992373  -2.218742  6.168052
H    -3.227946  -1.265846  4.721061
H    -2.824120  -2.185298  6.879435
H    -1.067393  -1.925194  6.669139
H    -1.896422  -3.239922  5.776834
Ca    1.774909  0.010010  4.090452
