35
Energy: -36759.4317987 eV PBE+vdW (tier 2 basis)
C    0.725622  -1.517680  2.172958
C    0.696042  -0.043660  2.354770
O    1.755693  0.650243  2.238433
H    -0.243728  -2.004153  2.312456
H    1.418528  -1.912809  2.935727
H    1.161882  -1.795694  1.204078
N    -0.457747  0.600580  2.691582
C    -1.678338  0.451455  1.896832
C    -1.498554  1.365959  0.636801
O    -0.351657  1.862955  0.374371
H    -0.281832  1.558908  2.996865
H    -1.681740  -0.575510  1.498360
C    -2.972970  0.607937  2.731610
C    -3.200332  1.966885  3.418224
C    -4.228553  1.952939  4.575053
C    -5.683719  1.751774  4.149975
N    -6.621429  1.875644  5.344829
H    -2.920968  -0.188413  3.489171
H    -3.829461  0.339767  2.093087
H    -3.479800  2.734864  2.680212
H    -2.262124  2.314180  3.876226
H    -4.142184  2.917920  5.098207
H    -3.942443  1.175767  5.301882
H    -5.876856  0.759702  3.723675
H    -6.013817  2.512110  3.430639
H    -7.606438  1.745753  5.067169
H    -6.551539  2.803158  5.790696
H    -6.415212  1.173188  6.071125
N    -2.526366  1.558889  -0.164283
C    -2.482046  2.308688  -1.428880
H    -3.404204  1.103870  0.073490
H    -1.932149  1.740361  -2.189588
H    -2.000375  3.279438  -1.272750
H    -3.507557  2.465092  -1.773494
Ca    1.798895  2.082302  0.629309
