35
Energy: -36758.7970217 eV PBE+vdW (tier 2 basis)
C    -0.676409  -1.317605  1.876155
C    0.014094  -0.013932  1.676407
O    1.325411  0.014556  1.784110
H    -1.764191  -1.243375  1.800999
H    -0.417114  -1.722281  2.864627
H    -0.320328  -2.041328  1.128512
N    -0.603533  1.101408  1.395802
C    -1.988015  1.351458  0.960714
C    -1.775619  2.587543  0.018098
O    -0.704291  3.206299  0.125667
H    -0.071602  1.983165  1.151456
H    -2.346981  0.490263  0.381061
C    -2.997052  1.650686  2.099522
C    -2.734143  2.937341  2.904212
C    -3.973442  3.547656  3.594618
C    -4.535889  2.728310  4.754024
N    -5.681140  3.469650  5.435283
H    -3.047745  0.769859  2.757746
H    -3.981946  1.713685  1.610647
H    -2.349866  3.718614  2.233431
H    -1.940463  2.769606  3.648020
H    -4.761263  3.713593  2.841678
H    -3.683954  4.542177  3.969070
H    -3.787239  2.549490  5.536204
H    -4.950840  1.762570  4.440286
H    -6.457449  3.655270  4.782961
H    -5.373482  4.380984  5.806840
H    -6.067419  2.931594  6.225319
N    -2.773746  2.904399  -0.807833
C    -2.724628  4.030293  -1.747121
H    -3.573966  2.281368  -0.868338
H    -1.882318  4.673458  -1.480640
H    -3.658371  4.599782  -1.686705
H    -2.592404  3.664287  -2.772733
Ca    3.324816  -0.130071  1.736090
