35
Energy: -36760.1034743 eV PBE+vdW (tier 2 basis)
C    0.534304  -0.639006  0.042912
C    0.073382  -0.697441  1.457877
O    0.211728  -1.760608  2.143888
H    0.319474  0.314629  -0.450173
H    0.075847  -1.456591  -0.529961
H    1.620785  -0.814733  0.024197
N    -0.482159  0.395801  2.005104
C    -0.847096  0.583633  3.425709
C    -2.119020  -0.243704  3.746035
O    -1.986829  -1.483669  4.005526
H    -0.579992  1.206288  1.396370
H    -0.051021  0.120338  4.029417
C    -0.889067  2.097361  3.722166
C    -0.948031  2.504518  5.208479
C    -1.052932  4.038465  5.346655
C    -1.211063  4.602530  6.761040
N    0.107448  4.783518  7.509129
H    -1.722193  2.569576  3.171779
H    0.023457  2.524307  3.277835
H    -0.050574  2.119138  5.719176
H    -1.813492  2.039019  5.705685
H    -1.945280  4.382241  4.801740
H    -0.208104  4.533138  4.839300
H    -1.840887  3.973630  7.402643
H    -1.656036  5.603857  6.727272
H    -0.057090  5.187806  8.444324
H    0.737908  5.429625  7.011005
H    0.614509  3.899142  7.648266
N    -3.303780  0.335315  3.723189
C    -4.586655  -0.339561  3.958439
H    -3.341257  1.322458  3.480357
H    -5.024499  -0.662242  3.004640
H    -5.270740  0.364138  4.442627
H    -4.430885  -1.206275  4.605636
Ca    -0.724159  -3.134642  3.448718
