35
Energy: -36758.3333671 eV PBE+vdW (tier 2 basis)
C    -0.109980  -1.434677  4.398357
C    0.196741  -1.051244  2.995161
O    1.426319  -1.150120  2.554529
H    -0.932489  -0.852728  4.831029
H    0.779234  -1.339158  5.029003
H    -0.440381  -2.486958  4.421254
N    -0.741134  -0.639069  2.160724
C    -2.178600  -0.468785  2.480578
C    -2.909003  -1.818587  2.799748
O    -3.440525  -1.899764  3.900215
H    -0.443173  -0.437203  1.204775
H    -2.224897  0.051055  3.445434
C    -2.885462  0.408153  1.430672
C    -4.389172  0.569927  1.735941
C    -5.072991  1.559319  0.776265
C    -6.599162  1.586221  0.817271
N    -7.168845  2.217715  2.085826
H    -2.764481  -0.016057  0.422311
H    -2.399693  1.396486  1.423077
H    -4.504629  0.891491  2.784133
H    -4.882824  -0.411741  1.662310
H    -4.827520  1.292064  -0.263406
H    -4.675867  2.578470  0.912717
H    -7.037122  0.581624  0.760838
H    -7.001469  2.182740  -0.009979
H    -8.199259  2.240953  2.051536
H    -6.847756  3.189981  2.201128
H    -6.906340  1.698179  2.934641
N    -2.919791  -2.826232  1.890670
C    -2.525679  -2.833604  0.486286
H    -3.447377  -3.634294  2.218661
H    -2.449249  -3.874605  0.156340
H    -1.539367  -2.377904  0.334045
H    -3.257684  -2.330340  -0.161414
Ca    3.424499  -1.419372  2.397609
