35
Energy: -36757.6341761 eV PBE+vdW (tier 2 basis)
C    -0.531645  -0.125015  -0.526828
C    -0.235665  -0.286166  0.935190
O    0.852838  -0.684657  1.354375
H    0.412043  0.075176  -1.046141
H    -1.237284  0.686359  -0.739950
H    -0.928830  -1.063962  -0.943029
N    -1.214462  0.059902  1.871531
C    -2.618380  -0.283960  1.702040
C    -3.593308  0.709415  2.341781
O    -4.744216  0.879654  1.737798
H    -0.844957  -0.108633  2.803306
H    -2.839870  -0.182908  0.630101
C    -2.940950  -1.772635  2.072637
C    -2.470688  -2.352172  3.425409
C    -0.962085  -2.568582  3.701213
C    -0.217091  -3.444298  2.683202
N    1.255664  -3.098531  2.657606
H    -2.533030  -2.367734  1.242244
H    -4.030496  -1.916906  2.011962
H    -2.971237  -3.327657  3.517761
H    -2.878817  -1.758707  4.258245
H    -0.881307  -3.031994  4.694910
H    -0.430344  -1.610121  3.795263
H    -0.310357  -4.511574  2.914082
H    -0.562590  -3.291413  1.654168
H    1.784163  -3.733507  2.043043
H    1.686853  -3.153122  3.590598
H    1.355211  -2.120801  2.281505
N    -3.377477  1.397187  3.439413
C    -2.221267  1.426604  4.353841
H    -4.133430  2.032632  3.698624
H    -2.538681  1.942857  5.264537
H    -1.389718  1.980589  3.902835
H    -1.917474  0.412453  4.630307
Ca    -6.504224  1.259852  0.790236
