35
Energy: -36759.2742271 eV PBE+vdW (tier 2 basis)
C    -0.306288  0.519082  0.911999
C    -0.629599  0.253663  2.340534
O    0.177233  0.607955  3.257583
H    0.772600  0.635083  0.772172
H    -0.773675  1.482422  0.643279
H    -0.702507  -0.230837  0.219739
N    -1.799006  -0.337881  2.709785
C    -2.295074  -1.592204  2.120176
C    -1.126468  -2.630664  2.197970
O    -0.090825  -2.370731  2.897457
H    -1.962547  -0.263829  3.714175
H    -3.031911  -1.958595  2.852887
C    -3.030922  -1.447047  0.752502
C    -4.478327  -1.988434  0.738522
C    -5.133244  -1.801113  -0.644547
C    -6.515292  -2.425280  -0.850685
N    -7.665690  -1.600526  -0.278172
H    -2.448280  -1.920222  -0.052511
H    -3.057445  -0.376416  0.512488
H    -5.054248  -1.471627  1.523893
H    -4.492520  -3.059350  1.002044
H    -4.495550  -2.272119  -1.408529
H    -5.159804  -0.733728  -0.919671
H    -6.602791  -3.421330  -0.398616
H    -6.737368  -2.518292  -1.920289
H    -8.571068  -2.055643  -0.473879
H    -7.705214  -0.661428  -0.701680
H    -7.604183  -1.480747  0.742024
N    -1.255938  -3.788386  1.582893
C    -0.279324  -4.887123  1.645827
H    -2.097054  -3.947454  1.035192
H    -0.680461  -5.736441  1.087151
H    -0.113817  -5.186266  2.687144
H    0.670246  -4.576796  1.194177
Ca    1.228594  -1.088319  4.067221
