35
Energy: -36758.5375405 eV PBE+vdW (tier 2 basis)
C    -0.153630  0.718520  -0.787267
C    0.040286  -0.303739  0.285017
O    1.098635  -1.071951  0.179488
H    -1.113718  1.232609  -0.723853
H    -0.075499  0.254747  -1.775674
H    0.647420  1.467771  -0.683523
N    -0.517066  -0.201798  1.517842
C    -1.982091  -0.174752  1.653792
C    -2.481414  -1.171261  0.555265
O    -1.668803  -1.476457  -0.346031
H    -0.069808  -0.821577  2.192155
H    -2.188773  -0.602510  2.645672
C    -2.665014  1.212968  1.615444
C    -2.200137  2.127164  2.764634
C    -3.136756  3.303557  3.116713
C    -3.165722  4.434981  2.091517
N    -3.991179  5.609342  2.606060
H    -2.523651  1.689570  0.636237
H    -3.746110  1.032995  1.705814
H    -1.185628  2.503367  2.564584
H    -2.115826  1.525047  3.681652
H    -2.795640  3.710252  4.081917
H    -4.158302  2.924109  3.281542
H    -2.164494  4.837704  1.892338
H    -3.622101  4.144187  1.137399
H    -4.018982  6.383340  1.925581
H    -4.966237  5.336184  2.799174
H    -3.603378  5.987466  3.483604
N    -3.712518  -1.674923  0.605353
C    -4.748817  -1.503123  1.624312
H    -3.943360  -2.288125  -0.175993
H    -4.310718  -1.245937  2.594091
H    -5.281344  -2.452945  1.741775
H    -5.474911  -0.734503  1.328525
Ca    2.435321  -2.377999  -0.541315
