35
Energy: -36758.1904774 eV PBE+vdW (tier 2 basis)
C    0.432292  -1.157630  0.487037
C    -0.184027  0.002593  1.194731
O    0.343975  1.187525  1.056982
H    0.427311  -0.979348  -0.598372
H    -0.088141  -2.102103  0.679637
H    1.479736  -1.272691  0.802756
N    -1.247444  -0.189565  1.950998
C    -2.032276  0.791486  2.729435
C    -2.409735  0.193155  4.123448
O    -3.597110  0.120293  4.455183
H    -1.588591  -1.150673  1.968510
H    -1.363022  1.644079  2.915088
C    -3.255388  1.316388  1.939478
C    -4.176472  0.333443  1.185706
C    -5.136576  -0.573657  1.978214
C    -6.206852  0.191903  2.777589
N    -6.340655  -0.359974  4.181535
H    -2.860807  2.018241  1.189796
H    -3.825300  1.934518  2.646711
H    -3.578809  -0.308625  0.519467
H    -4.774709  0.948929  0.497115
H    -4.570471  -1.227158  2.655610
H    -5.634871  -1.239797  1.261691
H    -7.196060  0.135920  2.310434
H    -5.955404  1.250354  2.907965
H    -5.408439  -0.297270  4.639014
H    -7.024647  0.171122  4.737855
H    -6.646047  -1.342472  4.180850
N    -1.414010  -0.197519  4.941601
C    0.031524  -0.075343  4.784299
H    -1.745714  -0.564006  5.833538
H    0.484431  -0.024531  5.779667
H    0.294306  0.851628  4.258918
H    0.464638  -0.938825  4.259952
Ca    1.572237  2.651065  0.341534
