35
Energy: -36757.5695623 eV PBE+vdW (tier 2 basis)
C    -0.041919  0.560479  0.483124
C    -0.100830  0.106067  1.910291
O    0.872395  -0.377063  2.493499
H    0.893194  1.121118  0.350768
H    -0.880014  1.191350  0.168934
H    0.025619  -0.306200  -0.190603
N    -1.288531  0.273607  2.630640
C    -2.566858  -0.173713  2.084669
C    -3.730775  0.502736  2.820279
O    -4.805012  -0.176897  3.131490
H    -1.137571  -0.000638  3.602117
H    -2.646247  0.225165  1.056171
C    -2.607764  -1.724630  1.967129
C    -2.102075  -2.520759  3.192741
C    -1.314291  -3.806543  2.858588
C    0.061868  -3.675630  2.199561
N    1.121602  -3.032775  3.077030
H    -1.972679  -1.944968  1.096628
H    -3.608564  -2.063470  1.663476
H    -2.950245  -2.815952  3.826600
H    -1.480269  -1.888842  3.843539
H    -1.905745  -4.438346  2.178405
H    -1.210713  -4.402788  3.778494
H    0.431232  -4.675188  1.942301
H    0.046946  -3.085000  1.274765
H    1.106348  -3.400837  4.037272
H    1.021052  -1.981527  3.089990
H    2.060963  -3.224755  2.700777
N    -3.703834  1.784841  3.110583
C    -2.716404  2.824322  2.762802
H    -4.516512  2.130221  3.622613
H    -2.304804  2.651382  1.765890
H    -1.906595  2.847808  3.500883
H    -3.242861  3.784169  2.773505
Ca    -6.646164  -0.980623  3.445273
