35
Energy: -36759.4784536 eV PBE+vdW (tier 2 basis)
C    -2.072341  1.588382  0.981758
C    -1.160738  0.869290  1.908020
O    -0.566019  1.485909  2.848122
H    -2.514340  0.953412  0.209430
H    -1.467371  2.365132  0.483451
H    -2.854743  2.129743  1.530663
N    -0.909816  -0.461012  1.758046
C    -1.973525  -1.464955  1.677159
C    -2.715334  -1.436928  3.056545
O    -2.213420  -0.786051  4.034649
H    -0.112793  -0.769776  2.318478
H    -2.694238  -1.154936  0.905377
C    -1.348451  -2.829860  1.272883
C    -2.338571  -3.929525  0.850050
C    -1.689823  -5.243292  0.348349
C    -1.131550  -5.173261  -1.074577
N    -0.680698  -6.547318  -1.554428
H    -0.716972  -3.197013  2.098022
H    -0.671274  -2.588270  0.440417
H    -3.023827  -3.546316  0.076246
H    -2.962188  -4.218929  1.707895
H    -2.468717  -6.020503  0.382835
H    -0.901407  -5.560794  1.049134
H    -0.253268  -4.522910  -1.166281
H    -1.887936  -4.839217  -1.796148
H    -0.308192  -6.506430  -2.515584
H    -1.459415  -7.223760  -1.560034
H    0.061002  -6.942404  -0.957071
N    -3.867517  -2.067182  3.173198
C    -4.683255  -2.129156  4.394817
H    -4.252933  -2.509062  2.341790
H    -4.037410  -2.260711  5.267812
H    -5.362741  -2.982298  4.314355
H    -5.276564  -1.212040  4.504128
Ca    -1.085015  0.886352  4.853341
