35
Energy: -36758.6103283 eV PBE+vdW (tier 2 basis)
C    -0.372617  0.227783  1.890563
C    -0.402101  -0.663532  3.088115
O    0.499959  -0.434807  4.011407
H    -1.003073  -0.113893  1.069034
H    0.651852  0.322469  1.516180
H    -0.727588  1.223032  2.203853
N    -1.473937  -1.401672  3.453457
C    -2.076552  -2.361220  2.513363
C    -0.843325  -2.986656  1.759131
O    0.266312  -2.439104  1.900593
H    -1.378000  -1.769807  4.398893
H    -2.527093  -3.141263  3.145185
C    -3.165995  -1.802738  1.572086
C    -4.473306  -1.334543  2.252435
C    -5.586101  -2.402107  2.314518
C    -6.887689  -1.797098  2.841273
N    -8.049659  -2.781120  2.780527
H    -3.393618  -2.578049  0.825701
H    -2.754788  -0.970500  0.990029
H    -4.853349  -0.476558  1.679876
H    -4.259805  -0.947639  3.260598
H    -5.283768  -3.251263  2.948954
H    -5.753678  -2.798831  1.299804
H    -7.201462  -0.930264  2.246003
H    -6.810791  -1.483939  3.889824
H    -8.918618  -2.353101  3.134922
H    -7.873338  -3.624302  3.345716
H    -8.236533  -3.091239  1.815417
N    -1.055289  -4.066902  1.012010
C    -0.004825  -4.755910  0.253803
H    -1.982038  -4.480623  1.001894
H    -0.445393  -5.187271  -0.650229
H    0.445061  -5.556926  0.854089
H    0.767844  -4.034516  -0.025496
Ca    2.298048  -0.106270  4.837191
