35
Energy: -36758.3841785 eV PBE+vdW (tier 2 basis)
C    0.020454  1.534432  0.982984
C    -0.097750  0.248984  1.722054
O    0.982038  -0.347723  2.161906
H    -0.727527  1.633286  0.186582
H    1.021353  1.650475  0.557454
H    -0.158750  2.370117  1.680182
N    -1.271060  -0.298792  1.975665
C    -2.592426  0.205314  1.521689
C    -3.026383  1.549078  2.181289
O    -3.492619  2.402505  1.432726
H    -1.263925  -1.156560  2.530414
H    -2.476182  0.470646  0.463163
C    -3.659218  -0.909317  1.625177
C    -4.855017  -0.770308  0.656595
C    -5.936498  0.268766  1.016387
C    -7.100219  0.168556  0.031724
N    -8.185003  1.195474  0.329158
H    -4.018660  -1.007939  2.660256
H    -3.166592  -1.860942  1.371830
H    -5.325298  -1.763565  0.607176
H    -4.473469  -0.567890  -0.356427
H    -5.513387  1.283951  0.991267
H    -6.300565  0.083134  2.040151
H    -7.594857  -0.810423  0.065360
H    -6.783481  0.359101  -1.001500
H    -8.961310  1.125226  -0.345700
H    -7.820887  2.158154  0.279299
H    -8.585691  1.065667  1.269397
N    -2.909894  1.723385  3.520689
C    -2.470565  0.801395  4.561638
H    -3.226624  2.642888  3.823931
H    -2.884147  1.138152  5.517731
H    -1.375449  0.777220  4.666525
H    -2.845883  -0.216057  4.396228
Ca    2.874685  -0.962146  2.527351
