35
Energy: -36758.5914308 eV PBE+vdW (tier 2 basis)
C    0.347404  -0.464843  0.567933
C    0.015550  -0.418470  2.013494
O    0.870911  -0.942705  2.863239
H    -0.495994  -0.176554  -0.066228
H    0.629133  -1.492748  0.299802
H    1.223198  0.175856  0.380958
N    -1.076927  0.120120  2.524796
C    -2.264232  0.787771  1.901094
C    -3.040258  -0.223758  1.001024
O    -2.610448  -0.479533  -0.122431
H    -1.130044  0.054386  3.541563
H    -2.876146  1.061218  2.771839
C    -1.908035  2.070677  1.129663
C    -3.156970  2.848869  0.671827
C    -2.771772  4.167604  -0.023161
C    -3.922043  5.103261  -0.387496
N    -4.717696  4.644441  -1.607831
H    -1.292895  2.710049  1.780386
H    -1.304597  1.811198  0.249757
H    -3.795138  3.072811  1.541808
H    -3.746954  2.205818  -0.001541
H    -2.151497  3.973717  -0.913902
H    -2.131078  4.756683  0.650798
H    -4.651194  5.211074  0.425477
H    -3.548107  6.100908  -0.645991
H    -4.118287  4.576175  -2.443173
H    -5.158855  3.725858  -1.466030
H    -5.470647  5.313640  -1.828145
N    -4.160352  -0.738000  1.545452
C    -5.023833  -1.694423  0.851353
H    -4.437479  -0.444836  2.476755
H    -6.036724  -1.287041  0.749265
H    -5.075437  -2.635204  1.412634
H    -4.603232  -1.884672  -0.139657
Ca    2.397795  -1.909681  3.757310
