35
Energy: -36758.3818302 eV PBE+vdW (tier 2 basis)
C    0.305520  -0.692007  0.091334
C    -0.016591  -0.439877  1.521806
O    0.909940  -0.737782  2.400024
H    0.684536  -1.710937  -0.037858
H    1.096007  0.017113  -0.204509
H    -0.548767  -0.557079  -0.570187
N    -1.027382  0.328603  1.953040
C    -2.424260  0.194385  1.503524
C    -2.662969  -1.351432  1.386707
O    -1.674212  -2.101755  1.382677
H    -0.950302  0.553640  2.943939
H    -3.004488  0.554591  2.364649
C    -2.898583  1.081333  0.311177
C    -2.822503  0.538211  -1.127949
C    -3.822600  1.191482  -2.110304
C    -3.514316  2.649953  -2.446731
N    -4.462323  3.177688  -3.517584
H    -2.362357  2.036199  0.405407
H    -3.950035  1.315787  0.530496
H    -3.045741  -0.538645  -1.136277
H    -1.809113  0.646258  -1.540328
H    -4.842968  1.112073  -1.700909
H    -3.808758  0.599616  -3.038901
H    -2.503277  2.773874  -2.855127
H    -3.628152  3.324152  -1.589116
H    -4.391326  2.632115  -4.389706
H    -4.256928  4.160037  -3.754499
H    -5.446282  3.136721  -3.213097
N    -3.919136  -1.809459  1.321261
C    -5.180102  -1.075703  1.413632
H    -3.981117  -2.823531  1.243037
H    -5.950112  -1.761761  1.779840
H    -5.502623  -0.693879  0.435362
H    -5.111253  -0.248794  2.130118
Ca    2.320498  -1.682025  3.471634
