35
Energy: -36759.6337154 eV PBE+vdW (tier 2 basis)
C    0.167362  -0.966926  -0.099560
C    -0.040012  -0.496828  1.296420
O    0.936582  -0.090982  2.003961
H    0.909604  -1.777435  -0.106995
H    0.597783  -0.143645  -0.689250
H    -0.751010  -1.312281  -0.585247
N    -1.280689  -0.492916  1.820772
C    -1.564842  0.084991  3.141823
C    -0.898304  -0.760715  4.262832
O    0.138783  -0.246822  4.808843
H    -2.047044  -0.791134  1.223550
H    -0.962412  1.003554  3.187667
C    -3.004215  0.628531  3.335330
C    -4.282703  -0.233071  3.288622
C    -5.504957  0.687313  3.520010
C    -6.865966  0.019755  3.739242
N    -7.637589  -0.272683  2.454210
H    -3.097013  1.431314  2.586387
H    -2.979278  1.148296  4.305735
H    -4.268174  -0.993630  4.080239
H    -4.370601  -0.767217  2.327417
H    -5.580488  1.445224  2.722933
H    -5.324023  1.266918  4.437937
H    -7.525042  0.678564  4.316681
H    -6.792725  -0.935199  4.274336
H    -8.556203  -0.691346  2.669202
H    -7.147554  -0.926915  1.829660
H    -7.820763  0.590372  1.920692
N    -1.291017  -1.963745  4.644058
C    -2.308376  -2.861672  4.100393
H    -0.734253  -2.349143  5.410850
H    -1.848262  -3.841675  3.924076
H    -2.695721  -2.484851  3.152742
H    -3.126658  -2.990072  4.819373
Ca    1.959525  0.357750  3.828693
