35
Energy: -36757.6411166 eV PBE+vdW (tier 2 basis)
C    0.214357  0.230328  1.016011
C    -0.349434  -0.724646  2.031632
O    0.371548  -1.391175  2.771176
H    0.763351  1.038606  1.517957
H    -0.522086  0.662992  0.332075
H    0.961193  -0.316334  0.423813
N    -1.734965  -0.919126  2.098269
C    -2.728747  0.172114  2.098586
C    -3.184073  0.462458  0.653187
O    -3.713164  -0.548130  0.011233
H    -1.939279  -1.635973  2.793604
H    -3.644725  -0.291122  2.506524
C    -2.386958  1.347829  3.042867
C    -2.465174  1.019593  4.554871
C    -1.420919  0.085475  5.201737
C    0.006855  0.641157  5.235984
N    1.010572  -0.481829  5.405466
H    -3.118498  2.150678  2.876865
H    -1.405185  1.769264  2.787336
H    -3.460647  0.605324  4.776279
H    -2.441599  1.985431  5.080879
H    -1.412089  -0.897219  4.709773
H    -1.750078  -0.104322  6.233583
H    0.154621  1.345888  6.062667
H    0.294816  1.147392  4.306831
H    0.980034  -1.087341  4.556634
H    0.805739  -1.059030  6.233355
H    1.970472  -0.125127  5.514199
N    -3.147962  1.613940  0.021285
C    -2.593024  2.934418  0.370671
H    -3.593352  1.589461  -0.898273
H    -1.670198  2.837042  0.943010
H    -3.331804  3.522213  0.929848
H    -2.374750  3.451012  -0.569423
Ca    -4.434714  -2.188743  -0.932486
