35
Energy: -36758.4380191 eV PBE+vdW (tier 2 basis)
C    -0.497198  -0.380105  -0.049645
C    -0.099282  -0.524729  1.377366
O    0.739421  -1.462270  1.728280
H    -1.474702  -0.865365  -0.209983
H    0.231636  -0.864362  -0.706064
H    -0.603655  0.670783  -0.344800
N    -0.594984  0.266692  2.312833
C    -1.662323  1.292907  2.146133
C    -1.175286  2.615847  1.494431
O    -1.975425  3.230146  0.777143
H    -0.297464  0.077970  3.272633
H    -2.405080  0.883070  1.449200
C    -2.325909  1.519556  3.530390
C    -3.753141  2.102464  3.546218
C    -3.923577  3.599949  3.182686
C    -4.735139  3.824735  1.896653
N    -4.162863  4.961549  1.075557
H    -1.659525  2.133556  4.157912
H    -2.394172  0.532389  4.014556
H    -4.123279  1.946526  4.567213
H    -4.402839  1.480149  2.912048
H    -2.937332  4.076048  3.086391
H    -4.418635  4.119919  4.011840
H    -5.784769  4.063743  2.100898
H    -4.701096  2.953564  1.233937
H    -4.121989  5.841953  1.606132
H    -3.201318  4.683173  0.787886
H    -4.721555  5.139272  0.229651
N    0.069847  3.036698  1.765341
C    0.613563  4.303923  1.266762
H    0.631774  2.519121  2.432708
H    1.704538  4.233220  1.227445
H    0.335734  5.138764  1.923672
H    0.226835  4.492181  0.260659
Ca    1.952381  -3.088833  1.871813
