35
Energy: -36759.9591718 eV PBE+vdW (tier 2 basis)
C    0.690530  -2.539714  -1.102154
C    0.635625  -2.175031  0.342619
O    1.703051  -1.930064  0.989318
H    -0.292990  -2.717706  -1.549216
H    1.310224  -3.438281  -1.230956
H    1.197360  -1.731922  -1.650099
N    -0.563502  -2.104830  0.945060
C    -0.842300  -1.677547  2.330985
C    -0.377307  -2.778955  3.326289
O    0.868545  -2.880524  3.577008
H    -1.367667  -2.371129  0.380372
H    -0.189348  -0.817274  2.546294
C    -2.323325  -1.270308  2.471462
C    -2.801935  0.010346  1.745551
C    -2.354926  1.342161  2.392824
C    -3.388630  2.470586  2.387370
N    -3.687792  3.052995  1.008176
H    -2.538791  -1.152516  3.543927
H    -2.954369  -2.104306  2.119465
H    -3.901328  -0.047510  1.761430
H    -2.517581  -0.021526  0.682373
H    -1.405173  1.702678  1.968173
H    -2.152985  1.182489  3.463762
H    -3.042519  3.317640  2.991681
H    -4.356048  2.139737  2.786403
H    -4.081969  2.356224  0.360744
H    -2.846030  3.452060  0.567828
H    -4.378346  3.816741  1.081626
N    -1.261198  -3.580688  3.884309
C    -0.962108  -4.659930  4.834309
H    -2.240794  -3.453111  3.639531
H    0.019727  -4.492304  5.282217
H    -0.976460  -5.627746  4.316272
H    -1.729739  -4.662276  5.615303
Ca    2.789098  -2.487460  2.731746
