35
Energy: -36757.8292616 eV PBE+vdW (tier 2 basis)
C    0.421864  0.063169  0.328969
C    0.175484  0.241975  1.796870
O    1.084562  0.419075  2.629329
H    -0.479282  0.154602  -0.287454
H    0.845755  -0.937965  0.157133
H    1.170161  0.790854  -0.007629
N    -1.129608  0.229732  2.204338
C    -1.604076  0.168963  3.581501
C    -1.385652  1.411098  4.455330
O    -1.801521  1.314692  5.699381
H    -1.833826  0.080418  1.487078
H    -2.704983  0.201039  3.481265
C    -1.339148  -1.205780  4.292553
C    0.041975  -1.872928  4.218139
C    1.154860  -1.300390  5.113419
C    2.549360  -1.824467  4.751289
N    3.190157  -1.020550  3.623327
H    -2.056115  -1.898834  3.831828
H    -1.656743  -1.117009  5.343825
H    0.360906  -1.916822  3.168285
H    -0.115782  -2.924733  4.501146
H    0.970484  -1.595889  6.156820
H    1.165904  -0.200116  5.094525
H    2.507640  -2.867671  4.415816
H    3.239628  -1.777564  5.600018
H    2.463096  -0.531593  3.033040
H    3.781270  -1.611156  3.024747
H    3.799215  -0.283583  4.000189
N    -0.965734  2.594800  4.071502
C    -0.543356  3.148198  2.770185
H    -0.961539  3.281414  4.826936
H    -0.555605  4.237272  2.869733
H    -1.238263  2.855824  1.980299
H    0.474288  2.820727  2.533815
Ca    -2.785483  1.233074  7.469039
