35
Energy: -36757.9097392 eV PBE+vdW (tier 2 basis)
C    0.292634  1.642961  1.129934
C    -0.020831  0.360771  1.830589
O    0.959708  -0.417661  2.199145
H    0.902273  2.285199  1.783272
H    -0.601841  2.207979  0.845442
H    0.870934  1.438873  0.216772
N    -1.281224  0.049749  2.057195
C    -1.904331  -1.096961  2.768212
C    -3.212949  -1.453301  1.997821
O    -4.311591  -1.349154  2.556048
H    -1.947245  0.764200  1.757045
H    -1.209556  -1.945603  2.693713
C    -2.093726  -0.671570  4.251171
C    -3.090845  -1.352204  5.216318
C    -3.085446  -2.875782  5.442348
C    -3.877232  -3.769312  4.484028
N    -5.295337  -3.274182  4.277496
H    -2.375137  0.391809  4.248627
H    -1.087867  -0.712020  4.697818
H    -4.100352  -0.994596  4.983197
H    -2.859283  -0.897529  6.190250
H    -3.475603  -3.053736  6.456187
H    -2.059334  -3.273563  5.468452
H    -3.943740  -4.787739  4.884246
H    -3.443376  -3.832385  3.479036
H    -5.256782  -2.425519  3.668018
H    -5.756525  -3.038776  5.167121
H    -5.878273  -3.981301  3.810399
N    -3.101863  -1.867898  0.719274
C    -1.915697  -2.091991  -0.101637
H    -4.003877  -2.022349  0.267997
H    -2.146805  -2.863250  -0.843751
H    -1.080267  -2.459995  0.505881
H    -1.612592  -1.183336  -0.641006
Ca    2.936926  -0.854743  2.479813
