35
Energy: -36760.1826389 eV PBE+vdW (tier 2 basis)
C    -0.358027  0.727905  -0.519842
C    -0.316710  0.005458  0.781900
O    0.705152  -0.674851  1.116262
H    -0.161076  0.023769  -1.339806
H    0.460581  1.463411  -0.535753
H    -1.305362  1.244377  -0.705579
N    -1.373506  0.091400  1.607151
C    -1.445778  -0.429985  2.987083
C    -1.576826  -1.975469  2.949126
O    -0.515335  -2.667872  2.823321
H    -2.169272  0.631080  1.272673
H    -0.464165  -0.247075  3.451385
C    -2.514817  0.354579  3.779095
C    -2.487976  0.084695  5.295911
C    -3.585299  0.791645  6.126179
C    -3.352498  2.287733  6.347059
N    -4.369375  2.863772  7.324847
H    -3.521332  0.155552  3.370546
H    -2.321714  1.419785  3.579372
H    -1.498060  0.350444  5.698899
H    -2.604002  -0.992622  5.482612
H    -3.616226  0.291666  7.106622
H    -4.571732  0.629214  5.662827
H    -3.450346  2.883027  5.431105
H    -2.367897  2.488202  6.788342
H    -5.337262  2.755904  6.986233
H    -4.212310  3.871333  7.481099
H    -4.316180  2.402510  8.245957
N    -2.766520  -2.539494  3.022158
C    -3.031712  -3.982492  2.957178
H    -3.575263  -1.927336  3.099421
H    -2.149261  -4.531591  3.294646
H    -3.280690  -4.274691  1.928565
H    -3.880664  -4.213751  3.608101
Ca    1.417460  -2.511231  1.894306
