35
Energy: -36757.3858731 eV PBE+vdW (tier 2 basis)
C    0.070640  2.642135  0.611063
C    0.229442  1.290291  1.258616
O    1.295809  0.714186  1.382868
H    1.065675  3.080711  0.491542
H    -0.547184  3.328720  1.204510
H    -0.383335  2.564036  -0.388901
N    -0.922312  0.657189  1.776421
C    -2.241652  0.744420  1.174338
C    -3.312533  0.574580  2.259908
O    -4.320747  -0.248720  2.103300
H    -0.671792  -0.245805  2.178629
H    -2.376869  1.790089  0.842236
C    -2.382648  -0.142688  -0.091666
C    -1.878019  -1.604916  0.025152
C    -0.877849  -2.069751  -1.061034
C    0.521647  -1.467065  -0.922610
N    1.504293  -2.113414  -1.890134
H    -1.809637  0.388105  -0.865014
H    -3.418734  -0.114197  -0.458570
H    -2.732401  -2.292901  -0.031113
H    -1.423392  -1.790521  1.009937
H    -1.287181  -1.849385  -2.059813
H    -0.803112  -3.166233  -0.989073
H    0.555123  -0.394518  -1.145422
H    0.947396  -1.608371  0.078635
H    1.220566  -1.991768  -2.873753
H    1.597160  -3.126498  -1.722614
H    2.445152  -1.702211  -1.789784
N    -3.257819  1.275132  3.372520
C    -2.315816  2.335608  3.768014
H    -3.988236  1.074133  4.055347
H    -2.135863  3.019922  2.933334
H    -1.366582  1.901870  4.101573
H    -2.776258  2.891613  4.590097
Ca    -6.088939  -1.229868  1.985854
