35
Energy: -36758.2267545 eV PBE+vdW (tier 2 basis)
C    0.443225  -0.379629  0.233489
C    0.030089  -0.149145  1.656104
O    0.654798  -0.588520  2.632379
H    1.423920  0.085231  0.059457
H    -0.264881  0.009370  -0.506106
H    0.576842  -1.458119  0.075338
N    -1.102552  0.607023  1.858121
C    -1.592665  0.895761  3.204035
C    -3.107273  0.679444  3.219430
O    -3.934811  1.674114  3.408754
H    -1.544845  1.038495  1.051802
H    -1.163309  0.087179  3.823930
C    -1.121766  2.227823  3.825735
C    0.326150  2.181983  4.371495
C    1.441512  2.438527  3.339290
C    2.835123  1.967637  3.750350
N    2.927443  0.448237  3.891310
H    -1.780778  2.443621  4.681383
H    -1.240801  3.051909  3.104983
H    0.458323  1.208486  4.868893
H    0.414168  2.932627  5.168759
H    1.529921  3.520164  3.160456
H    1.199024  2.005179  2.360580
H    3.161511  2.395222  4.705973
H    3.569003  2.252148  2.988245
H    3.868006  0.112463  3.646406
H    2.221635  -0.041928  3.285782
H    2.751666  0.143708  4.856268
N    -3.605943  -0.523877  3.039584
C    -2.894660  -1.793112  2.831423
H    -4.625016  -0.588314  3.020446
H    -3.507642  -2.595789  3.253787
H    -1.921080  -1.784152  3.329795
H    -2.759168  -1.973453  1.757126
Ca    -5.234510  3.172342  3.832396
