35
Energy: -36758.3359055 eV PBE+vdW (tier 2 basis)
C    -0.291464  0.500406  -0.009523
C    0.005860  -0.243175  1.246277
O    1.184326  -0.785687  1.421505
H    0.571094  0.494527  -0.680530
H    -0.570092  1.543218  0.205443
H    -1.149574  0.055719  -0.536262
N    -0.897930  -0.366033  2.201671
C    -2.267544  0.194336  2.166805
C    -2.335697  1.748186  2.356674
O    -3.024307  2.357444  1.547769
H    -0.609192  -0.864509  3.044943
H    -2.632228  0.070205  1.140072
C    -3.210737  -0.577918  3.112002
C    -4.641214  -0.000622  3.117596
C    -5.605173  -0.852201  3.961920
C    -6.956332  -0.214162  4.275054
N    -7.875391  -0.096748  3.060993
H    -3.234267  -1.630476  2.789459
H    -2.816896  -0.567983  4.140492
H    -4.993966  0.082965  2.076757
H    -4.617110  1.025780  3.514211
H    -5.156539  -1.048588  4.948270
H    -5.754630  -1.846257  3.509791
H    -6.855181  0.803693  4.672464
H    -7.512825  -0.814174  5.004656
H    -8.784977  0.308455  3.328904
H    -8.065959  -1.017780  2.640370
H    -7.479430  0.507288  2.327661
N    -1.688449  2.345315  3.387471
C    -0.875593  1.771566  4.452298
H    -1.814880  3.356216  3.395683
H    -0.805266  2.503107  5.263587
H    0.150868  1.546831  4.124302
H    -1.331211  0.870261  4.881226
Ca    3.070726  -1.480392  1.190899
