35
Energy: -36758.5440264 eV PBE+vdW (tier 2 basis)
C    0.210424  -1.462632  0.590933
C    0.062326  -0.250426  1.449876
O    1.109738  0.496963  1.680328
H    0.947441  -2.146537  1.037350
H    0.576720  -1.172556  -0.404700
H    -0.728607  -2.011563  0.464743
N    -1.114426  0.034776  1.958815
C    -1.545230  1.119892  2.856693
C    -2.684338  0.494427  3.692822
O    -3.503168  -0.237778  3.096568
H    -1.885239  -0.616212  1.761283
H    -0.693574  1.411039  3.485052
C    -2.065827  2.363498  2.081824
C    -3.183195  2.127595  1.029786
C    -4.523134  2.848890  1.274766
C    -5.402796  2.404928  2.440532
N    -5.884375  0.969500  2.308130
H    -1.197285  2.826392  1.593858
H    -2.387388  3.088998  2.844409
H    -3.359221  1.052892  0.879285
H    -2.818767  2.488719  0.059934
H    -5.116916  2.796494  0.348392
H    -4.340678  3.923663  1.427015
H    -6.297088  3.036813  2.493578
H    -4.897078  2.461089  3.413256
H    -5.096116  0.312760  2.530232
H    -6.239948  0.775190  1.362235
H    -6.653348  0.774491  2.963160
N    -2.740608  0.809806  4.986922
C    -3.770856  0.324621  5.910527
H    -2.014558  1.406171  5.374303
H    -3.297994  0.031340  6.853771
H    -4.263381  -0.546594  5.469806
H    -4.508799  1.110465  6.118833
Ca    3.069147  1.046164  1.593708
