35
Energy: -36757.920442 eV PBE+vdW (tier 2 basis)
C    1.089236  -2.235372  0.948191
C    0.818396  -1.323825  2.104788
O    1.708200  -0.743890  2.740251
H    0.187396  -2.652615  0.487306
H    1.728641  -3.059055  1.295144
H    1.663188  -1.691475  0.186339
N    -0.500271  -1.131116  2.465567
C    -0.786753  -0.388673  3.695274
C    -2.203570  -0.661887  4.156379
O    -3.222191  -0.381252  3.382232
H    -1.191532  -1.756770  2.066540
H    -0.104238  -0.765955  4.468810
C    -0.525288  1.148199  3.554947
C    -0.003531  1.827962  4.833987
C    1.357678  1.369559  5.403066
C    2.644137  1.991227  4.858333
N    3.023121  1.559494  3.445213
H    -1.446904  1.654119  3.229159
H    0.176106  1.259832  2.720512
H    -0.753155  1.704445  5.631914
H    0.022274  2.913285  4.652840
H    1.459258  0.273510  5.390498
H    1.370915  1.642536  6.468671
H    3.481687  1.689118  5.497105
H    2.606709  3.087387  4.857416
H    4.045535  1.535620  3.335045
H    2.671936  2.217566  2.740201
H    2.639537  0.610793  3.202790
N    -2.437883  -1.151306  5.352012
C    -1.472985  -1.587215  6.381231
H    -3.421455  -1.254698  5.607751
H    -2.028671  -2.150939  7.136269
H    -1.006001  -0.719522  6.862054
H    -0.711468  -2.242103  5.945240
Ca    -4.847282  0.124178  2.268141
