35
Energy: -36758.3175649 eV PBE+vdW (tier 2 basis)
C    0.192599  0.021465  0.139734
C    0.151418  -0.131591  1.621075
O    1.262833  -0.255130  2.297101
H    1.213797  0.205749  -0.204203
H    -0.451731  0.842521  -0.202325
H    -0.172686  -0.898278  -0.345771
N    -0.995059  -0.157213  2.276321
C    -2.353899  -0.127675  1.682264
C    -2.864804  1.262398  1.204859
O    -3.563308  1.270945  0.181660
H    -0.938753  -0.262508  3.290496
H    -2.296804  -0.717316  0.759330
C    -3.400214  -0.772743  2.639499
C    -4.277626  -1.870551  2.000804
C    -5.062356  -1.504041  0.729293
C    -6.140312  -0.428497  0.922075
N    -6.240427  0.440587  -0.315318
H    -2.877100  -1.233813  3.491140
H    -4.023189  0.020276  3.077164
H    -4.970035  -2.225461  2.778166
H    -3.643987  -2.736088  1.757388
H    -5.528582  -2.419666  0.341698
H    -4.359732  -1.170969  -0.049852
H    -5.912049  0.263610  1.741025
H    -7.131683  -0.855702  1.109153
H    -6.441541  -0.114692  -1.158294
H    -5.325698  0.924726  -0.439607
H    -6.983273  1.147928  -0.231506
N    -2.599696  2.380383  1.904772
C    -1.974979  2.545355  3.215828
H    -3.000855  3.217337  1.483036
H    -2.304439  3.503202  3.630811
H    -0.878416  2.571047  3.152798
H    -2.296841  1.767824  3.919934
Ca    3.175310  -0.530371  2.930423
