35
Energy: -36758.1668662 eV PBE+vdW (tier 2 basis)
C    -0.769867  -0.010976  0.204410
C    -0.520677  0.346704  1.645324
O    0.544340  0.798959  2.058587
H    -0.227978  0.693028  -0.435735
H    -1.830189  -0.018885  -0.074680
H    -0.360737  -1.013304  0.008326
N    -1.596072  0.113123  2.498519
C    -1.621477  0.163106  3.955898
C    -2.402506  1.384757  4.480951
O    -3.391133  1.161163  5.318708
H    -2.414915  -0.300787  2.063579
H    -2.239405  -0.689595  4.279428
C    -0.256404  0.023751  4.689909
C    0.422318  -1.331185  4.408859
C    1.921999  -1.393066  4.771860
C    2.827317  -0.768408  3.710289
N    4.297639  -0.999121  4.042053
H    -0.459111  0.110979  5.769088
H    0.395650  0.857057  4.413963
H    0.303107  -1.604288  3.351490
H    -0.092331  -2.115233  4.981632
H    2.189959  -2.454886  4.887803
H    2.097448  -0.918569  5.750879
H    2.701031  0.315000  3.607337
H    2.668487  -1.216457  2.722158
H    4.913219  -0.587653  3.324955
H    4.521132  -2.004117  4.095733
H    4.559332  -0.581279  4.946716
N    -2.158606  2.627069  4.144646
C    -1.136635  3.189447  3.252634
H    -2.789583  3.318399  4.554256
H    -0.357702  2.457349  3.023289
H    -1.618329  3.519852  2.322813
H    -0.699326  4.062002  3.751495
Ca    -4.974608  0.841602  6.530789
