35
Energy: -36757.8993461 eV PBE+vdW (tier 2 basis)
C    -0.199379  1.199160  1.588202
C    -0.885975  1.210485  2.923143
O    -1.191823  2.248316  3.498923
H    -0.588363  2.000437  0.950838
H    -0.242439  0.243072  1.055858
H    0.861845  1.437519  1.768491
N    -1.089989  -0.019263  3.593620
C    -1.824943  -1.156412  3.015701
C    -0.862095  -2.230963  2.487673
O    -1.309718  -3.299252  1.894275
H    -1.366587  0.172524  4.556869
H    -2.306012  -1.655407  3.876248
C    -2.963148  -0.751590  2.039070
C    -3.932955  0.295366  2.664570
C    -4.062556  1.582942  1.825596
C    -4.692740  2.790751  2.516092
N    -3.822271  3.369449  3.635328
H    -3.521325  -1.654730  1.760021
H    -2.530320  -0.360188  1.107864
H    -3.593039  0.538682  3.681934
H    -4.926098  -0.154930  2.790932
H    -4.688445  1.383489  0.943244
H    -3.086003  1.886028  1.420285
H    -5.670262  2.567745  2.959973
H    -4.831278  3.599437  1.790166
H    -3.921434  4.392596  3.683238
H    -2.808786  3.145228  3.511343
H    -4.092468  3.008130  4.558088
N    0.414958  -2.069801  2.716276
C    1.500791  -2.988648  2.375935
H    0.625462  -1.207352  3.234117
H    2.453770  -2.486982  2.566604
H    1.457927  -3.256023  1.312625
H    1.454451  -3.889243  3.003481
Ca    -1.806046  -5.097664  1.093915
