35
Energy: -36758.4392948 eV PBE+vdW (tier 2 basis)
C    -0.824825  1.754602  -0.106160
C    -0.581412  0.745993  0.967676
O    0.612625  0.228723  1.094173
H    -0.156593  2.617052  0.032759
H    -1.857236  2.119168  -0.120470
H    -0.606782  1.311268  -1.089072
N    -1.572665  0.399202  1.755752
C    -1.643259  -0.579522  2.852789
C    -3.106244  -1.070690  2.824651
O    -3.988688  -0.219897  2.571674
H    -2.494814  0.818981  1.575051
H    -0.931825  -1.387736  2.648178
C    -1.330438  0.053950  4.240073
C    -2.140338  1.318607  4.635772
C    -3.034608  1.209136  5.886547
C    -4.280718  0.328574  5.839203
N    -5.303519  0.796179  4.815936
H    -0.257499  0.288360  4.252500
H    -1.458714  -0.745332  4.985557
H    -2.730564  1.687885  3.784846
H    -1.425736  2.123936  4.847304
H    -3.336405  2.226539  6.182027
H    -2.437989  0.839824  6.734671
H    -4.780683  0.340599  6.814800
H    -4.064943  -0.717868  5.588478
H    -4.976709  0.548095  3.850365
H    -5.462721  1.811091  4.875947
H    -6.213910  0.341259  4.967608
N    -3.375743  -2.343592  3.122389
C    -2.438801  -3.440351  3.391518
H    -4.363196  -2.589086  3.052354
H    -3.007671  -4.279333  3.803016
H    -1.688926  -3.153430  4.137544
H    -1.948384  -3.784029  2.471150
Ca    2.565207  -0.091395  0.611297
