35
Energy: -36757.554109 eV PBE+vdW (tier 2 basis)
C    -1.080450  1.687841  -0.367479
C    -0.856180  1.629309  1.121053
O    -0.310627  2.536608  1.740379
H    -1.086275  2.730710  -0.698290
H    -1.995709  1.188568  -0.707154
H    -0.224998  1.206248  -0.866999
N    -1.177277  0.450156  1.815596
C    -2.413583  -0.335982  1.743934
C    -2.436545  -1.280502  0.533996
O    -3.527060  -1.895252  0.180532
H    -0.807347  0.507947  2.765653
H    -2.295660  -1.077071  2.558817
C    -3.731219  0.396566  2.127368
C    -4.260313  1.659437  1.412823
C    -3.560638  3.031696  1.585344
C    -3.117947  3.410313  3.003309
N    -2.035231  4.471414  2.946835
H    -3.636151  0.600324  3.204019
H    -4.530714  -0.358993  2.080985
H    -5.293433  1.768700  1.774021
H    -4.352540  1.484205  0.330246
H    -4.263609  3.793017  1.217043
H    -2.696030  3.098387  0.917362
H    -3.939345  3.806643  3.611373
H    -2.662388  2.575604  3.548312
H    -1.764795  4.789934  3.888356
H    -2.332922  5.303973  2.418854
H    -1.190731  4.065076  2.487633
N    -1.297429  -1.551626  -0.052533
C    -1.065392  -2.521242  -1.123640
H    -0.495829  -1.048204  0.340584
H    -0.031291  -2.420957  -1.465493
H    -1.730543  -2.320970  -1.973066
H    -1.205293  -3.546568  -0.754114
Ca    -5.044375  -3.135081  -0.363048
