35
Energy: -36758.2090947 eV PBE+vdW (tier 2 basis)
C    0.914352  -0.433200  0.147139
C    0.664351  -0.316148  1.621040
O    1.449419  -0.716637  2.486148
H    1.758605  0.213975  -0.132433
H    0.053261  -0.162521  -0.473780
H    1.216237  -1.463492  -0.081418
N    -0.530120  0.287422  1.993479
C    -0.829453  0.591562  3.387226
C    -2.235739  0.081552  3.730861
O    -2.841684  0.454239  4.819700
H    -0.997592  0.839666  1.275746
H    -0.150293  -0.068641  3.963454
C    -0.557169  2.064757  3.807749
C    0.788476  2.313127  4.519246
C    2.072927  2.136526  3.664883
C    3.087148  1.180314  4.310182
N    3.894108  0.436172  3.265424
H    -1.354557  2.394326  4.489205
H    -0.649086  2.705061  2.918169
H    0.840612  1.659557  5.404804
H    0.761828  3.336339  4.915156
H    2.544067  3.113518  3.498312
H    1.809312  1.760785  2.669043
H    2.590578  0.394998  4.891222
H    3.795222  1.699773  4.966036
H    4.606074  -0.169350  3.697467
H    4.386492  1.073670  2.625080
H    3.234256  -0.164767  2.720319
N    -2.802448  -0.787855  2.930295
C    -4.092855  -1.450017  3.126584
H    -2.247147  -1.030037  2.105242
H    -4.906992  -0.713087  3.128287
H    -4.090512  -2.029914  4.059078
H    -4.259571  -2.139637  2.294315
Ca    -3.995597  0.940764  6.414687
