35
Energy: -36759.2464488 eV PBE+vdW (tier 2 basis)
C    0.252338  -0.434063  0.436484
C    0.075387  0.068382  1.830869
O    1.100174  0.370090  2.521590
H    0.302516  -1.534684  0.427912
H    1.210275  -0.061976  0.055157
H    -0.555361  -0.116817  -0.228302
N    -1.151195  0.240590  2.392655
C    -2.201278  -0.791282  2.448596
C    -1.624342  -1.979655  3.286035
O    -0.368414  -2.024110  3.538368
H    -1.089891  0.781150  3.257531
H    -2.996170  -0.342115  3.064917
C    -2.864991  -1.180753  1.102908
C    -3.553615  0.031556  0.441189
C    -4.622093  -0.279625  -0.631907
C    -4.075188  -0.700380  -1.995995
N    -5.193625  -0.779885  -3.028813
H    -3.620645  -1.945045  1.330210
H    -2.142626  -1.668060  0.435548
H    -2.804197  0.724390  0.029242
H    -4.071402  0.604116  1.224998
H    -5.213716  0.640313  -0.761235
H    -5.319018  -1.044952  -0.254394
H    -3.602609  -1.690309  -1.989279
H    -3.356762  0.028264  -2.392781
H    -5.666354  0.129551  -3.146361
H    -5.916987  -1.464983  -2.763416
H    -4.835737  -1.057849  -3.955387
N    -2.419418  -2.908125  3.782993
C    -3.882335  -3.019832  3.749031
H    -1.934994  -3.641900  4.304244
H    -4.214309  -3.413597  4.715907
H    -4.198057  -3.717484  2.962959
H    -4.350319  -2.042568  3.599068
Ca    1.566777  -1.143640  3.980896
