35
Energy: -36759.1049005 eV PBE+vdW (tier 2 basis)
C    1.145367  -0.996716  0.989386
C    0.583315  -0.565049  2.295975
O    1.336289  -0.531309  3.321855
H    1.983642  -0.310411  0.780102
H    0.439486  -0.927973  0.161267
H    1.589932  -1.998376  1.055369
N    -0.691043  -0.105298  2.429342
C    -1.944941  -0.815665  2.118930
C    -2.086507  -1.950192  3.177843
O    -1.077988  -2.285268  3.892194
H    -0.786987  0.442987  3.286630
H    -2.724017  -0.079172  2.368755
C    -2.217822  -1.195254  0.631623
C    -1.876728  -2.601139  0.102421
C    -2.238099  -2.700270  -1.398043
C    -1.998636  -4.095270  -1.976595
N    -2.378245  -4.164950  -3.450570
H    -1.721388  -0.420620  0.029487
H    -3.290391  -1.025511  0.466274
H    -2.440437  -3.363483  0.662792
H    -0.812921  -2.841429  0.241310
H    -1.648433  -1.960242  -1.962999
H    -3.297094  -2.425130  -1.530900
H    -2.601003  -4.863356  -1.475560
H    -0.944615  -4.395192  -1.923881
H    -2.214419  -5.108796  -3.833985
H    -1.829216  -3.506260  -4.023266
H    -3.374068  -3.945219  -3.603785
N    -3.257819  -2.524311  3.384085
C    -4.556974  -2.223257  2.770155
H    -3.257028  -3.248645  4.104414
H    -4.697678  -2.794917  1.844394
H    -4.659065  -1.151646  2.568494
H    -5.340182  -2.511701  3.478029
Ca    0.777810  -1.844027  4.935182
