35
Energy: -36758.5192507 eV PBE+vdW (tier 2 basis)
C    0.203013  -0.817233  0.524354
C    -0.888254  -1.282942  1.429872
O    -1.119929  -2.562377  1.556523
H    0.725983  -1.668418  0.080800
H    0.940020  -0.204070  1.063195
H    -0.202914  -0.196971  -0.288586
N    -1.636617  -0.433003  2.113086
C    -1.588326  1.049086  2.058920
C    -1.572688  1.694280  3.483242
O    -2.183926  2.752060  3.679283
H    -2.380422  -0.842266  2.682459
H    -0.628723  1.316831  1.595221
C    -2.718434  1.641540  1.199575
C    -4.160384  1.393916  1.694472
C    -5.147620  2.534314  1.351745
C    -5.386407  3.578915  2.439929
N    -4.171553  4.431034  2.758583
H    -2.604727  1.276741  0.168656
H    -2.494685  2.715137  1.146472
H    -4.177385  1.228342  2.783236
H    -4.539602  0.468250  1.240600
H    -6.140170  2.104319  1.157875
H    -4.861911  3.022985  0.406527
H    -5.680774  3.110572  3.387760
H    -6.185272  4.268050  2.141356
H    -3.878646  4.985715  1.944036
H    -3.361483  3.834107  3.075126
H    -4.385043  5.099224  3.511397
N    -0.849701  1.087913  4.434753
C    -0.677034  1.659032  5.777241
H    -0.267120  0.296608  4.184846
H    -1.651201  1.953245  6.180540
H    -0.025561  2.541400  5.742548
H    -0.229060  0.901023  6.425289
Ca    -1.120131  -4.593284  1.398384
