35
Energy: -36758.1853114 eV PBE+vdW (tier 2 basis)
C    -0.132023  -0.089413  -0.385396
C    -0.389960  -0.282968  1.079240
O    0.024848  -1.259221  1.723957
H    -0.642541  0.777767  -0.818274
H    -0.444136  -0.995238  -0.921473
H    0.948413  0.021552  -0.552746
N    -1.126114  0.694124  1.707243
C    -1.407431  0.631258  3.140385
C    -2.827427  1.118231  3.434353
O    -3.667160  0.293967  4.009066
H    -1.357738  1.518903  1.164543
H    -1.406273  -0.442138  3.374726
C    -0.361291  1.327326  4.065267
C    1.080592  0.822015  3.877558
C    1.408552  -0.531333  4.536267
C    2.698901  -1.168681  4.010336
N    2.443436  -2.051843  2.793934
H    -0.679774  1.184738  5.110729
H    -0.371921  2.411060  3.891578
H    1.746706  1.584245  4.306265
H    1.316700  0.808169  2.803467
H    0.582703  -1.251196  4.422630
H    1.533376  -0.384954  5.618019
H    3.178593  -1.806083  4.760674
H    3.428787  -0.409372  3.704707
H    3.277897  -2.125063  2.197933
H    1.628966  -1.711130  2.217812
H    2.205359  -3.008546  3.084597
N    -3.255774  2.331997  3.166769
C    -2.583423  3.479924  2.540068
H    -4.227868  2.514734  3.423818
H    -1.516447  3.297099  2.406077
H    -2.710901  4.354287  3.190071
H    -3.058453  3.690116  1.572584
Ca    -5.046726  -0.950109  4.827465
