35
Energy: -36758.1387267 eV PBE+vdW (tier 2 basis)
C    -0.384005  1.168169  -0.044031
C    -0.440528  0.629912  1.352128
O    0.431516  -0.092527  1.847532
H    -1.267010  1.747723  -0.334717
H    -0.256170  0.328297  -0.740766
H    0.508155  1.800212  -0.157086
N    -1.557681  0.975419  2.107078
C    -1.641324  0.565147  3.497785
C    -2.934490  -0.221514  3.737241
O    -3.373161  -0.446059  4.941739
H    -2.125974  1.753054  1.777029
H    -0.832985  -0.189951  3.577422
C    -1.394469  1.656262  4.578655
C    -0.371314  2.782405  4.287397
C    1.011538  2.476326  3.676983
C    1.833983  1.351244  4.314370
N    2.750512  0.738243  3.272372
H    -1.102808  1.125742  5.497838
H    -2.342682  2.166716  4.805739
H    -0.236633  3.309792  5.242696
H    -0.838843  3.522507  3.623361
H    1.591562  3.409335  3.714262
H    0.888657  2.256139  2.609972
H    1.219940  0.518445  4.675656
H    2.459849  1.699406  5.144045
H    3.352571  0.002634  3.667344
H    3.371472  1.442283  2.848923
H    2.156887  0.317835  2.521798
N    -3.581788  -0.702930  2.703729
C    -4.787846  -1.531476  2.733347
H    -3.166278  -0.475252  1.796983
H    -4.605457  -2.457434  3.294632
H    -5.050383  -1.799785  1.706128
H    -5.628860  -0.972754  3.165457
Ca    -4.300937  -0.850618  6.698126
