35
Energy: -36758.2181884 eV PBE+vdW (tier 2 basis)
C    0.193473  0.664378  0.240622
C    0.087567  0.294795  1.674850
O    1.178125  0.229287  2.397777
H    -0.573989  0.152456  -0.347616
H    1.184606  0.402891  -0.143177
H    0.064699  1.752972  0.131857
N    -1.055683  0.040851  2.285527
C    -2.490833  0.086746  1.851937
C    -2.831115  -1.180685  1.027061
O    -2.340340  -1.334786  -0.109598
H    -0.947464  -0.193048  3.272724
H    -3.005454  0.020897  2.815352
C    -2.946822  1.428745  1.195743
C    -3.209403  1.496439  -0.318533
C    -4.577819  0.934389  -0.764655
C    -4.609816  0.498801  -2.227057
N    -4.004191  -0.894030  -2.402231
H    -2.213598  2.196836  1.479022
H    -3.867725  1.722414  1.719717
H    -2.398679  1.008924  -0.873953
H    -3.168340  2.556055  -0.607231
H    -5.348444  1.706852  -0.636097
H    -4.910836  0.096946  -0.129850
H    -4.034330  1.178693  -2.866693
H    -5.629361  0.446591  -2.624084
H    -3.595813  -1.018970  -3.337482
H    -3.272945  -1.093468  -1.675479
H    -4.728756  -1.615650  -2.299570
N    -3.678660  -2.063837  1.575544
C    -4.350025  -2.034842  2.882190
H    -3.838318  -2.890718  1.001235
H    -5.030978  -2.889718  2.928387
H    -4.951948  -1.126875  3.008862
H    -3.635894  -2.135711  3.709732
Ca    3.040037  0.264423  3.199721
