35
Energy: -36759.86251 eV PBE+vdW (tier 2 basis)
C    -0.099994  -0.448537  0.130039
C    -0.146067  -0.361646  1.618014
O    0.914955  -0.522357  2.301386
H    -1.066188  -0.273800  -0.354266
H    0.267241  -1.447150  -0.150312
H    0.633146  0.273016  -0.256641
N    -1.327983  -0.110054  2.204110
C    -1.705353  -0.100202  3.639282
C    -0.950179  0.992723  4.431967
O    0.286601  0.875661  4.707134
H    -2.103266  0.023053  1.558865
H    -2.763923  0.194339  3.622091
C    -1.606455  -1.500425  4.296423
C    -2.406726  -1.647698  5.611245
C    -3.925418  -1.892250  5.443840
C    -4.371175  -3.345992  5.251448
N    -4.519247  -4.100547  6.570174
H    -0.550489  -1.737601  4.482625
H    -1.950427  -2.231627  3.550036
H    -2.260604  -0.756203  6.239089
H    -1.949923  -2.465729  6.189215
H    -4.310200  -1.343475  4.570971
H    -4.471213  -1.459023  6.296369
H    -3.673056  -3.934541  4.642757
H    -5.359722  -3.398673  4.780591
H    -4.816356  -5.075245  6.406818
H    -5.234561  -3.666503  7.173299
H    -3.643459  -4.137890  7.110506
N    -1.648188  2.039562  4.836961
C    -1.120051  3.169328  5.610759
H    -2.625753  2.096645  4.559448
H    -1.904400  3.530143  6.283658
H    -0.829051  3.985166  4.935854
H    -0.255112  2.843398  6.193740
Ca    2.132025  0.179059  3.870667
