35
Energy: -36760.0357269 eV PBE+vdW (tier 2 basis)
C    2.281892  -0.238271  0.033362
C    1.653118  -0.828543  1.248691
O    2.371919  -1.261689  2.203484
H    2.997907  -0.950671  -0.398153
H    2.864670  0.644022  0.338893
H    1.560429  0.059377  -0.734534
N    0.311765  -0.883809  1.321859
C    -0.486339  -1.273691  2.497568
C    -0.481946  -2.815818  2.673269
O    0.593750  -3.367031  3.074248
H    -0.195804  -0.558791  0.503473
H    0.073945  -0.924829  3.379189
C    -1.848768  -0.531667  2.534120
C    -2.719615  -0.515062  1.258927
C    -4.156002  0.031152  1.456012
C    -4.238093  1.542691  1.683613
N    -5.685176  2.018882  1.694221
H    -1.616642  0.501670  2.829786
H    -2.418400  -0.953759  3.376550
H    -2.830993  -1.524010  0.832472
H    -2.234863  0.076266  0.464810
H    -4.642481  -0.499036  2.290378
H    -4.725076  -0.222086  0.548172
H    -3.744546  2.106547  0.881724
H    -3.813542  1.859844  2.643775
H    -5.743275  3.038347  1.842487
H    -6.235319  1.571997  2.443259
H    -6.162443  1.815143  0.802623
N    -1.561527  -3.537314  2.446800
C    -1.638819  -4.995609  2.622304
H    -2.399570  -3.060474  2.129576
H    -2.686944  -5.297104  2.551271
H    -1.245073  -5.274563  3.605568
H    -1.061858  -5.503882  1.839963
Ca    2.678557  -2.975648  3.415520
