35
Energy: -36757.8972977 eV PBE+vdW (tier 2 basis)
C    -0.205073  1.707740  -0.277546
C    -0.286293  0.330733  0.299595
O    0.440265  -0.594264  -0.057836
H    0.855706  1.990025  -0.325933
H    -0.747829  2.465048  0.297200
H    -0.563184  1.703274  -1.317562
N    -1.212379  0.081643  1.341956
C    -2.633857  0.350992  1.124497
C    -3.328688  0.588847  2.469929
O    -4.617422  0.759524  2.532956
H    -1.062275  -0.884156  1.644702
H    -2.716816  1.326177  0.613657
C    -3.278960  -0.709229  0.178302
C    -2.940305  -2.190232  0.462723
C    -2.787963  -3.073038  -0.794538
C    -1.625418  -2.797850  -1.751575
N    -0.248477  -3.038702  -1.154918
H    -2.927927  -0.430329  -0.825667
H    -4.368302  -0.568952  0.143689
H    -3.725167  -2.640175  1.085625
H    -2.024901  -2.289546  1.066577
H    -3.697680  -3.000955  -1.409994
H    -2.746863  -4.126342  -0.476521
H    -1.710969  -3.462047  -2.619448
H    -1.605320  -1.767571  -2.128753
H    -0.206209  -3.917908  -0.622570
H    0.052608  -2.233829  -0.544589
H    0.456576  -3.110574  -1.902303
N    -2.579266  0.680507  3.538423
C    -3.010883  0.968271  4.906390
H    -1.573847  0.600669  3.340041
H    -3.876122  0.348964  5.171674
H    -3.247898  2.035309  5.019424
H    -2.190837  0.724278  5.588190
Ca    -6.560089  1.280222  2.823962
