35
Energy: -36759.945275 eV PBE+vdW (tier 2 basis)
C    -0.778987  1.006914  0.170400
C    -0.745663  0.464424  1.559981
O    0.166985  -0.351922  1.904739
H    0.166303  1.526618  -0.041002
H    -1.612005  1.691907  -0.018364
H    -0.835427  0.165228  -0.535268
N    -1.696519  0.864995  2.420211
C    -1.983456  0.428629  3.808502
C    -0.823472  0.728779  4.783541
O    0.283585  0.103554  4.714119
H    -2.352110  1.544090  2.041512
H    -2.821947  1.071301  4.111130
C    -2.464761  -1.040926  3.917657
C    -3.806887  -1.300391  3.203681
C    -4.265874  -2.778028  3.254245
C    -5.122667  -3.212760  4.447887
N    -6.616063  -2.993057  4.214415
H    -2.542634  -1.278997  4.990110
H    -1.696287  -1.711233  3.505571
H    -3.711175  -1.016051  2.146587
H    -4.581453  -0.635019  3.621555
H    -3.384593  -3.435700  3.249230
H    -4.794588  -3.030881  2.322161
H    -4.879274  -2.680067  5.375689
H    -5.021541  -4.287540  4.638120
H    -6.952347  -3.542169  3.408606
H    -6.851564  -2.007420  4.032485
H    -7.168564  -3.292529  5.032804
N    -1.044325  1.630878  5.722962
C    -0.096249  2.021076  6.773044
H    -1.935782  2.122064  5.713033
H    -0.655807  2.222789  7.692231
H    0.439309  2.932217  6.475447
H    0.615939  1.210599  6.945206
Ca    1.644898  -0.802370  3.347776
