35
Energy: -36758.4842151 eV PBE+vdW (tier 2 basis)
C    -0.294812  0.077839  -0.769504
C    0.017207  -0.369677  0.615453
O    1.258790  -0.719962  0.852710
H    -1.347768  0.302614  -0.928922
H    0.005684  -0.692691  -1.487996
H    0.292874  0.989175  -0.966998
N    -0.773780  -0.212859  1.682037
C    -2.216172  -0.516228  1.719866
C    -2.309388  -1.969893  1.127826
O    -1.483875  -2.273481  0.254938
H    -0.299219  -0.416649  2.561385
H    -2.471992  -0.501198  2.787039
C    -3.134089  0.508812  0.996822
C    -4.601927  0.438009  1.455131
C    -5.566996  1.427636  0.763784
C    -5.479630  2.863336  1.279223
N    -6.601195  3.717761  0.699394
H    -3.102373  0.345657  -0.088645
H    -2.710119  1.505193  1.191370
H    -4.668485  0.566878  2.547128
H    -4.994985  -0.563610  1.240746
H    -6.588718  1.055130  0.937671
H    -5.409709  1.406762  -0.326562
H    -4.545721  3.369042  1.005778
H    -5.597965  2.916370  2.368960
H    -6.555919  4.688615  1.043473
H    -7.528597  3.346567  0.955620
H    -6.563539  3.754589  -0.329952
N    -3.253674  -2.817685  1.559124
C    -4.173446  -2.738436  2.693205
H    -3.243947  -3.706216  1.057627
H    -4.067056  -3.643573  3.303006
H    -5.215000  -2.672867  2.353944
H    -3.949481  -1.876675  3.327617
Ca    3.095007  -1.517273  0.685990
