35
Energy: -36758.6037149 eV PBE+vdW (tier 2 basis)
C    -0.893774  0.311680  -1.085127
C    -0.290092  0.286609  0.275718
O    0.966199  0.620853  0.396029
H    -1.938867  -0.005964  -1.106800
H    -0.316311  -0.370135  -1.728283
H    -0.830154  1.321750  -1.508180
N    -0.916560  -0.219234  1.334054
C    -2.366335  -0.069774  1.528920
C    -2.662694  1.461886  1.268562
O    -1.706393  2.214192  1.046518
H    -0.365792  -0.200597  2.193221
H    -2.891249  -0.662799  0.764913
C    -2.768983  -0.575410  2.929342
C    -2.724352  -2.108855  3.063017
C    -3.065189  -2.676980  4.459364
C    -4.555389  -2.651371  4.798713
N    -4.834853  -3.394505  6.099959
H    -3.778394  -0.199418  3.138390
H    -2.118588  -0.097102  3.680909
H    -1.715884  -2.469693  2.813818
H    -3.390159  -2.563256  2.311861
H    -2.494172  -2.140750  5.234351
H    -2.717613  -3.721749  4.479872
H    -5.158702  -3.154965  4.032695
H    -4.950331  -1.638549  4.943793
H    -4.543175  -4.381868  6.041442
H    -5.839519  -3.387052  6.332177
H    -4.333453  -2.975867  6.897273
N    -3.937259  1.879111  1.261910
C    -5.178124  1.114772  1.357786
H    -4.031072  2.883690  1.117085
H    -5.926231  1.584282  0.709772
H    -5.574327  1.107239  2.382912
H    -5.041280  0.086335  1.005949
Ca    2.629188  1.728746  0.153541
