35
Energy: -36757.754117 eV PBE+vdW (tier 2 basis)
C    0.441131  -1.080195  1.609309
C    -0.168154  -0.825633  2.957666
O    0.321489  -1.266104  3.998664
H    0.269757  -2.122884  1.303092
H    1.528423  -0.966117  1.707849
H    0.085044  -0.403370  0.825563
N    -1.311813  -0.030610  3.042712
C    -2.465327  -0.229116  2.175563
C    -2.907783  1.038401  1.433902
O    -3.325380  0.919802  0.197004
H    -1.548143  0.108328  4.024599
H    -2.170433  -0.926169  1.380642
C    -3.682408  -0.844636  2.959751
C    -3.305488  -1.809289  4.103359
C    -2.628570  -3.141579  3.728676
C    -2.087593  -3.899991  4.949396
N    -0.666489  -3.491910  5.331232
H    -4.340299  -1.348079  2.237043
H    -4.277917  -0.031900  3.401138
H    -4.245131  -2.037846  4.628104
H    -2.700415  -1.274089  4.852490
H    -1.822006  -3.017016  2.989225
H    -3.365280  -3.798344  3.245018
H    -2.714414  -3.728089  5.832567
H    -2.058642  -4.980139  4.772029
H    -0.512011  -3.571754  6.345102
H    -0.408469  -2.518284  5.026866
H    0.023661  -4.108496  4.882799
N    -2.908891  2.234573  1.974464
C    -2.555061  2.659696  3.340781
H    -3.204529  2.991376  1.356805
H    -2.961890  3.664753  3.486224
H    -1.466111  2.690725  3.461250
H    -3.006818  1.996357  4.084726
Ca    -4.019964  0.883220  -1.712215
