35
Energy: -36759.718652 eV PBE+vdW (tier 2 basis)
C    0.446118  -0.395954  0.484329
C    0.367546  0.193121  1.854228
O    1.167282  1.123311  2.188399
H    1.483898  -0.660614  0.245301
H    0.149445  0.383947  -0.235098
H    -0.198440  -1.268843  0.337305
N    -0.562020  -0.296554  2.693450
C    -1.160423  0.211887  3.946083
C    -0.208814  0.885990  4.941098
O    1.051940  0.689778  4.941160
H    -1.134044  -1.025988  2.272083
H    -1.895160  0.980391  3.654059
C    -1.969014  -0.947844  4.607119
C    -1.135243  -2.107921  5.179654
C    -1.922653  -3.408960  5.463843
C    -2.885822  -3.335607  6.649858
N    -3.502915  -4.698827  6.938862
H    -2.661157  -1.317518  3.832310
H    -2.613758  -0.504906  5.377599
H    -0.611876  -1.786897  6.093767
H    -0.344604  -2.379610  4.465152
H    -1.181465  -4.199795  5.657739
H    -2.471992  -3.711283  4.557536
H    -3.731275  -2.657847  6.479430
H    -2.378153  -3.035002  7.575237
H    -4.150723  -4.657681  7.740662
H    -2.784224  -5.403114  7.165360
H    -4.038243  -5.058737  6.134352
N    -0.736987  1.690411  5.856807
C    -2.118402  2.143490  6.060299
H    -0.058863  2.036288  6.537538
H    -2.087994  3.174171  6.429448
H    -2.625862  1.522896  6.809768
H    -2.685263  2.132405  5.124650
Ca    2.620405  1.454975  3.680010
