35
Energy: -36758.2745086 eV PBE+vdW (tier 2 basis)
C    0.037832  0.394895  0.331126
C    -0.298409  0.083711  1.744655
O    0.664407  0.125132  2.633740
H    0.574407  1.352766  0.290995
H    0.721742  -0.377715  -0.052769
H    -0.830446  0.449848  -0.328148
N    -1.501034  -0.254564  2.167837
C    -2.827388  -0.378103  1.487025
C    -2.783556  -0.917402  0.030378
O    -3.194924  -0.214790  -0.908475
H    -1.552404  -0.434842  3.172552
H    -3.331345  -1.157109  2.080176
C    -3.682004  0.895907  1.612981
C    -3.140588  2.201947  0.993793
C    -4.253446  3.147189  0.479578
C    -4.540518  3.094012  -1.018808
N    -5.078556  1.756361  -1.496104
H    -3.903760  1.058444  2.677849
H    -4.650768  0.618549  1.172746
H    -2.450138  1.991013  0.166096
H    -2.556968  2.738028  1.753872
H    -3.963985  4.189790  0.671168
H    -5.182390  3.002693  1.053520
H    -3.633274  3.277360  -1.608439
H    -5.283666  3.850427  -1.297962
H    -4.407240  0.975606  -1.275160
H    -5.987837  1.543657  -1.065566
H    -5.227728  1.767346  -2.514301
N    -2.342490  -2.170234  -0.164329
C    -1.970996  -3.180458  0.826341
H    -2.395691  -2.472565  -1.137088
H    -1.918278  -4.149145  0.321055
H    -2.724185  -3.265406  1.620614
H    -0.986413  -2.980460  1.270364
Ca    2.368095  0.276765  3.730218
