35
Energy: -36758.3338207 eV PBE+vdW (tier 2 basis)
C    0.026953  0.530531  0.493138
C    -0.249825  0.165260  1.908316
O    0.653011  -0.506937  2.574445
H    -0.085913  -0.364532  -0.139296
H    1.062740  0.877658  0.391654
H    -0.644287  1.302329  0.107663
N    -1.376724  0.483200  2.516439
C    -2.496798  1.318816  1.991157
C    -3.382331  1.847568  3.146417
O    -3.824060  2.997214  3.065194
H    -1.441540  0.215226  3.501038
H    -2.037699  2.217339  1.558881
C    -3.385065  0.600890  0.925734
C    -3.744129  1.457532  -0.308522
C    -4.355103  2.850005  -0.072073
C    -5.742445  2.849253  0.583074
N    -5.903123  4.072913  1.462495
H    -4.293195  0.223620  1.417618
H    -2.862316  -0.296867  0.567690
H    -4.417142  0.854181  -0.935406
H    -2.840662  1.605132  -0.919236
H    -4.414406  3.362670  -1.041693
H    -3.668638  3.450149  0.544256
H    -5.901496  1.993022  1.248874
H    -6.554123  2.859376  -0.152833
H    -6.844014  4.131895  1.875195
H    -5.744251  4.944906  0.939026
H    -5.201551  4.007269  2.230479
N    -3.652982  1.011751  4.172197
C    -4.512639  1.409170  5.295861
H    -3.507823  0.012857  4.051397
H    -4.293830  0.765748  6.153088
H    -5.575428  1.312743  5.037250
H    -4.298690  2.449253  5.558348
Ca    2.315842  -1.479788  3.221567
