35
Energy: -36758.2534754 eV PBE+vdW (tier 2 basis)
C    0.522793  0.734896  -0.258203
C    0.144714  0.442926  1.162810
O    0.952291  0.089917  2.030290
H    1.108538  1.665720  -0.287055
H    -0.334991  0.850011  -0.929921
H    1.178695  -0.061622  -0.630370
N    -1.195406  0.585221  1.495959
C    -1.542288  0.591077  2.916172
C    -2.965171  0.079406  3.106127
O    -3.352370  -1.005257  2.499299
H    -1.759039  1.148996  0.862232
H    -0.905898  -0.203807  3.349806
C    -1.181283  1.918229  3.640338
C    -0.618534  1.768632  5.067915
C    0.755819  1.075570  5.162442
C    1.911339  1.895369  4.567280
N    2.922229  0.996363  3.882808
H    -2.028198  2.624205  3.631605
H    -0.438613  2.415550  3.002560
H    -1.318231  1.209629  5.708699
H    -0.558421  2.770967  5.516315
H    0.712137  0.097408  4.659730
H    0.967728  0.863276  6.218439
H    2.447640  2.470282  5.330444
H    1.579927  2.596618  3.792438
H    3.723640  1.533326  3.522886
H    2.456760  0.513619  3.082873
H    3.299827  0.286244  4.525148
N    -3.788688  0.697063  3.918415
C    -5.152244  0.281149  4.263966
H    -3.442404  1.554841  4.347021
H    -5.547547  0.978933  5.007193
H    -5.145534  -0.726243  4.698382
H    -5.798711  0.313533  3.377684
Ca    -3.925549  -2.673905  1.511558
