35
Energy: -36758.4077476 eV PBE+vdW (tier 2 basis)
C    -0.823786  1.629900  0.479356
C    -0.887541  0.254048  1.053781
O    -0.324309  -0.731197  0.414907
H    0.226627  1.945311  0.389533
H    -1.348952  2.374336  1.087726
H    -1.263261  1.636123  -0.528818
N    -1.509585  0.060216  2.204355
C    -1.641591  -1.165736  3.014447
C    -2.996169  -1.909318  2.852604
O    -3.033823  -3.095500  3.212223
H    -1.852718  0.915107  2.646313
H    -0.883262  -1.876197  2.662791
C    -1.347658  -0.782411  4.490773
C    -1.413449  -1.943917  5.503211
C    -2.758620  -2.082212  6.249832
C    -3.014174  -3.487153  6.787947
N    -3.557150  -4.401947  5.690370
H    -2.039275  0.020249  4.797205
H    -0.340053  -0.344367  4.505686
H    -0.624674  -1.785153  6.249982
H    -1.149321  -2.881689  4.992825
H    -3.611036  -1.773234  5.624045
H    -2.769656  -1.396075  7.107695
H    -3.752817  -3.495723  7.596540
H    -2.095815  -3.951985  7.166018
H    -3.279878  -5.381287  5.833284
H    -3.244760  -4.084266  4.743495
H    -4.584581  -4.382235  5.679645
N    -4.049809  -1.240569  2.363091
C    -5.385202  -1.829548  2.220850
H    -3.950275  -0.261257  2.118998
H    -5.897272  -1.356047  1.377681
H    -5.982077  -1.671834  3.128838
H    -5.287333  -2.902348  2.031261
Ca    0.759648  -1.692380  -1.018946
