35
Energy: -36758.6040734 eV PBE+vdW (tier 2 basis)
C    -1.423665  -1.162183  -0.228854
C    -0.634955  -0.481731  0.835078
O    0.671221  -0.633331  0.828132
H    -1.225555  -2.243034  -0.195849
H    -1.096463  -0.803977  -1.215735
H    -2.500868  -1.002144  -0.138084
N    -1.165154  0.258955  1.771631
C    -2.535467  0.783425  1.913794
C    -2.266284  2.118907  2.676286
O    -1.188590  2.210609  3.286062
H    -0.574775  0.791128  2.462829
H    -2.949860  0.975447  0.916399
C    -3.498299  -0.152031  2.690222
C    -3.194987  -0.353977  4.185493
C    -4.105556  -1.409761  4.851247
C    -5.498956  -0.958851  5.294639
N    -5.491596  -0.326420  6.685083
H    -3.501118  -1.129361  2.183014
H    -4.510101  0.256686  2.549161
H    -3.248680  0.610607  4.717146
H    -2.155099  -0.688313  4.308233
H    -3.585267  -1.860045  5.711420
H    -4.260297  -2.248414  4.156454
H    -6.188080  -1.807894  5.371015
H    -5.950572  -0.215458  4.626127
H    -6.436228  -0.018945  6.961854
H    -4.871935  0.493538  6.741951
H    -5.173210  -1.000868  7.396920
N    -3.198327  3.079331  2.669316
C    -4.462552  3.142570  1.937539
H    -2.933530  3.904846  3.206254
H    -4.618392  4.169054  1.588866
H    -5.313408  2.862699  2.573245
H    -4.445117  2.494855  1.055027
Ca    2.647436  -0.814551  0.524030
