35
Energy: -36758.2378816 eV PBE+vdW (tier 2 basis)
C    0.088534  0.328643  0.467881
C    -0.090820  0.197974  1.937575
O    0.954156  0.338095  2.714042
H    0.786387  -0.449387  0.122697
H    0.549255  1.300857  0.241439
H    -0.840575  0.236951  -0.100957
N    -1.252943  -0.066657  2.504425
C    -2.607872  -0.159848  1.880321
C    -2.682282  -1.230294  0.749439
O    -3.069095  -0.927028  -0.387633
H    -1.233812  -0.137817  3.522637
H    -3.233906  -0.553346  2.695256
C    -3.105784  1.268423  1.534594
C    -4.357146  1.435092  0.652391
C    -5.606087  0.596319  0.987402
C    -6.504069  0.419896  -0.234238
N    -5.890190  -0.580933  -1.215849
H    -2.293681  1.814576  1.034648
H    -3.262446  1.774411  2.499067
H    -4.052246  1.261054  -0.386167
H    -4.631695  2.498472  0.703286
H    -6.204920  1.084734  1.768106
H    -5.359522  -0.399416  1.390797
H    -6.628596  1.362211  -0.781062
H    -7.498937  0.039978  0.021788
H    -6.220863  -1.534144  -1.019958
H    -6.146604  -0.370127  -2.189327
H    -4.850204  -0.601488  -1.136664
N    -2.359451  -2.498068  1.077045
C    -2.011769  -3.072271  2.374935
H    -2.430793  -3.145642  0.292983
H    -2.229033  -4.144648  2.346673
H    -2.617003  -2.641200  3.182501
H    -0.944550  -2.952536  2.608257
Ca    2.754327  0.721001  3.571515
