35
Energy: -36759.9032766 eV PBE+vdW (tier 2 basis)
C    -0.593296  -0.196072  0.117308
C    -0.670934  -0.503798  1.575234
O    0.102799  -1.372881  2.088065
H    -1.320250  0.551161  -0.217334
H    -0.742317  -1.126898  -0.448881
H    0.418652  0.157321  -0.127002
N    -1.575375  0.157192  2.317854
C    -1.917640  0.001798  3.751791
C    -0.735846  0.368658  4.677906
O    0.298670  -0.370635  4.750523
H    -2.102892  0.868103  1.817472
H    -2.693630  0.761432  3.917305
C    -2.519322  -1.388250  4.123553
C    -4.060725  -1.441059  4.225774
C    -4.831160  -1.397763  2.894758
C    -6.357138  -1.335247  3.012826
N    -7.001277  -2.636669  3.482822
H    -2.121515  -1.677680  5.106064
H    -2.157060  -2.143566  3.412020
H    -4.404924  -0.624869  4.881928
H    -4.294838  -2.372029  4.766249
H    -4.539727  -2.241755  2.248131
H    -4.566483  -0.492464  2.326151
H    -6.814565  -1.121645  2.039644
H    -6.688078  -0.565339  3.721460
H    -8.028561  -2.541118  3.512265
H    -6.700401  -2.911790  4.428176
H    -6.791680  -3.420266  2.846798
N    -0.862376  1.450179  5.424922
C    0.117296  1.934488  6.404569
H    -1.700979  2.015190  5.308551
H    -0.419958  2.305254  7.283931
H    0.703333  2.755932  5.971994
H    0.780895  1.116885  6.694798
Ca    1.486849  -1.751807  3.648191
