35
Energy: -36757.92243 eV PBE+vdW (tier 2 basis)
C    -0.982654  0.740149  -0.376795
C    -0.651608  0.432119  1.051616
O    0.335849  -0.229640  1.401129
H    -0.154487  1.308320  -0.822142
H    -1.910462  1.307156  -0.509330
H    -1.052496  -0.203952  -0.933599
N    -1.503050  0.926203  2.011846
C    -1.291287  0.612212  3.431315
C    -2.523594  1.027455  4.229642
O    -3.194582  0.111320  4.880712
H    -2.364347  1.362403  1.699721
H    -1.228049  -0.482272  3.528532
C    0.031080  1.227110  4.024828
C    0.840883  0.283112  4.932633
C    1.490847  -0.975397  4.319603
C    2.871001  -0.853177  3.670998
N    2.890431  -0.115550  2.337827
H    -0.201654  2.127668  4.608573
H    0.619570  1.579055  3.169981
H    0.188467  -0.047589  5.757126
H    1.613233  0.888685  5.431397
H    0.810844  -1.484591  3.621292
H    1.657053  -1.688204  5.140776
H    3.255989  -1.857319  3.460112
H    3.594022  -0.350203  4.324838
H    3.657386  -0.457304  1.743944
H    3.045760  0.891347  2.462532
H    1.980224  -0.233953  1.821967
N    -2.940494  2.271984  4.309007
C    -2.390049  3.501629  3.716117
H    -3.769181  2.420394  4.888671
H    -2.038907  4.158273  4.522825
H    -3.193442  4.014287  3.172305
H    -1.569019  3.277572  3.034026
Ca    -4.326971  -1.295534  5.816829
