35
Energy: -36759.1485833 eV PBE+vdW (tier 2 basis)
C    0.145475  0.691101  0.192492
C    0.044332  0.195972  1.596474
O    1.004991  -0.475349  2.091536
H    1.207865  0.799876  -0.056096
H    -0.365287  1.645117  0.039377
H    -0.275691  -0.047827  -0.508243
N    -1.029627  0.455787  2.393015
C    -2.432703  0.176680  2.038037
C    -2.551647  -1.373789  1.860368
O    -1.487844  -2.080289  1.759848
H    -0.825976  0.225350  3.367409
H    -3.005550  0.432688  2.943293
C    -3.020768  1.005273  0.869623
C    -2.973351  2.527430  1.120048
C    -3.420000  3.367359  -0.103250
C    -4.889230  3.794380  -0.173212
N    -5.160269  5.103581  0.565319
H    -4.059782  0.679686  0.723416
H    -2.506107  0.759744  -0.068583
H    -1.947161  2.817662  1.383376
H    -3.576270  2.771086  2.010849
H    -3.220715  2.805942  -1.027788
H    -2.784092  4.262004  -0.189357
H    -5.577563  3.055783  0.256202
H    -5.197631  3.983529  -1.208030
H    -6.156048  5.366681  0.502934
H    -4.618989  5.880884  0.156917
H    -4.919875  5.055701  1.565385
N    -3.728965  -1.969880  1.855753
C    -5.071036  -1.414915  2.060343
H    -3.688335  -2.981634  1.715743
H    -5.648732  -2.131902  2.654035
H    -5.578933  -1.271029  1.098099
H    -5.027028  -0.471296  2.611741
Ca    0.583588  -2.584530  2.176125
