35
Energy: -36758.316417 eV PBE+vdW (tier 2 basis)
C    -0.374810  -0.469373  -0.203476
C    -0.211461  -0.537345  1.270065
O    0.998016  -0.699842  1.754960
H    0.206736  0.380319  -0.591429
H    -1.419830  -0.393401  -0.522153
H    0.046021  -1.383560  -0.648549
N    -1.203677  -0.451135  2.139022
C    -2.669889  -0.220046  1.937059
C    -3.289366  -1.326546  1.028270
O    -3.389808  -1.129647  -0.181405
H    -0.915164  -0.526841  3.114927
H    -3.075516  -0.318831  2.951778
C    -2.945356  1.202592  1.409680
C    -4.418932  1.565968  1.129417
C    -5.374188  1.522827  2.335374
C    -6.640853  2.363735  2.182585
N    -7.567033  1.879596  1.069287
H    -2.401110  1.345481  0.467666
H    -2.524637  1.914858  2.135868
H    -4.781591  0.923820  0.312735
H    -4.392920  2.592789  0.731591
H    -4.878248  1.938007  3.227201
H    -5.647451  0.487837  2.599570
H    -6.408703  3.408721  1.940763
H    -7.245141  2.348158  3.097262
H    -8.408113  2.473272  1.010023
H    -7.888128  0.914468  1.231353
H    -7.111545  1.905978  0.146243
N    -3.707057  -2.458721  1.637209
C    -3.634544  -2.825783  3.049973
H    -4.099986  -3.143786  0.993619
H    -4.058549  -3.827820  3.163892
H    -4.221004  -2.148805  3.686603
H    -2.598986  -2.868105  3.415648
Ca    2.988590  -0.955078  1.990341
