35
Energy: -36759.7383012 eV PBE+vdW (tier 2 basis)
C    2.307323  -0.998255  2.691654
C    1.216563  -0.170381  3.280322
O    1.378997  0.397980  4.406342
H    3.222968  -0.395407  2.614739
H    2.533282  -1.822732  3.384586
H    2.065926  -1.414468  1.708237
N    0.068770  -0.044150  2.593343
C    -1.210343  0.593824  2.995670
C    -1.010113  2.104213  3.254047
O    -0.526167  2.516895  4.358786
H    0.044230  -0.535912  1.703098
H    -1.839199  0.493286  2.103351
C    -1.899727  -0.140495  4.171842
C    -3.435567  0.005163  4.281089
C    -4.237390  -0.788642  3.220555
C    -5.543513  -1.430888  3.693207
N    -6.678595  -0.446300  3.963783
H    -1.449394  0.187539  5.118066
H    -1.652067  -1.207181  4.073495
H    -3.722275  1.068804  4.280111
H    -3.695054  -0.371779  5.282356
H    -3.638065  -1.647821  2.880148
H    -4.425336  -0.190873  2.314628
H    -5.408607  -1.994462  4.625222
H    -5.933101  -2.118677  2.933093
H    -7.528195  -0.949681  4.264470
H    -6.931954  0.088723  3.120286
H    -6.451270  0.227629  4.707903
N    -1.350191  2.976749  2.319613
C    -1.867529  2.733860  0.964341
H    -1.196188  3.953490  2.577287
H    -1.952329  3.701369  0.461380
H    -2.865121  2.279068  0.993909
H    -1.179360  2.109358  0.382900
Ca    1.120901  2.068215  5.662879
