35
Energy: -36759.5476716 eV PBE+vdW (tier 2 basis)
C    -0.292933  -0.253643  0.270583
C    -0.392549  -0.132434  1.749592
O    0.633179  -0.289437  2.484230
H    0.173336  -1.228954  0.057335
H    0.392491  0.499669  -0.143653
H    -1.256235  -0.204841  -0.243903
N    -1.585461  0.122836  2.354487
C    -2.433321  1.249586  1.960151
C    -1.674039  2.556849  2.389945
O    -0.523214  2.471658  2.937598
H    -1.541721  -0.008961  3.367462
H    -2.496770  1.267395  0.860940
C    -3.850164  1.126086  2.562412
C    -4.673192  -0.065914  2.032448
C    -6.022912  -0.179983  2.770307
C    -6.866080  -1.424167  2.485699
N    -7.667258  -1.352939  1.187648
H    -4.399613  2.058988  2.367912
H    -3.762587  1.061731  3.659727
H    -4.104168  -0.997995  2.171154
H    -4.820382  0.054073  0.946245
H    -6.631707  0.726972  2.620280
H    -5.831694  -0.214958  3.853871
H    -7.614805  -1.568110  3.273560
H    -6.262650  -2.338220  2.419648
H    -8.319935  -0.555006  1.189932
H    -8.236178  -2.204992  1.064434
H    -7.070825  -1.266197  0.353782
N    -2.230283  3.725765  2.151176
C    -1.628560  5.029274  2.472753
H    -3.135245  3.740045  1.686730
H    -2.382024  5.804466  2.311012
H    -0.768844  5.223097  1.819418
H    -1.310695  5.047723  3.520640
Ca    1.316585  1.479154  3.516133
