35
Energy: -36759.3083992 eV PBE+vdW (tier 2 basis)
C    -0.003214  1.283955  0.660064
C    -0.177114  0.028777  1.438529
O    0.750451  -0.840574  1.468497
H    0.596264  1.963813  1.291340
H    -0.938008  1.798911  0.425046
H    0.582825  1.109296  -0.248578
N    -1.303620  -0.206678  2.164295
C    -2.665818  -0.098109  1.611967
C    -2.685265  -0.908799  0.275153
O    -1.730337  -1.714680  0.011385
H    -1.186984  -0.989135  2.808782
H    -3.277806  -0.699373  2.304257
C    -3.280230  1.334979  1.602917
C    -4.752532  1.362971  2.068551
C    -5.436206  2.750471  2.089640
C    -5.065403  3.614994  3.296752
N    -5.932197  4.866224  3.364312
H    -3.185297  1.795751  0.608197
H    -2.662216  1.934164  2.284789
H    -4.827041  0.903908  3.067248
H    -5.371082  0.725037  1.417740
H    -6.522668  2.572880  2.106635
H    -5.223586  3.293647  1.155076
H    -4.028169  3.970637  3.275459
H    -5.231952  3.086434  4.243982
H    -5.689148  5.448033  4.180866
H    -6.933356  4.631785  3.447397
H    -5.826747  5.458029  2.526694
N    -3.713564  -0.789718  -0.539143
C    -3.897356  -1.562011  -1.777775
H    -4.451092  -0.138155  -0.285551
H    -3.918094  -2.635079  -1.554714
H    -3.086589  -1.346221  -2.483228
H    -4.849930  -1.269872  -2.226797
Ca    0.251054  -2.574656  0.290460
