35
Energy: -36758.5159307 eV PBE+vdW (tier 2 basis)
C    0.408294  -0.773989  -0.023327
C    0.357195  -0.055364  1.279666
O    1.467094  0.460278  1.746827
H    -0.562828  -1.138994  -0.365282
H    1.084184  -1.637461  0.068989
H    0.826091  -0.112346  -0.795338
N    -0.747058  0.080362  1.979485
C    -2.124426  -0.311180  1.613114
C    -3.043929  0.665592  2.386335
O    -2.726440  1.012560  3.543392
H    -0.714502  0.582362  2.877859
H    -2.245984  -0.137447  0.535901
C    -2.476376  -1.801098  1.904144
C    -1.989942  -2.483283  3.197483
C    -2.345931  -1.877742  4.567366
C    -3.844434  -1.671805  4.827914
N    -4.058171  -0.414615  5.649133
H    -3.569990  -1.875598  1.805159
H    -2.084963  -2.398513  1.068152
H    -0.894622  -2.582936  3.166089
H    -2.363871  -3.516579  3.147371
H    -1.835653  -0.911037  4.678487
H    -1.932742  -2.535671  5.343989
H    -4.299876  -2.505917  5.373076
H    -4.422435  -1.518302  3.908943
H    -5.053709  -0.248044  5.850643
H    -3.677350  0.392271  5.104361
H    -3.570511  -0.463398  6.554261
N    -4.153293  1.046714  1.750018
C    -5.166088  1.942307  2.314160
H    -4.307573  0.717381  0.800420
H    -5.473724  2.663118  1.549070
H    -4.734944  2.482266  3.161799
H    -6.051278  1.377522  2.635422
Ca    3.345096  1.185470  1.980450
