35
Energy: -36759.1182309 eV PBE+vdW (tier 2 basis)
C    0.554913  0.398519  0.458310
C    -0.071634  -0.746087  1.180262
O    0.561136  -1.837983  1.329160
H    0.146468  0.483389  -0.562463
H    0.375799  1.351747  0.967216
H    1.632195  0.223957  0.372679
N    -1.333520  -0.664192  1.685137
C    -2.487102  -0.183415  0.905392
C    -2.524881  -1.029275  -0.414292
O    -1.806871  -2.080820  -0.510336
H    -1.554254  -1.457440  2.287818
H    -3.361869  -0.522884  1.483246
C    -2.591961  1.361646  0.747598
C    -4.026851  1.937126  0.857270
C    -4.560198  2.123400  2.297861
C    -4.191854  3.433904  3.001315
N    -5.115729  4.589843  2.625907
H    -2.141768  1.674850  -0.204040
H    -1.964357  1.802282  1.534214
H    -4.743564  1.299072  0.317151
H    -4.044322  2.893880  0.313021
H    -4.192069  1.315831  2.948587
H    -5.654494  2.003189  2.310535
H    -3.173624  3.775458  2.775747
H    -4.283675  3.336772  4.089340
H    -4.842740  5.455077  3.117776
H    -6.093058  4.391189  2.889173
H    -5.105762  4.800449  1.617862
N    -3.326966  -0.666776  -1.394364
C    -3.514515  -1.415503  -2.647235
H    -3.869994  0.184660  -1.279502
H    -4.306644  -0.929557  -3.222499
H    -3.808574  -2.448209  -2.428653
H    -2.589448  -1.410347  -3.236043
Ca    -0.178146  -3.412945  0.052566
