35
Energy: -36757.9382325 eV PBE+vdW (tier 2 basis)
C    0.242375  0.791183  -0.676533
C    0.384738  0.551822  0.797664
O    1.423460  0.790389  1.409380
H    0.748834  1.720081  -0.960061
H    -0.790872  0.801571  -1.039896
H    0.777175  -0.022000  -1.193713
N    -0.666871  -0.078321  1.491331
C    -2.082396  0.308393  1.459971
C    -2.891375  -0.599626  0.522291
O    -4.159962  -0.388999  0.323507
H    -0.347719  -0.332361  2.425712
H    -2.465251  0.046289  2.460874
C    -2.378347  1.828546  1.245632
C    -1.313958  2.804135  1.787656
C    -0.934532  2.717976  3.279583
C    0.331926  3.516277  3.623091
N    1.609227  2.698516  3.470691
H    -3.348001  2.043719  1.717632
H    -2.495823  2.040393  0.173527
H    -1.697237  3.816342  1.590291
H    -0.413341  2.733507  1.163278
H    -0.807274  1.680154  3.627002
H    -1.751390  3.125552  3.891300
H    0.441623  4.394095  2.974690
H    0.318405  3.869275  4.659907
H    2.430635  3.310240  3.365965
H    1.587917  2.033979  2.655065
H    1.778461  2.124919  4.307663
N    -2.280495  -1.614219  -0.031287
C    -2.865121  -2.629243  -0.908307
H    -1.291969  -1.689376  0.235367
H    -2.063646  -3.279765  -1.269422
H    -3.344224  -2.157148  -1.775444
H    -3.586909  -3.245847  -0.355803
Ca    -6.156564  -0.279947  -0.030009
