35
Energy: -36759.9313807 eV PBE+vdW (tier 2 basis)
C    -2.214444  -4.403090  -0.259599
C    -1.438431  -3.588067  0.716429
O    -0.167228  -3.614120  0.720273
H    -1.952448  -5.463864  -0.139541
H    -1.909616  -4.120398  -1.277834
H    -3.299001  -4.289215  -0.162395
N    -2.100883  -2.815287  1.595783
C    -1.469865  -1.895380  2.558764
C    -0.732713  -2.703104  3.664906
O    0.503163  -2.960474  3.456334
H    -3.117295  -2.854571  1.573723
H    -0.641585  -1.404103  2.026048
C    -2.439256  -0.795367  3.038253
C    -2.667590  0.356420  2.034609
C    -3.477671  1.494381  2.691908
C    -3.573024  2.818644  1.931014
N    -4.654890  2.849457  0.853689
H    -2.014839  -0.370841  3.960685
H    -3.405313  -1.233848  3.327733
H    -3.170630  -0.022499  1.130035
H    -1.692360  0.752392  1.709738
H    -2.993897  1.758139  3.644969
H    -4.486073  1.149327  2.974091
H    -2.635535  3.086301  1.427592
H    -3.833841  3.634228  2.615728
H    -4.689312  3.775879  0.400255
H    -5.589695  2.676945  1.252548
H    -4.499259  2.156039  0.109894
N    -1.300363  -3.142318  4.773350
C    -2.689867  -3.075543  5.242373
H    -0.648901  -3.621502  5.399080
H    -2.844193  -3.904675  5.939962
H    -3.392551  -3.197088  4.413197
H    -2.881706  -2.135828  5.774501
Ca    1.662343  -3.688552  1.813006
