35
Energy: -36757.8546673 eV PBE+vdW (tier 2 basis)
C    -0.424953  0.568890  -0.118541
C    -0.065968  0.192042  1.284635
O    1.000504  -0.268158  1.630242
H    0.382629  1.190949  -0.531910
H    -1.385906  1.086630  -0.224026
H    -0.450370  -0.331135  -0.752000
N    -1.088832  0.424184  2.327054
C    -2.264371  -0.518959  2.173035
C    -3.423306  0.039020  3.021255
O    -3.411453  1.297645  3.275174
H    -0.607365  0.160797  3.197942
H    -2.613999  -0.400723  1.132552
C    -1.887241  -2.009269  2.355856
C    -1.421737  -2.502215  3.747632
C    0.053983  -2.359829  4.193872
C    1.079074  -3.410044  3.757017
N    1.637046  -3.229392  2.344975
H    -1.153473  -2.248983  1.570748
H    -2.768131  -2.597133  2.051802
H    -1.691274  -3.566250  3.820110
H    -2.036917  -2.017132  4.521538
H    0.050624  -2.451173  5.290439
H    0.474227  -1.359880  4.003842
H    0.684106  -4.432575  3.806687
H    1.953881  -3.356748  4.415710
H    1.825306  -2.234548  2.134288
H    1.002058  -3.588801  1.621218
H    2.522490  -3.748206  2.239981
N    -4.414664  -0.733500  3.396132
C    -5.632615  -0.305900  4.101321
H    -4.362478  -1.721401  3.151296
H    -5.730180  -0.885394  5.027189
H    -6.502352  -0.504055  3.462271
H    -5.571379  0.759429  4.330205
Ca    -2.024074  2.776510  2.809015
