35
Energy: -36757.9401503 eV PBE+vdW (tier 2 basis)
C    0.191298  0.999949  0.315255
C    0.040155  0.263815  1.619422
O    0.972352  -0.010095  2.360769
H    0.950661  1.780901  0.430317
H    -0.737893  1.445719  -0.058526
H    0.569333  0.296002  -0.441037
N    -1.283652  -0.083845  1.944182
C    -1.635485  -1.076424  2.955467
C    -3.139480  -1.082606  3.221719
O    -3.720931  -2.257239  3.304455
H    -1.928376  -0.011022  1.160397
H    -1.439646  -2.094450  2.570628
C    -0.831232  -1.000863  4.301353
C    -0.676097  0.374872  4.970541
C    0.513021  0.452181  5.957410
C    1.860289  0.651491  5.261865
N    2.982855  0.822204  6.279267
H    0.151209  -1.417572  4.060470
H    -1.308927  -1.704556  5.002237
H    -1.585219  0.627923  5.533188
H    -0.547876  1.157444  4.211359
H    0.539069  -0.451427  6.587988
H    0.331806  1.300304  6.635644
H    2.150786  -0.185980  4.618532
H    1.872381  1.558572  4.646094
H    3.083377  -0.004117  6.886207
H    2.821786  1.633916  6.893892
H    3.889496  0.969364  5.811263
N    -3.897422  -0.022337  3.384539
C    -3.571071  1.411600  3.385155
H    -4.884196  -0.227135  3.555734
H    -4.252335  1.920016  2.692040
H    -2.538486  1.566665  3.075035
H    -3.734774  1.809999  4.394148
Ca    -4.540226  -4.105210  3.243920
