35
Energy: -36759.7396986 eV PBE+vdW (tier 2 basis)
C    0.508771  -2.027096  0.124518
C    -0.954853  -2.062500  0.393380
O    -1.645155  -3.095037  0.117083
H    0.693059  -2.247738  -0.936191
H    0.990552  -2.832403  0.699412
H    0.979406  -1.072953  0.382972
N    -1.544759  -0.986618  0.942858
C    -2.948135  -0.914820  1.391415
C    -3.894841  -0.945316  0.159009
O    -4.342067  -2.091748  -0.190800
H    -0.947622  -0.186336  1.142277
H    -3.171540  -1.866911  1.896874
C    -3.101127  0.232280  2.415198
C    -4.514502  0.398826  3.024720
C    -4.777652  -0.392850  4.325789
C    -4.274037  0.238507  5.628150
N    -5.222323  1.298983  6.182254
H    -2.785428  1.177852  1.958275
H    -2.367145  0.029387  3.210962
H    -5.280386  0.115448  2.287887
H    -4.683798  1.473409  3.192586
H    -4.305460  -1.384991  4.268179
H    -5.853719  -0.606059  4.421865
H    -3.299477  0.731797  5.521419
H    -4.188472  -0.511358  6.423199
H    -4.854308  1.700815  7.058683
H    -6.147776  0.899683  6.400687
H    -5.371569  2.082629  5.531112
N    -4.229858  0.117917  -0.551163
C    -3.805990  1.520515  -0.449972
H    -4.874315  -0.092696  -1.316186
H    -3.992951  1.992995  -1.419156
H    -2.735107  1.596309  -0.239705
H    -4.387800  2.056435  0.309895
Ca    -3.426227  -3.994534  -0.600889
