35
Energy: -36758.3429012 eV PBE+vdW (tier 2 basis)
C    0.682729  0.517429  1.887487
C    -0.439785  -0.331559  2.389741
O    -0.119754  -1.325357  3.180595
H    0.392451  1.213695  1.099089
H    1.489018  -0.115018  1.501820
H    1.070141  1.102477  2.737155
N    -1.732738  0.072124  2.403415
C    -2.360530  0.524192  1.153422
C    -1.815456  -0.482189  0.076362
O    -0.830690  -1.180973  0.388308
H    -2.322938  -0.550567  2.954241
H    -3.437498  0.348082  1.281825
C    -2.130526  2.020069  0.777540
C    -3.346038  2.967187  0.862084
C    -3.840797  3.288545  2.286653
C    -4.531659  4.641714  2.456232
N    -5.864425  4.761541  1.720374
H    -1.735284  2.074229  -0.245618
H    -1.339011  2.420802  1.423856
H    -4.166949  2.572017  0.242111
H    -3.024875  3.902729  0.376719
H    -2.979071  3.342457  2.970246
H    -4.482521  2.487481  2.687292
H    -3.911402  5.464860  2.079178
H    -4.760815  4.839816  3.509995
H    -6.287563  5.688109  1.883704
H    -6.544967  4.058307  2.041972
H    -5.759235  4.654976  0.701924
N    -2.408801  -0.565819  -1.114246
C    -3.583765  0.152312  -1.604157
H    -1.965492  -1.218325  -1.759478
H    -3.318659  1.139845  -2.004985
H    -4.033500  -0.435241  -2.410369
H    -4.336785  0.258598  -0.814414
Ca    0.835365  -2.971658  3.820242
