35
Energy: -36758.3967995 eV PBE+vdW (tier 2 basis)
C    -2.577811  0.514496  0.437521
C    -1.973911  0.392496  1.802635
O    -0.870508  0.907260  2.079275
H    -2.888135  1.558337  0.283759
H    -3.439557  -0.139775  0.267963
H    -1.805247  0.309748  -0.313588
N    -2.700442  -0.284332  2.742970
C    -2.309645  -0.643889  4.115920
C    -1.948046  0.564294  4.998134
O    -2.492273  0.651659  6.191083
H    -3.606749  -0.633815  2.446736
H    -3.231543  -1.033741  4.566286
C    -1.284884  -1.818365  4.222668
C    0.127294  -1.655311  3.633672
C    1.019259  -2.893135  3.895269
C    0.929239  -4.044019  2.890767
N    1.846613  -3.839020  1.686864
H    -1.791705  -2.681308  3.763579
H    -1.196804  -2.064812  5.293904
H    0.624929  -0.785793  4.083909
H    0.071207  -1.429804  2.558600
H    0.777308  -3.322202  4.878761
H    2.070936  -2.579238  3.986572
H    -0.078942  -4.187652  2.482441
H    1.252477  -4.991405  3.337504
H    1.761197  -4.616442  1.014581
H    2.835336  -3.797809  1.976486
H    1.640701  -2.968286  1.177819
N    -1.113318  1.458720  4.562578
C    -0.694623  2.658389  5.280104
H    -0.822298  1.291935  3.521301
H    0.062575  3.172828  4.681614
H    -0.253166  2.399848  6.251975
H    -1.541468  3.345692  5.420038
Ca    -3.370818  1.114971  7.940647
