35
Energy: -36759.2231446 eV PBE+vdW (tier 2 basis)
C    -0.082429  -0.310956  -0.097148
C    -0.049766  -0.121108  1.382672
O    1.052409  0.105318  1.972499
H    0.868506  0.022567  -0.524498
H    -0.907049  0.242437  -0.559075
H    -0.213204  -1.375469  -0.351271
N    -1.183655  -0.177955  2.136640
C    -2.153187  -1.289022  2.067477
C    -1.345458  -2.621658  2.276009
O    -0.104655  -2.569295  2.579091
H    -1.006140  0.129853  3.093703
H    -2.751180  -1.184123  2.987589
C    -3.153983  -1.279899  0.888910
C    -4.243450  -0.179442  0.939864
C    -3.851661  1.192316  0.362678
C    -4.916416  2.286458  0.481362
N    -6.110473  2.100767  -0.452117
H    -3.684895  -2.241768  0.909099
H    -2.628652  -1.269615  -0.074695
H    -4.592644  -0.059315  1.978036
H    -5.102868  -0.583838  0.382724
H    -3.539498  1.094341  -0.690436
H    -2.977974  1.594498  0.896630
H    -4.497767  3.266086  0.222626
H    -5.335672  2.351322  1.493514
H    -6.774857  2.883809  -0.349450
H    -6.636559  1.236874  -0.260209
H    -5.824055  2.078829  -1.442098
N    -1.972711  -3.775981  2.202135
C    -1.359130  -5.087011  2.466872
H    -2.965511  -3.771376  1.981832
H    -2.099125  -5.861372  2.249226
H    -1.060434  -5.160283  3.519705
H    -0.485683  -5.231984  1.821599
Ca    1.804092  -1.639769  3.004729
