35
Energy: -36759.9719702 eV PBE+vdW (tier 2 basis)
C    0.107046  1.402945  0.301459
C    0.170759  0.803088  1.665859
O    1.200283  0.146744  2.026482
H    0.966461  2.071917  0.154742
H    -0.816469  1.956651  0.103572
H    0.208613  0.596709  -0.440145
N    -0.876164  0.981699  2.485544
C    -1.185272  0.410366  3.819437
C    -0.137655  0.769274  4.895611
O    1.045361  0.298037  4.866679
H    -1.631172  1.537184  2.089007
H    -2.111334  0.929028  4.103739
C    -1.534714  -1.101056  3.760912
C    -2.221595  -1.598367  5.053113
C    -3.266106  -2.726147  4.887086
C    -2.696206  -4.108670  4.573340
N    -3.796476  -5.163824  4.594797
H    -0.636713  -1.688660  3.523151
H    -2.217004  -1.212548  2.905028
H    -2.774843  -0.761005  5.505194
H    -1.471252  -1.892424  5.802355
H    -3.994062  -2.437444  4.111887
H    -3.826084  -2.783285  5.833780
H    -1.959090  -4.430730  5.319885
H    -2.238692  -4.172591  3.578302
H    -4.534496  -4.965521  3.902449
H    -4.253933  -5.216479  5.517952
H    -3.426641  -6.103564  4.385456
N    -0.538057  1.557326  5.878131
C    0.279245  1.986414  7.018181
H    -1.483640  1.931718  5.832568
H    -0.360893  2.049679  7.904110
H    0.709100  2.977458  6.820852
H    1.078905  1.262222  7.191398
Ca    2.644246  -0.155724  3.525015
