35
Energy: -36758.331896 eV PBE+vdW (tier 2 basis)
C    -0.215368  -0.068763  0.183456
C    -0.191863  -0.105588  1.678410
O    0.855190  -0.344873  2.332338
H    0.473736  0.715212  -0.161635
H    -1.207592  0.109223  -0.244273
H    0.178283  -1.015804  -0.211338
N    -1.355581  0.136433  2.334430
C    -1.553856  0.039900  3.788650
C    -0.950627  1.253785  4.519577
O    -1.680793  1.957157  5.339532
H    -2.175044  0.353194  1.774117
H    -2.639737  0.102425  3.935824
C    -1.063768  -1.272083  4.473639
C    -1.633695  -2.593132  3.915487
C    -1.054998  -3.209304  2.625502
C    0.281043  -3.948536  2.679190
N    1.515430  -3.061341  2.866728
H    -1.390254  -1.191799  5.522190
H    0.031732  -1.276401  4.508109
H    -2.716537  -2.470420  3.761549
H    -1.551075  -3.339196  4.720696
H    -1.054439  -2.499764  1.787517
H    -1.765120  -3.990429  2.312434
H    0.438965  -4.475927  1.731539
H    0.311070  -4.694242  3.483053
H    2.333768  -3.477660  2.402007
H    1.763421  -2.966823  3.858366
H    1.376581  -2.092496  2.490116
N    0.308819  1.537418  4.313582
C    1.060400  2.645464  4.904656
H    0.785423  0.895843  3.641834
H    2.078580  2.622959  4.506929
H    1.110480  2.540410  5.996376
H    0.606105  3.607964  4.635069
Ca    -2.747643  3.152134  6.585695
