35
Energy: -36759.426241 eV PBE+vdW (tier 2 basis)
C    -1.360081  2.349274  -1.256040
C    -0.281660  1.782381  -0.403990
O    0.938562  2.059382  -0.629976
H    -1.121607  2.077951  -2.297490
H    -1.353534  3.448092  -1.227235
H    -2.358257  1.972602  -1.017699
N    -0.568310  0.930493  0.618997
C    -1.542314  1.259238  1.661354
C    -0.907688  2.412268  2.519087
O    0.236765  2.882387  2.202991
H    0.268038  0.469557  0.984308
H    -2.437463  1.679569  1.176970
C    -1.931554  0.003285  2.476431
C    -2.626887  -1.087102  1.635553
C    -2.783306  -2.438041  2.374262
C    -4.032023  -2.640540  3.239368
N    -5.201741  -3.232691  2.455668
H    -2.574913  0.309349  3.314905
H    -1.020093  -0.410457  2.938641
H    -2.028643  -1.269024  0.732086
H    -3.600020  -0.713786  1.275021
H    -1.917888  -2.594294  3.034512
H    -2.715520  -3.260609  1.645364
H    -4.407878  -1.713113  3.689009
H    -3.842645  -3.355750  4.048151
H    -5.489290  -2.643419  1.661935
H    -6.029267  -3.358447  3.058905
H    -4.962853  -4.161791  2.076704
N    -1.584007  2.896130  3.540025
C    -1.128196  3.990781  4.411082
H    -2.504343  2.508361  3.732190
H    -1.822187  4.072934  5.251514
H    -1.120450  4.938616  3.858845
H    -0.124212  3.774585  4.791728
Ca    1.938267  3.213783  0.893810
