35
Energy: -36757.5920305 eV PBE+vdW (tier 2 basis)
C    0.047161  0.513897  0.255990
C    -0.040935  -0.280578  1.527928
O    0.817304  -0.199239  2.405991
H    -0.864274  0.503865  -0.352329
H    0.854688  0.070574  -0.347823
H    0.348985  1.545766  0.467902
N    -1.075493  -1.207719  1.672556
C    -2.492701  -0.850531  1.523647
C    -2.983183  -0.973739  0.072206
O    -3.768608  -0.067182  -0.451064
H    -0.899726  -1.804726  2.480462
H    -3.050500  -1.654055  2.041160
C    -2.809845  0.478543  2.250535
C    -2.515545  0.358073  3.769297
C    -2.089858  1.648131  4.494419
C    -0.677030  2.185870  4.255104
N    0.426199  1.252810  4.728092
H    -3.866881  0.750414  2.116220
H    -2.214396  1.282117  1.790478
H    -1.753659  -0.415844  3.943247
H    -3.417646  -0.021490  4.268030
H    -2.227732  1.495362  5.576125
H    -2.774472  2.472597  4.243148
H    -0.547677  3.126593  4.802762
H    -0.457762  2.383971  3.198330
H    0.596290  0.490257  4.026251
H    0.217486  0.841939  5.648159
H    1.315469  1.763189  4.823297
N    -2.671571  -2.021471  -0.657130
C    -1.923586  -3.238076  -0.292028
H    -3.029161  -2.010872  -1.613070
H    -2.196093  -4.015311  -1.012704
H    -2.196490  -3.575088  0.712541
H    -0.844406  -3.055682  -0.343053
Ca    -5.185629  1.110039  -1.308965
