35
Energy: -36758.6997494 eV PBE+vdW (tier 2 basis)
C    0.200502  -0.311509  0.085637
C    0.092723  -0.248853  1.569673
O    1.189180  -0.297498  2.282608
H    0.979090  -1.029580  -0.198848
H    0.504767  0.674273  -0.301470
H    -0.732822  -0.599089  -0.405969
N    -1.060169  -0.130347  2.197025
C    -2.427100  -0.042341  1.617750
C    -3.237556  0.939690  2.515783
O    -3.688479  0.524580  3.599039
H    -1.028684  -0.128497  3.220452
H    -2.337041  0.358918  0.600704
C    -3.110711  -1.420075  1.623060
C    -4.581157  -1.346310  1.160227
C    -5.517582  -2.393228  1.790708
C    -5.631416  -2.410994  3.314142
N    -6.008100  -1.061238  3.902271
H    -3.042310  -1.806496  2.649814
H    -2.540993  -2.112851  0.988066
H    -4.631610  -1.466345  0.069805
H    -4.987550  -0.339018  1.346958
H    -5.203287  -3.407538  1.501917
H    -6.519619  -2.267920  1.353217
H    -4.696680  -2.694743  3.812500
H    -6.403712  -3.123499  3.626648
H    -5.211971  -0.380039  3.812580
H    -6.840660  -0.669164  3.442333
H    -6.231652  -1.149035  4.902666
N    -3.389935  2.184197  2.053597
C    -4.127400  3.237688  2.756122
H    -3.020039  2.411354  1.134778
H    -3.570302  4.178012  2.685047
H    -4.237994  2.955046  3.806191
H    -5.117762  3.379927  2.304490
Ca    3.091951  -0.385259  2.981843
