35
Energy: -36758.4259704 eV PBE+vdW (tier 2 basis)
C    -0.020992  0.884193  0.415214
C    -0.040974  0.447072  1.848094
O    0.928436  -0.162911  2.369951
H    -0.850145  1.544728  0.140040
H    -0.069919  -0.002558  -0.234524
H    0.931404  1.386023  0.203814
N    -1.153504  0.741308  2.564861
C    -1.522818  0.321891  3.930972
C    -0.591005  0.856696  5.026280
O    -1.126610  1.324269  6.123374
H    -1.868013  1.273665  2.076082
H    -2.472257  0.841025  4.116070
C    -1.845344  -1.193338  4.124791
C    -0.761399  -2.256136  3.848249
C    -0.826266  -2.882427  2.438886
C    0.408144  -3.706449  2.069804
N    1.510142  -2.841318  1.458080
H    -2.734785  -1.395333  3.509634
H    -2.191057  -1.292132  5.165119
H    -0.900506  -3.068662  4.575026
H    0.239288  -1.851841  4.052292
H    -1.016556  -2.129581  1.658058
H    -1.690581  -3.559712  2.392088
H    0.180495  -4.480455  1.329039
H    0.844725  -4.200790  2.946009
H    2.442953  -3.246132  1.613870
H    1.492311  -1.863253  1.830912
H    1.388862  -2.771492  0.439334
N    0.702590  0.814052  4.868528
C    1.704878  1.291880  5.821118
H    1.007332  0.399829  3.948888
H    1.565811  2.361875  6.024168
H    2.695088  1.153464  5.378890
H    1.656291  0.719379  6.756643
Ca    -1.892742  2.158342  7.802186
