35
Energy: -36757.9626924 eV PBE+vdW (tier 2 basis)
C    0.568151  -0.863078  1.541971
C    0.148233  -0.764102  2.982326
O    0.922670  -0.408974  3.864765
H    -0.244623  -1.032803  0.828537
H    1.273121  -1.706304  1.467290
H    1.134965  0.028486  1.249113
N    -1.140186  -1.194883  3.355069
C    -2.392088  -0.803895  2.692401
C    -2.861171  -1.892082  1.708226
O    -3.936018  -1.730482  0.993263
H    -1.212111  -1.223154  4.372222
H    -3.165632  -0.844983  3.481298
C    -2.404863  0.643054  2.131486
C    -2.540230  1.757912  3.196190
C    -1.420985  1.965460  4.238956
C    -0.130903  2.580359  3.683944
N    1.035431  2.304693  4.610913
H    -3.270474  0.743656  1.460981
H    -1.524185  0.796125  1.492959
H    -3.474312  1.593867  3.754458
H    -2.694426  2.701403  2.651296
H    -1.186623  1.022448  4.752055
H    -1.819992  2.632397  5.016632
H    0.163618  2.162649  2.713756
H    -0.213365  3.667624  3.569968
H    0.841080  2.605250  5.576468
H    1.889855  2.792540  4.307053
H    1.227540  1.278173  4.608505
N    -2.191025  -3.013964  1.672030
C    -2.499613  -4.206321  0.882784
H    -1.393705  -3.032111  2.319189
H    -1.672455  -4.914564  0.984503
H    -2.603963  -3.947163  -0.178374
H    -3.413521  -4.689082  1.255182
Ca    -5.658395  -1.742196  -0.084084
