35
Energy: -36758.4929699 eV PBE+vdW (tier 2 basis)
C    -1.624820  -0.504409  0.085876
C    -0.910575  0.240189  1.165160
O    0.384005  0.421205  1.056463
H    -2.699696  -0.589173  0.275122
H    -1.212692  -1.520725  0.000538
H    -1.478494  0.000880  -0.879547
N    -1.585232  0.687869  2.193312
C    -1.143398  1.339777  3.431854
C    -2.134409  0.755716  4.483205
O    -3.263684  0.443794  4.076124
H    -2.583521  0.417566  2.305976
H    -0.106184  1.042305  3.632657
C    -1.229038  2.895023  3.381526
C    -2.576394  3.580098  3.695078
C    -3.694008  3.425221  2.649743
C    -4.869464  4.389346  2.807583
N    -5.729846  4.100858  4.035557
H    -0.857802  3.230597  2.401001
H    -0.502364  3.262036  4.119864
H    -2.344390  4.650659  3.808709
H    -2.919752  3.239725  4.685654
H    -4.070173  2.390837  2.622896
H    -3.293178  3.636751  1.646048
H    -5.551758  4.324586  1.951918
H    -4.543465  5.432436  2.908850
H    -6.094978  3.137276  4.025663
H    -6.541521  4.736026  4.071181
H    -5.209444  4.227506  4.914253
N    -1.706650  0.677762  5.746479
C    -2.520980  0.170361  6.855014
H    -0.749972  0.947863  5.955331
H    -2.699800  0.963237  7.591417
H    -2.000609  -0.659846  7.346039
H    -3.473023  -0.186953  6.454408
Ca    2.259854  0.204152  0.328240
