35
Energy: -36758.2770608 eV PBE+vdW (tier 2 basis)
C    -1.182217  -0.770022  -0.218698
C    -1.052858  -0.400479  1.230809
O    0.017196  -0.204565  1.800941
H    -0.636230  -0.039246  -0.828076
H    -2.217165  -0.835923  -0.571793
H    -0.688974  -1.738863  -0.378278
N    -2.243727  -0.303796  1.950904
C    -2.202561  0.114635  3.341699
C    -2.961685  -0.908525  4.180519
O    -4.100070  -0.607387  4.759637
H    -3.126513  -0.338563  1.449945
H    -1.132767  0.001132  3.601388
C    -2.602504  1.581815  3.593110
C    -1.768405  2.613911  2.804991
C    -0.287912  2.744854  3.216870
C    0.409181  3.790165  2.347064
N    1.891709  3.907406  2.674952
H    -2.520943  1.788301  4.672831
H    -3.657504  1.730592  3.311366
H    -2.264203  3.588190  2.924726
H    -1.830536  2.378599  1.731841
H    0.221416  1.776728  3.092287
H    -0.218028  3.035355  4.277621
H    0.359692  3.533084  1.281540
H    -0.010386  4.795341  2.479381
H    2.047628  4.189658  3.653562
H    2.351006  4.612315  2.078525
H    2.384738  3.014233  2.528314
N    -2.498501  -2.130190  4.327085
C    -1.270113  -2.721531  3.779973
H    -3.090471  -2.772567  4.855401
H    -0.882447  -3.435943  4.513565
H    -0.515962  -1.955834  3.579298
H    -1.503919  -3.254454  2.848764
Ca    -5.834154  -0.187643  5.698314
