35
Energy: -36758.4330215 eV PBE+vdW (tier 2 basis)
C    -0.165623  0.385353  -0.018366
C    -0.203731  0.468123  1.467386
O    0.864241  0.824637  2.132645
H    0.780513  0.769058  -0.408490
H    -0.994405  0.950694  -0.468380
H    -0.281203  -0.659494  -0.348256
N    -1.306704  0.180847  2.137096
C    -2.582487  -0.292276  1.545154
C    -3.396927  0.802668  0.790945
O    -4.067541  0.431265  -0.165097
H    -1.256751  0.250044  3.155575
H    -2.325254  -1.018111  0.762775
C    -3.418517  -1.012506  2.628414
C    -4.665936  -1.754968  2.083100
C    -5.966396  -0.930087  2.083798
C    -7.116075  -1.517569  1.271205
N    -7.714864  -2.784876  1.880329
H    -3.716541  -0.294958  3.410437
H    -2.761674  -1.752387  3.108509
H    -4.791899  -2.654461  2.704333
H    -4.455906  -2.107769  1.061875
H    -5.790777  0.051034  1.621945
H    -6.296764  -0.725457  3.115247
H    -6.805606  -1.787229  0.253822
H    -7.949557  -0.809084  1.200026
H    -8.505969  -3.125446  1.313695
H    -8.073430  -2.614229  2.831060
H    -7.031777  -3.552266  1.938045
N    -3.333080  2.071340  1.252706
C    -4.117547  3.161530  0.664970
H    -2.842317  2.259827  2.120046
H    -3.541052  4.091181  0.707609
H    -5.064799  3.303221  1.201746
H    -4.334771  2.913417  -0.377870
Ca    2.743242  1.314162  2.712371
