35
Energy: -36758.5447899 eV PBE+vdW (tier 2 basis)
C    -0.184000  1.356627  1.421608
C    -0.123245  -0.017400  1.990581
O    0.984877  -0.451076  2.526757
H    0.596257  1.989518  1.854866
H    -1.159765  1.830049  1.582516
H    -0.014981  1.309452  0.332683
N    -1.168120  -0.827097  1.950343
C    -2.481461  -0.579192  1.295172
C    -3.424752  0.389035  2.055414
O    -4.183683  1.092650  1.371577
H    -1.033322  -1.764166  2.337378
H    -2.279677  -0.081628  0.338607
C    -3.151223  -1.956536  1.060945
C    -4.619011  -1.982379  0.587536
C    -4.924883  -1.759048  -0.906501
C    -4.837030  -0.358915  -1.509630
N    -5.752556  0.632834  -0.821929
H    -3.120251  -2.498308  2.021679
H    -2.526371  -2.526052  0.355375
H    -5.235326  -1.332249  1.226942
H    -4.975040  -2.997387  0.811951
H    -5.938821  -2.146348  -1.094410
H    -4.268984  -2.397273  -1.518335
H    -5.127557  -0.391480  -2.566302
H    -3.834097  0.081384  -1.451942
H    -5.852032  1.495122  -1.373397
H    -5.329214  0.887247  0.106133
H    -6.697167  0.249694  -0.683996
N    -3.401815  0.399732  3.393185
C    -4.312652  1.212710  4.208744
H    -2.806823  -0.263116  3.879354
H    -3.805966  1.498166  5.135620
H    -5.221918  0.649036  4.454202
H    -4.587278  2.110995  3.649014
Ca    2.886796  -0.773547  3.180964
