35
Energy: -36758.5434757 eV PBE+vdW (tier 2 basis)
C    -0.995882  1.547824  0.492951
C    -0.418034  0.292403  1.057014
O    0.877829  0.133097  0.981775
H    -0.807585  1.544849  -0.592536
H    -0.507721  2.426653  0.927312
H    -2.073239  1.641327  0.649702
N    -1.173214  -0.791491  1.318834
C    -2.387605  -0.630496  2.122839
C    -1.931594  0.292493  3.328490
O    -0.845817  0.888390  3.206907
H    -0.623647  -1.616293  1.566177
H    -3.123361  -0.041915  1.553698
C    -2.981913  -1.994514  2.508746
C    -3.737199  -2.782665  1.415412
C    -5.110467  -2.189287  1.027645
C    -6.197674  -3.197423  0.657398
N    -5.948426  -3.930333  -0.658425
H    -3.672488  -1.851348  3.352342
H    -2.174151  -2.624255  2.914188
H    -3.883277  -3.794333  1.825545
H    -3.096494  -2.901747  0.527665
H    -5.018548  -1.431190  0.234097
H    -5.536090  -1.653663  1.891130
H    -7.168152  -2.701654  0.535545
H    -6.305773  -3.980992  1.418195
H    -5.891952  -3.277921  -1.453672
H    -6.718211  -4.586859  -0.860245
H    -5.079197  -4.481322  -0.640492
N    -2.749596  0.434428  4.366515
C    -2.470615  1.315207  5.507344
H    -3.608807  -0.103475  4.395209
H    -1.879469  0.789484  6.267757
H    -3.421246  1.631871  5.946386
H    -1.917662  2.193111  5.161087
Ca    2.810702  0.596164  1.271996
