35
Energy: -36760.1606008 eV PBE+vdW (tier 2 basis)
C    0.388892  1.122909  0.316367
C    -0.037026  0.490949  1.598263
O    0.607919  -0.501601  2.066900
H    0.340311  0.364218  -0.479167
H    1.441037  1.430821  0.390315
H    -0.219140  1.985305  0.024520
N    -1.105572  0.996691  2.232271
C    -1.851240  0.503540  3.417102
C    -0.984300  0.479744  4.694803
O    -0.044084  -0.365524  4.847089
H    -1.532671  1.797614  1.772194
H    -2.618130  1.275599  3.569375
C    -2.599585  -0.826303  3.143710
C    -3.783720  -1.067903  4.100455
C    -4.693488  -2.227122  3.638532
C    -5.909279  -2.381686  4.554308
N    -6.852199  -3.477199  4.074226
H    -1.897744  -1.672422  3.167788
H    -2.971800  -0.761543  2.110897
H    -4.388218  -0.148141  4.158504
H    -3.420804  -1.267314  5.120892
H    -4.121073  -3.168027  3.615133
H    -5.031682  -2.030689  2.608364
H    -6.512651  -1.466061  4.594849
H    -5.627862  -2.654195  5.579121
H    -7.217462  -3.284353  3.129532
H    -7.667004  -3.566401  4.700961
H    -6.391980  -4.398964  4.043028
N    -1.281674  1.354473  5.639878
C    -0.598292  1.482969  6.931620
H    -2.022624  2.025957  5.449251
H    -1.334722  1.762000  7.692041
H    0.167464  2.267975  6.875555
H    -0.134128  0.530505  7.198722
Ca    1.507529  -1.360820  3.760603
