35
Energy: -36758.431467 eV PBE+vdW (tier 2 basis)
C    0.875370  0.215983  2.352415
C    -0.342363  -0.429845  2.917799
O    -0.159545  -1.281812  3.896114
H    0.676113  0.847638  1.487585
H    1.605218  -0.547445  2.062191
H    1.319880  0.842562  3.142824
N    -1.598559  -0.008493  2.708780
C    -2.129332  0.305971  1.373542
C    -1.679833  -0.915760  0.485738
O    -0.699616  -1.575378  0.857491
H    -2.275408  -0.469509  3.316345
H    -3.221638  0.298960  1.496247
C    -1.699174  1.680327  0.783118
C    -2.719205  2.318734  -0.185984
C    -3.924021  3.029214  0.472565
C    -3.733088  4.512714  0.792751
N    -3.892121  5.399827  -0.439813
H    -0.750236  1.566667  0.244374
H    -1.505021  2.361218  1.625297
H    -3.088419  1.564575  -0.894259
H    -2.160115  3.021991  -0.823677
H    -4.184487  2.545846  1.426236
H    -4.825361  2.910922  -0.148850
H    -2.739997  4.738676  1.201488
H    -4.486586  4.870147  1.504249
H    -3.750286  6.393811  -0.204119
H    -4.837917  5.316433  -0.841827
H    -3.220204  5.165336  -1.184282
N    -2.368771  -1.150346  -0.633808
C    -2.029968  -2.223257  -1.576367
H    -3.226525  -0.635827  -0.800013
H    -0.943403  -2.341944  -1.613784
H    -2.486918  -3.172280  -1.267980
H    -2.401222  -1.951364  -2.568848
Ca    0.583031  -2.777666  5.013017
