35
Energy: -36758.4311481 eV PBE+vdW (tier 2 basis)
C    0.688535  -0.209171  0.891742
C    0.171715  -1.226615  1.839998
O    1.031554  -1.871693  2.594863
H    1.470517  -0.666270  0.268465
H    1.159705  0.606045  1.461623
H    -0.085909  0.183227  0.225791
N    -1.104286  -1.534150  1.984220
C    -2.345611  -1.002789  1.332038
C    -2.309028  -1.254584  -0.209929
O    -1.812442  -0.403561  -0.949179
H    -1.280797  -2.258449  2.681067
H    -3.139312  -1.612633  1.785837
C    -2.608597  0.478985  1.659625
C    -4.087324  0.906716  1.530503
C    -4.727836  0.928650  0.127631
C    -4.255009  2.010960  -0.841101
N    -4.907112  3.363222  -0.556766
H    -1.961899  1.097546  1.022134
H    -2.306975  0.658841  2.700985
H    -4.172653  1.898383  2.004098
H    -4.703921  0.252631  2.165209
H    -5.821588  0.999325  0.242864
H    -4.574763  -0.028728  -0.387999
H    -4.531500  1.768752  -1.873528
H    -3.171148  2.174296  -0.812847
H    -4.577909  4.084343  -1.215482
H    -4.708176  3.703177  0.394187
H    -5.932098  3.309418  -0.653369
N    -2.850761  -2.417759  -0.617811
C    -2.914004  -2.830836  -2.021116
H    -3.287205  -3.025587  0.068603
H    -2.512206  -3.844782  -2.129242
H    -2.318062  -2.134461  -2.616792
H    -3.951555  -2.822394  -2.378215
Ca    2.653951  -2.641688  3.519007
