35
Energy: -36758.2746763 eV PBE+vdW (tier 2 basis)
C    -0.169987  -0.894278  1.235779
C    0.204710  0.207183  2.163784
O    1.448989  0.308364  2.561915
H    0.589650  -1.681513  1.251404
H    -0.270498  -0.497912  0.212505
H    -1.143514  -1.333712  1.486424
N    -0.662953  1.108425  2.593430
C    -2.056894  1.276128  2.121577
C    -1.995109  2.037901  0.742048
O    -1.966515  1.321683  -0.252741
H    -0.287959  1.836221  3.204377
H    -2.397055  0.285089  1.801747
C    -3.010714  1.761496  3.228606
C    -4.433418  1.932620  2.658008
C    -5.510872  2.452661  3.633956
C    -6.069952  1.388076  4.576390
N    -7.279774  1.916082  5.339256
H    -2.667231  2.706660  3.672118
H    -2.997319  1.009978  4.033403
H    -4.771181  0.983592  2.212347
H    -4.397525  2.644439  1.821646
H    -6.337109  2.844432  3.020115
H    -5.121141  3.304529  4.214016
H    -5.352859  1.060957  5.338975
H    -6.425513  0.505346  4.029958
H    -8.034992  2.199071  4.696544
H    -7.044088  2.739919  5.911815
H    -7.670217  1.202926  5.973102
N    -1.917824  3.388652  0.681993
C    -1.888108  4.398709  1.733199
H    -1.895652  3.727739  -0.278782
H    -2.881408  4.596743  2.160375
H    -1.526361  5.333921  1.294509
H    -1.192667  4.135675  2.541180
Ca    3.441594  0.020755  2.737491
