35
Energy: -36758.4062132 eV PBE+vdW (tier 2 basis)
C    -0.628156  1.594652  -1.190116
C    -0.634158  0.948955  0.156734
O    0.188138  -0.038138  0.391660
H    -0.864107  0.846673  -1.961529
H    0.370955  2.001434  -1.405171
H    -1.353939  2.410320  -1.276905
N    -1.469791  1.389411  1.073441
C    -1.697801  0.971802  2.473607
C    -3.236765  1.087870  2.675071
O    -3.721011  2.236153  2.685085
H    -2.054718  2.181994  0.793252
H    -1.330624  -0.052976  2.594691
C    -1.003158  1.962331  3.436796
C    -1.472138  1.827099  4.901512
C    -1.493783  3.145282  5.700241
C    -2.340319  4.297039  5.158634
N    -3.797605  3.928551  4.937454
H    -1.220799  2.970827  3.059334
H    0.085258  1.833817  3.363200
H    -0.821934  1.124520  5.439456
H    -2.471778  1.366201  4.941983
H    -0.473634  3.547627  5.793339
H    -1.806725  2.918401  6.730697
H    -1.986029  4.675366  4.192170
H    -2.326533  5.134843  5.865623
H    -3.895532  3.267665  4.125789
H    -4.211399  3.499082  5.775752
H    -4.356111  4.766253  4.723756
N    -3.972287  -0.017840  2.820911
C    -3.544284  -1.418816  2.827640
H    -4.971855  0.161028  2.920584
H    -4.418099  -2.037453  3.051520
H    -2.796932  -1.607633  3.608252
H    -3.161550  -1.727848  1.846050
Ca    1.689397  -1.346752  -0.044348
