35
Energy: -36759.9123519 eV PBE+vdW (tier 2 basis)
C    0.586827  1.392390  0.809435
C    -0.178022  0.175250  1.212427
O    0.322214  -0.979274  1.031776
H    0.845193  1.311727  -0.256105
H    1.538941  1.420826  1.358463
H    0.050564  2.331163  0.982422
N    -1.391090  0.345997  1.765950
C    -2.406623  -0.647621  2.186012
C    -1.905929  -1.585578  3.301904
O    -0.986748  -2.442615  3.078351
H    -1.665808  1.316879  1.891738
H    -3.203695  -0.034640  2.623169
C    -3.032986  -1.456874  1.020010
C    -4.052668  -0.659041  0.179251
C    -4.746665  -1.556631  -0.867322
C    -6.046186  -1.035824  -1.483596
N    -5.856972  0.028494  -2.562210
H    -3.546908  -2.324279  1.462972
H    -2.236655  -1.863512  0.380024
H    -3.552570  0.196847  -0.302090
H    -4.815904  -0.241217  0.855722
H    -5.040904  -2.500249  -0.381788
H    -4.043867  -1.853293  -1.662740
H    -6.716333  -0.591933  -0.736563
H    -6.585691  -1.850937  -1.980411
H    -6.768262  0.308296  -2.957836
H    -5.285808  -0.321868  -3.345309
H    -5.409930  0.883622  -2.205312
N    -2.472383  -1.538517  4.494664
C    -3.529147  -0.650588  5.004427
H    -2.120971  -2.239642  5.150435
H    -3.293111  0.401040  4.807617
H    -3.580966  -0.785048  6.088767
H    -4.505464  -0.914892  4.579585
Ca    0.764385  -2.841023  1.946080
