35
Energy: -36759.2712054 eV PBE+vdW (tier 2 basis)
C    0.100890  -0.201491  -0.453804
C    0.049890  0.152840  0.993987
O    1.122324  0.312199  1.657900
H    -0.383348  -1.169067  -0.654410
H    1.141596  -0.251782  -0.785777
H    -0.428430  0.553589  -1.050953
N    -1.134180  0.318204  1.645028
C    -2.240379  -0.649364  1.578911
C    -1.651512  -2.042357  1.986081
O    -0.474495  -2.117339  2.474029
H    -1.008918  0.734389  2.568097
H    -2.896272  -0.366829  2.417812
C    -3.095319  -0.594514  0.276652
C    -4.621844  -0.516096  0.504084
C    -5.382570  -0.445995  -0.835321
C    -6.911329  -0.484394  -0.771083
N    -7.556692  0.857592  -0.433456
H    -2.856135  -1.443933  -0.380239
H    -2.783636  0.305599  -0.268581
H    -4.838265  0.364712  1.130930
H    -4.980725  -1.389924  1.074066
H    -5.103468  -1.315199  -1.450497
H    -5.054793  0.429384  -1.420143
H    -7.287594  -1.197076  -0.026354
H    -7.328316  -0.762521  -1.746134
H    -8.585521  0.775502  -0.432866
H    -7.314791  1.579379  -1.128720
H    -7.283527  1.212599  0.492995
N    -2.403197  -3.117438  1.862632
C    -2.007803  -4.471502  2.281400
H    -3.333359  -3.007541  1.468391
H    -1.142112  -4.810842  1.700664
H    -2.847504  -5.146920  2.099482
H    -1.763134  -4.480298  3.349774
Ca    1.500811  -1.345586  2.982216
