35
Energy: -36758.4410695 eV PBE+vdW (tier 2 basis)
C    -0.262588  -0.526936  -0.791043
C    -0.427876  -0.141425  0.643571
O    0.642416  0.171831  1.336948
H    0.387071  -1.411456  -0.867182
H    0.211812  0.294625  -1.347164
H    -1.215419  -0.764452  -1.275279
N    -1.626336  -0.132943  1.163220
C    -2.145067  0.098782  2.521306
C    -3.208166  -1.046063  2.627014
O    -3.838920  -1.280948  1.590388
H    -2.417680  -0.501066  0.595008
H    -1.332290  0.033721  3.252934
C    -2.868953  1.475175  2.557378
C    -3.614668  1.764500  3.871788
C    -4.481242  3.044996  3.861114
C    -5.824924  2.863069  3.154829
N    -6.707009  4.094837  3.320115
H    -3.567996  1.479529  1.707366
H    -2.127172  2.264745  2.365225
H    -2.886896  1.873017  4.688190
H    -4.252257  0.909839  4.143716
H    -3.923315  3.879414  3.406909
H    -4.667906  3.326127  4.909188
H    -6.397988  2.027731  3.576564
H    -5.730746  2.704846  2.073718
H    -7.618225  3.971486  2.853464
H    -6.270045  4.938300  2.920683
H    -6.897984  4.292671  4.313893
N    -3.414754  -1.679356  3.791674
C    -2.668882  -1.591111  5.045282
H    -4.119588  -2.414319  3.726811
H    -3.348235  -1.810791  5.875630
H    -2.273212  -0.583002  5.204098
H    -1.845312  -2.317814  5.076060
Ca    2.632283  0.335592  1.647691
