35
Energy: -36758.3750052 eV PBE+vdW (tier 2 basis)
C    -0.025588  0.050906  0.008679
C    -0.147039  -0.045056  1.502869
O    0.825181  -0.144176  2.263461
H    0.739656  -0.653125  -0.338417
H    0.321519  1.059582  -0.261035
H    -0.965221  -0.133038  -0.524160
N    -1.429428  -0.011877  2.014148
C    -1.656655  0.118644  3.451777
C    -2.853936  -0.754493  3.830286
O    -2.794042  -2.044506  3.667019
H    -2.174023  0.267502  1.379060
H    -0.780686  -0.365803  3.917550
C    -1.744144  1.582006  3.948794
C    -0.456168  2.405297  3.743539
C    0.703352  1.988565  4.664728
C    2.073422  2.550909  4.301210
N    2.606789  1.976378  2.983689
H    -1.983673  1.580104  5.025212
H    -2.564143  2.101450  3.425015
H    -0.705714  3.458984  3.930745
H    -0.171857  2.360065  2.681196
H    0.792266  0.893380  4.726693
H    0.496299  2.332092  5.689114
H    2.807291  2.290224  5.071154
H    2.070380  3.642041  4.194286
H    3.612598  1.773764  3.049922
H    2.494585  2.641935  2.209783
H    2.106558  1.096017  2.711903
N    -3.939794  -0.209324  4.323906
C    -5.156445  -0.909020  4.749752
H    -3.926975  0.805344  4.430964
H    -5.881864  -0.164703  5.089578
H    -4.935194  -1.585882  5.585066
H    -5.593405  -1.463016  3.909416
Ca    -2.719644  -4.058059  3.474704
