35
Energy: -36758.3968737 eV PBE+vdW (tier 2 basis)
C    -1.297237  1.184664  0.098318
C    -1.406524  -0.156410  0.745212
O    -1.424566  -1.224065  -0.000189
H    -1.311412  2.011528  0.816769
H    -2.127604  1.329388  -0.608331
H    -0.356477  1.246278  -0.469270
N    -1.476502  -0.232850  2.062609
C    -1.523890  -1.405890  2.958466
C    -2.949585  -1.897165  3.332810
O    -3.059679  -3.088424  3.664378
H    -1.398436  0.667546  2.539362
H    -1.064454  -2.248381  2.428573
C    -0.707458  -1.034624  4.231771
C    -0.894923  -1.932295  5.461598
C    -0.308678  -3.355669  5.367455
C    -0.966314  -4.326051  6.344800
N    -2.315653  -4.807697  5.810830
H    -1.003703  -0.014809  4.529948
H    0.355131  -0.982367  3.951935
H    -1.964988  -1.963733  5.717992
H    -0.418438  -1.416795  6.307238
H    0.764372  -3.330389  5.601266
H    -0.382828  -3.768007  4.349263
H    -1.157757  -3.854955  7.316422
H    -0.359594  -5.221101  6.518615
H    -2.980170  -5.003764  6.570095
H    -2.736663  -4.112217  5.150159
H    -2.204712  -5.680136  5.279646
N    -3.960207  -1.019494  3.328676
C    -5.323904  -1.350175  3.757588
H    -3.773857  -0.049231  3.096983
H    -6.035972  -0.748930  3.183909
H    -5.458288  -1.136813  4.826006
H    -5.509741  -2.412094  3.574543
Ca    -1.360517  -2.303856  -1.728870
