35
Energy: -36759.9699675 eV PBE+vdW (tier 2 basis)
C    -1.623528  1.662865  3.593334
C    -1.178421  0.386945  2.961896
O    -0.061544  0.329140  2.356716
H    -1.674098  2.439524  2.815772
H    -0.866975  1.996665  4.317241
H    -2.594109  1.594156  4.095356
N    -1.986770  -0.683143  3.053220
C    -1.868350  -2.027336  2.436689
C    -0.627626  -2.795414  2.944642
O    0.548278  -2.449134  2.601518
H    -2.833109  -0.530298  3.595738
H    -2.752392  -2.563050  2.809912
C    -1.934038  -2.008369  0.888129
C    -3.242092  -1.421943  0.308825
C    -4.423818  -2.396013  0.071375
C    -4.371581  -3.058499  -1.307730
N    -5.652968  -3.821487  -1.622331
H    -1.768613  -3.038751  0.537850
H    -1.086641  -1.422900  0.507631
H    -3.002042  -0.920895  -0.639569
H    -3.596595  -0.612636  0.961967
H    -5.355775  -1.815248  0.146915
H    -4.473207  -3.163810  0.860425
H    -3.554700  -3.783473  -1.410471
H    -4.271218  -2.311985  -2.105641
H    -5.611766  -4.250738  -2.559706
H    -6.476643  -3.200563  -1.611172
H    -5.833968  -4.579973  -0.948640
N    -0.835915  -3.846827  3.717082
C    0.206544  -4.723830  4.263353
H    -1.794007  -4.057726  3.987637
H    -0.178633  -5.748065  4.294952
H    0.466430  -4.409658  5.282814
H    1.092502  -4.682979  3.625100
Ca    1.740390  -0.747550  2.109169
