35
Energy: -36758.7343107 eV PBE+vdW (tier 2 basis)
C    -0.156763  -1.689909  2.511945
C    0.432024  -0.446216  1.944247
O    1.741955  -0.347513  1.891262
H    0.242168  -1.856158  3.522388
H    0.144528  -2.551811  1.898747
H    -1.248043  -1.663989  2.565176
N    -0.278582  0.551217  1.489799
C    -1.729893  0.698013  1.278964
C    -1.749599  1.679244  0.061078
O    -0.796166  2.461351  -0.043886
H    0.171916  1.392984  1.056671
H    -2.170811  -0.275101  1.022613
C    -2.415885  1.303353  2.531599
C    -3.945690  1.442159  2.415909
C    -4.632259  1.798055  3.754157
C    -4.676265  3.275097  4.150040
N    -5.867808  4.006963  3.535304
H    -1.942150  2.273948  2.744777
H    -2.185518  0.646040  3.384620
H    -4.368359  0.484856  2.075538
H    -4.201853  2.175520  1.634242
H    -4.126498  1.270456  4.575887
H    -5.656674  1.393266  3.762578
H    -3.784917  3.835704  3.842132
H    -4.797244  3.394144  5.232965
H    -5.879653  5.000711  3.810353
H    -6.758846  3.594824  3.850664
H    -5.862050  3.973876  2.506662
N    -2.801699  1.617144  -0.763547
C    -2.940657  2.464657  -1.952489
H    -3.470308  0.862440  -0.642475
H    -3.981100  2.792147  -2.049818
H    -2.654997  1.910816  -2.855697
H    -2.287193  3.334120  -1.843454
Ca    3.743561  -0.416862  1.762315
