35
Energy: -36758.3799454 eV PBE+vdW (tier 2 basis)
C    -0.965713  1.219934  -0.071086
C    -0.677667  0.832635  1.345145
O    0.493447  0.728793  1.791768
H    -0.449737  2.162859  -0.296490
H    -2.032010  1.325749  -0.296447
H    -0.543271  0.461839  -0.746203
N    -1.737808  0.613074  2.163550
C    -1.706601  0.049004  3.526224
C    -1.199404  1.054858  4.566415
O    -1.843438  1.191392  5.693486
H    -2.662351  0.743610  1.762303
H    -2.764449  -0.102768  3.773207
C    -1.033015  -1.365532  3.627668
C    0.475151  -1.482962  3.941233
C    1.165318  -2.685513  3.267428
C    1.340784  -2.631412  1.751240
N    2.224219  -1.479571  1.294918
H    -1.280917  -1.847912  2.671440
H    -1.593322  -1.934101  4.382190
H    0.612415  -1.596866  5.025357
H    1.009457  -0.565764  3.670534
H    0.607376  -3.611029  3.475839
H    2.150093  -2.837861  3.735901
H    0.394329  -2.512276  1.208560
H    1.814816  -3.552625  1.392765
H    2.471095  -1.580409  0.300758
H    3.109647  -1.454121  1.819059
H    1.731274  -0.561646  1.411450
N    -0.125362  1.752371  4.309355
C    0.480965  2.765464  5.173960
H    0.320974  1.525571  3.393129
H    -0.229209  3.579374  5.369979
H    1.348585  3.185312  4.658001
H    0.817313  2.319110  6.118881
Ca    -2.872301  1.548174  7.404822
