35
Energy: -36758.9906432 eV PBE+vdW (tier 2 basis)
C    0.025902  -0.036231  0.093917
C    -0.214890  0.493500  1.463760
O    0.789474  1.062936  2.095099
H    0.856479  -0.755409  0.119526
H    0.330075  0.786291  -0.569591
H    -0.851603  -0.526302  -0.335412
N    -1.365509  0.432618  2.075541
C    -2.699302  -0.001481  1.624938
C    -3.607539  0.909141  2.520149
O    -3.132903  1.280226  3.602481
H    -1.511855  0.865036  3.023930
H    -2.829443  0.222783  0.557275
C    -2.910691  -1.511048  1.915405
C    -4.292234  -2.055544  1.512868
C    -4.426859  -3.567402  1.789784
C    -5.820030  -4.073718  1.419191
N    -5.979029  -5.562009  1.703717
H    -2.741682  -1.675073  2.990531
H    -2.124765  -2.067805  1.381523
H    -4.472655  -1.864623  0.442494
H    -5.076803  -1.521398  2.068660
H    -4.233784  -3.761295  2.857230
H    -3.665294  -4.120788  1.217178
H    -6.038166  -3.947118  0.351349
H    -6.608721  -3.573277  1.994810
H    -6.922922  -5.891780  1.450977
H    -5.837983  -5.777881  2.701557
H    -5.305054  -6.128838  1.168514
N    -4.828480  1.205681  2.064149
C    -5.782593  2.042621  2.799003
H    -5.075098  0.928792  1.118936
H    -6.775596  1.581217  2.770005
H    -5.838171  3.042793  2.351579
H    -5.447190  2.128476  3.835601
Ca    2.347822  2.021317  2.911939
