35
Energy: -36757.7780524 eV PBE+vdW (tier 2 basis)
C    1.265715  -1.140975  2.015290
C    0.755592  -1.093889  3.425609
O    1.405821  -1.527812  4.377873
H    0.726119  -0.486298  1.322939
H    1.249102  -2.174847  1.639710
H    2.322227  -0.842978  2.034005
N    -0.485990  -0.506372  3.677232
C    -1.672550  -0.799714  2.883603
C    -2.335368  0.441838  2.273010
O    -2.828152  0.348779  1.062117
H    -0.650494  -0.482601  4.682668
H    -1.356257  -1.395464  2.017653
C    -2.732091  -1.628467  3.700157
C    -2.135510  -2.626710  4.716509
C    -1.241805  -3.738146  4.140780
C    -0.443276  -4.544427  5.167796
N    0.597581  -3.716932  5.918933
H    -3.377694  -2.157248  2.984632
H    -3.387231  -0.941098  4.255077
H    -2.987767  -3.082783  5.241610
H    -1.602229  -2.060897  5.497389
H    -0.540775  -3.351923  3.386418
H    -1.866669  -4.470349  3.608000
H    0.108165  -5.345008  4.662702
H    -1.086691  -5.007986  5.925348
H    1.394972  -4.304846  6.197068
H    0.216706  -3.320780  6.786717
H    0.970112  -2.910909  5.347652
N    -2.450489  1.588435  2.901447
C    -2.049877  1.965099  4.268866
H    -2.889117  2.337649  2.364778
H    -2.349492  1.196706  4.988036
H    -2.573866  2.892107  4.519717
H    -0.968592  2.137967  4.316209
Ca    -3.653382  0.337556  -0.795769
