35
Energy: -36758.3429852 eV PBE+vdW (tier 2 basis)
C    -0.115777  -1.582187  -0.231224
C    0.324384  -0.715103  0.889640
O    1.587180  -0.353719  0.932335
H    0.547697  -2.457535  -0.284181
H    -1.138841  -1.951425  -0.108590
H    -0.006132  -1.028739  -1.176676
N    -0.457482  -0.267888  1.857721
C    -1.916366  -0.459150  2.138218
C    -2.226641  -1.970973  2.370211
O    -2.397267  -2.701585  1.396464
H    0.026312  0.312903  2.543054
H    -2.057751  0.100088  3.070478
C    -2.811912  0.141646  1.034516
C    -4.330785  -0.042811  1.242524
C    -4.960704  0.774894  2.382130
C    -6.451345  0.525672  2.613352
N    -7.339388  1.060053  1.492413
H    -2.562933  -0.335915  0.079493
H    -2.568190  1.210374  0.936450
H    -4.549805  -1.112773  1.378218
H    -4.790500  0.235265  0.280479
H    -4.779744  1.853390  2.241252
H    -4.490208  0.524409  3.345661
H    -6.800289  1.025688  3.524420
H    -6.685583  -0.543393  2.694715
H    -8.334846  0.893055  1.703657
H    -7.142845  0.608150  0.588649
H    -7.222511  2.076017  1.366264
N    -2.315598  -2.398058  3.648417
C    -2.098787  -1.659354  4.891196
H    -2.534051  -3.390367  3.726228
H    -2.209293  -2.358718  5.725228
H    -2.838887  -0.860109  5.036338
H    -1.086009  -1.238272  4.953285
Ca    3.563846  -0.157335  0.571588
