35
Energy: -36758.421668 eV PBE+vdW (tier 2 basis)
C    0.668411  -0.305056  0.179367
C    0.469958  -0.380738  1.666374
O    1.273299  -0.932066  2.430609
H    1.730080  -0.140261  -0.035947
H    0.069844  0.470471  -0.312304
H    0.391426  -1.273409  -0.265423
N    -0.686266  0.209677  2.142180
C    -1.276294  0.128970  3.479746
C    -1.070356  1.438871  4.256032
O    -1.918978  1.786316  5.179938
H    -1.296985  0.595038  1.426348
H    -2.364939  0.036791  3.335873
C    -0.812644  -1.062564  4.368705
C    -1.064136  -2.439815  3.730008
C    -0.329275  -3.608600  4.415323
C    1.199029  -3.585666  4.462782
N    1.850655  -3.552434  3.092579
H    -1.371973  -0.995674  5.314491
H    0.246692  -0.923305  4.610119
H    -0.807017  -2.414536  2.662575
H    -2.139669  -2.666256  3.759381
H    -0.660322  -4.545032  3.940203
H    -0.653685  -3.695032  5.463622
H    1.565737  -4.487297  4.967277
H    1.601152  -2.717528  4.998616
H    1.474133  -4.284005  2.475037
H    1.711824  -2.610255  2.645670
H    2.863956  -3.715532  3.167446
N    -0.025145  2.180479  3.992816
C    0.364230  3.428750  4.653977
H    0.558583  1.847175  3.223082
H    1.380088  3.684364  4.339720
H    0.358616  3.302038  5.743097
H    -0.305826  4.246567  4.356381
Ca    -3.285707  2.508889  6.496586
