35
Energy: -36758.4526923 eV PBE+vdW (tier 2 basis)
C    -1.605268  -2.311696  0.450043
C    -1.673788  -1.167784  1.411994
O    -2.568912  -1.106472  2.282446
H    -2.571359  -2.393322  -0.066111
H    -1.478062  -3.244062  1.017006
H    -0.805172  -2.226856  -0.292727
N    -0.706061  -0.206864  1.303018
C    -0.587522  1.089028  1.998125
C    -0.602938  0.968706  3.531716
O    0.346984  1.573500  4.213386
H    -0.008409  -0.364578  0.582044
H    0.431673  1.426149  1.769060
C    -1.522910  2.202665  1.423571
C    -3.045373  2.004613  1.547324
C    -3.897033  2.751050  0.495397
C    -3.953272  4.268842  0.652085
N    -4.935362  4.876660  -0.343795
H    -1.244936  2.265467  0.359753
H    -1.209348  3.158798  1.872787
H    -3.389573  2.270483  2.558477
H    -3.292110  0.944387  1.422609
H    -4.920434  2.350447  0.569237
H    -3.533358  2.495346  -0.513203
H    -2.991436  4.760558  0.461426
H    -4.310233  4.569319  1.645389
H    -5.888241  4.506371  -0.207792
H    -4.667763  4.672112  -1.318152
H    -4.989879  5.901911  -0.250065
N    -1.535773  0.287026  4.121160
C    -1.651053  0.076343  5.559494
H    -2.160362  -0.288585  3.407255
H    -2.590915  -0.446509  5.759474
H    -1.665182  1.034056  6.097219
H    -0.829579  -0.554861  5.930328
Ca    1.822445  2.090315  5.475396
