35
Energy: -36758.4579751 eV PBE+vdW (tier 2 basis)
C    0.243075  1.209055  1.428889
C    0.201036  -0.237672  1.792006
O    1.281930  -0.822298  2.237406
H    -0.192820  1.390488  0.437716
H    1.272865  1.576075  1.428675
H    -0.331026  1.805524  2.154786
N    -0.904750  -0.950282  1.683192
C    -2.231754  -0.483978  1.200261
C    -3.340560  -1.042149  2.148027
O    -3.991321  -2.050688  1.834913
H    -0.833841  -1.939410  1.929906
H    -2.229836  0.608505  1.289419
C    -2.496618  -0.850348  -0.272344
C    -2.345139  -2.334884  -0.669313
C    -3.303871  -2.795565  -1.785687
C    -4.801808  -2.703003  -1.500391
N    -5.208185  -3.462056  -0.251289
H    -3.516505  -0.489336  -0.469475
H    -1.847393  -0.228795  -0.905490
H    -2.475480  -2.983661  0.207903
H    -1.322642  -2.516161  -1.029067
H    -3.050648  -3.830710  -2.060806
H    -3.133854  -2.204645  -2.698368
H    -5.147087  -1.673515  -1.345069
H    -5.375446  -3.120742  -2.335875
H    -6.229152  -3.445162  -0.125942
H    -4.927113  -4.450185  -0.300213
H    -4.768132  -3.022186  0.594361
N    -3.563338  -0.382531  3.295750
C    -2.950570  0.850557  3.786766
H    -4.315421  -0.782131  3.856890
H    -1.884591  0.713327  4.015412
H    -3.451343  1.130845  4.717999
H    -3.083747  1.682219  3.081625
Ca    3.156719  -1.296665  2.866674
