35
Energy: -36758.4095523 eV PBE+vdW (tier 2 basis)
C    -1.275028  -1.326420  -0.144889
C    -1.210462  -1.065803  1.326086
O    -0.634044  -1.835908  2.116667
H    -1.715657  -2.316989  -0.316774
H    -0.247726  -1.373726  -0.532886
H    -1.837631  -0.572716  -0.706298
N    -1.816980  0.070922  1.804836
C    -1.614694  0.540124  3.176619
C    -2.443294  -0.321885  4.161099
O    -3.406559  0.142619  4.908017
H    -2.368550  0.641780  1.171595
H    -0.569751  0.291644  3.434275
C    -1.799308  2.058506  3.297474
C    -0.640889  2.849210  2.649201
C    -0.811743  4.371843  2.806304
C    0.419590  5.230588  2.519468
N    0.761709  5.358152  1.036599
H    -1.846134  2.318065  4.365269
H    -2.767237  2.359352  2.865032
H    -0.556562  2.572164  1.585940
H    0.302303  2.538134  3.126342
H    -1.062574  4.599818  3.854055
H    -1.670642  4.736931  2.219781
H    1.323601  4.839199  3.003056
H    0.264182  6.258642  2.867423
H    0.991969  4.452922  0.605127
H    1.579858  5.972384  0.903617
H    -0.015939  5.772499  0.502209
N    -2.108692  -1.583826  4.213277
C    -2.771197  -2.564629  5.053924
H    -1.361344  -1.859097  3.470801
H    -3.838157  -2.668632  4.784414
H    -2.646219  -2.316499  6.123225
H    -2.309328  -3.546110  4.902812
Ca    -4.867503  -0.163515  6.288478
