35
Energy: -36757.6771382 eV PBE+vdW (tier 2 basis)
C    -0.552395  -0.237581  -0.052984
C    -0.607400  0.497863  1.257716
O    0.255018  1.285923  1.632641
H    -1.475939  -0.765406  -0.315741
H    0.268664  -0.967340  -0.012812
H    -0.301670  0.476505  -0.846662
N    -1.724585  0.217245  2.048382
C    -1.935378  0.615289  3.439676
C    -3.008752  1.728239  3.515144
O    -4.177412  1.413642  4.031580
H    -2.357051  -0.490150  1.687552
H    -2.423093  -0.239305  3.932720
C    -0.634495  0.901396  4.241404
C    -0.772509  0.788119  5.762427
C    0.512677  1.148085  6.537827
C    1.744596  0.259652  6.315000
N    2.705308  0.792070  5.251570
H    -0.217455  1.877038  3.969047
H    0.078555  0.148932  3.874552
H    -1.083364  -0.231820  6.040665
H    -1.560456  1.464066  6.132050
H    0.284880  1.084655  7.610606
H    0.778621  2.205452  6.371890
H    1.486619  -0.762265  6.009713
H    2.348556  0.193590  7.227133
H    3.521370  0.169287  5.149549
H    3.069463  1.720209  5.512849
H    2.269761  0.882347  4.322560
N    -2.857258  2.947151  3.058552
C    -1.718482  3.587706  2.387297
H    -3.678850  3.547382  3.154550
H    -2.073380  3.992509  1.431082
H    -0.909356  2.874100  2.201553
H    -1.368716  4.422002  3.008770
Ca    -6.040921  0.948111  4.667221
