35
Energy: -36758.4716174 eV PBE+vdW (tier 2 basis)
C    0.815172  1.201229  1.314044
C    0.311444  0.100903  2.179515
O    1.212814  -0.587282  2.838973
H    1.324266  1.933226  1.961781
H    1.544315  0.804358  0.598385
H    0.034919  1.713906  0.755084
N    -0.961993  -0.118285  2.505819
C    -2.128265  0.003492  1.611322
C    -1.761728  -0.894816  0.373737
O    -0.569214  -0.957382  0.056204
H    -1.075062  -0.831286  3.226063
H    -2.958334  -0.421198  2.189688
C    -2.499487  1.457015  1.209953
C    -3.984222  1.688497  0.866073
C    -4.227211  3.165018  0.495687
C    -5.604793  3.520652  -0.060520
N    -6.690768  3.632450  1.007798
H    -1.899005  1.768382  0.344448
H    -2.219810  2.110664  2.049520
H    -4.610794  1.383015  1.720985
H    -4.276254  1.059260  0.013098
H    -3.522576  3.449589  -0.300906
H    -3.982689  3.828038  1.342177
H    -5.970168  2.784302  -0.787435
H    -5.584455  4.501190  -0.550557
H    -7.594322  3.895337  0.585449
H    -6.460419  4.357217  1.703254
H    -6.838789  2.749728  1.515014
N    -2.731311  -1.530998  -0.302450
C    -4.141638  -1.739919  0.013146
H    -2.377726  -2.032206  -1.117754
H    -4.361723  -2.814394  -0.000189
H    -4.786693  -1.248662  -0.726977
H    -4.385719  -1.359553  1.008941
Ca    2.901810  -1.547732  3.354581
