35
Energy: -36757.6665375 eV PBE+vdW (tier 2 basis)
C    0.022994  -0.404739  0.097523
C    -0.049902  0.342137  1.399134
O    0.889734  1.022995  1.823886
H    -0.938130  -0.792015  -0.258745
H    0.715031  -1.250994  0.219569
H    0.459062  0.251898  -0.664904
N    -1.260760  0.212276  2.078433
C    -1.596953  0.616915  3.446818
C    -2.663846  1.728721  3.473517
O    -3.730187  1.533468  4.211743
H    -1.929968  -0.406580  1.630273
H    -2.095388  -0.238906  3.928987
C    -0.321121  0.941843  4.255724
C    -0.333166  1.213766  5.753528
C    1.127829  1.211685  6.268138
C    2.147163  2.091222  5.528636
N    2.759337  1.464257  4.270842
H    0.156401  1.790750  3.762748
H    0.314869  0.063763  4.071390
H    -0.886487  0.446308  6.314973
H    -0.800006  2.185708  5.978190
H    1.503258  0.176095  6.311489
H    1.136376  1.558341  7.310714
H    3.002309  2.294874  6.183622
H    1.732935  3.058519  5.216433
H    3.517189  2.063074  3.911232
H    2.089487  1.319961  3.484714
H    3.186020  0.552222  4.487011
N    -2.581842  2.844103  2.789014
C    -1.535386  3.326415  1.876267
H    -3.386429  3.468287  2.875560
H    -1.881898  3.211962  0.840558
H    -0.599252  2.781200  2.010586
H    -1.378449  4.392101  2.078374
Ca    -5.450984  1.170294  5.226970
