35
Energy: -36758.8285224 eV PBE+vdW (tier 2 basis)
C    0.332013  0.484595  0.151360
C    -0.009933  0.421559  1.598569
O    0.972178  0.461224  2.471185
H    1.020271  -0.335591  -0.097490
H    0.858676  1.426335  -0.060618
H    -0.541437  0.417663  -0.501976
N    -1.232981  0.334493  2.050886
C    -2.531241  0.354006  1.350469
C    -3.464815  0.928410  2.457661
O    -3.182140  0.662659  3.631011
H    -1.431311  0.311407  3.075363
H    -2.473342  1.019042  0.478252
C    -2.933352  -1.083322  0.931182
C    -4.286599  -1.227661  0.192157
C    -5.429410  -1.800853  1.055030
C    -6.669825  -2.066199  0.202417
N    -7.769815  -2.767768  0.989523
H    -2.918911  -1.713665  1.832631
H    -2.134362  -1.463195  0.279638
H    -4.127850  -1.899397  -0.662956
H    -4.596370  -0.267161  -0.247718
H    -5.674194  -1.113343  1.880004
H    -5.089592  -2.745172  1.510375
H    -6.447697  -2.723553  -0.647816
H    -7.118009  -1.143584  -0.186991
H    -8.598683  -2.939032  0.400147
H    -8.080523  -2.211924  1.799268
H    -7.457170  -3.682359  1.347270
N    -4.526261  1.644450  2.056822
C    -5.460411  2.269241  2.998609
H    -4.582277  1.923656  1.082341
H    -6.461089  2.294118  2.555257
H    -5.150809  3.295859  3.233292
H    -5.475637  1.685951  3.923582
Ca    2.599389  0.626119  3.634442
