35
Energy: -36758.3546743 eV PBE+vdW (tier 2 basis)
C    -0.353050  0.282542  -0.024082
C    -0.403488  -0.150264  1.407566
O    0.471968  -0.862150  1.927613
H    -1.163528  0.959834  -0.314420
H    -0.377324  -0.607781  -0.667149
H    0.614261  0.768168  -0.209696
N    -1.478254  0.262561  2.164140
C    -1.522443  0.027974  3.605498
C    -1.901015  -1.449488  3.884302
O    -3.031405  -1.816658  4.428603
H    -2.240436  0.765144  1.719042
H    -0.478354  0.095654  3.954396
C    -2.375163  1.068630  4.339604
C    -1.843573  2.520605  4.284303
C    -0.505405  2.749917  5.015324
C    -0.220886  4.185123  5.459414
N    0.094290  5.145106  4.314530
H    -2.454459  0.766062  5.394838
H    -3.400232  1.059106  3.937458
H    -2.619784  3.148744  4.747290
H    -1.774980  2.847007  3.234487
H    0.348296  2.367027  4.433153
H    -0.498638  2.173988  5.954482
H    0.655209  4.222693  6.117659
H    -1.070564  4.628115  5.994358
H    0.300364  6.088357  4.678397
H    -0.689532  5.242571  3.654663
H    0.921171  4.842134  3.779578
N    -1.006558  -2.328528  3.522610
C    -1.134527  -3.775583  3.636741
H    -0.190247  -1.890867  2.985004
H    -1.961492  -4.149853  3.014287
H    -1.273649  -4.072071  4.686771
H    -0.209559  -4.237769  3.279224
Ca    -4.572249  -2.899595  5.152289
