35
Energy: -36758.5542195 eV PBE+vdW (tier 2 basis)
C    -0.678598  -1.917009  0.677785
C    -0.328912  -0.658133  1.391568
O    0.937310  -0.431306  1.661337
H    -0.312188  -2.777774  1.255217
H    -0.169366  -1.940908  -0.296642
H    -1.752142  -2.038837  0.514076
N    -1.209228  0.235287  1.760661
C    -2.643138  0.355843  1.434482
C    -2.828005  1.903574  1.458329
O    -2.033788  2.555333  2.152830
H    -0.919563  1.138173  2.206611
H    -2.817256  -0.044531  0.427927
C    -3.569881  -0.387926  2.436616
C    -3.639034  0.154730  3.883013
C    -4.702793  1.243687  4.146526
C    -6.137018  0.758376  4.361192
N    -6.378135  0.244216  5.779100
H    -3.240330  -1.436447  2.457540
H    -4.571834  -0.412958  1.982723
H    -2.661509  0.556350  4.183062
H    -3.802006  -0.705388  4.551982
H    -4.743273  1.948312  3.304654
H    -4.398196  1.863874  5.004171
H    -6.422108  -0.063603  3.692070
H    -6.858134  1.572950  4.226528
H    -7.349655  -0.080488  5.898186
H    -6.218706  0.986567  6.476350
H    -5.761731  -0.543623  6.021927
N    -3.841084  2.446999  0.768506
C    -4.720249  1.801704  -0.210627
H    -3.866295  3.465071  0.815937
H    -5.521955  2.502135  -0.462108
H    -5.188465  0.897894  0.196441
H    -4.185917  1.553146  -1.137582
Ca    2.929121  -0.205797  1.800622
