35
Energy: -36758.2400319 eV PBE+vdW (tier 2 basis)
C    0.931809  -0.461012  0.265184
C    0.616437  -0.334861  1.724631
O    1.484831  -0.229201  2.601162
H    1.535090  -1.367495  0.116095
H    1.555304  0.385525  -0.050792
H    0.048235  -0.512369  -0.380507
N    -0.720555  -0.361807  2.077356
C    -1.106895  -0.137568  3.458044
C    -2.230721  -1.052011  3.908303
O    -3.220199  -1.367723  3.112891
H    -1.390023  -0.188891  1.334913
H    -0.211829  -0.413576  4.035410
C    -1.456456  1.349050  3.787318
C    -0.255569  2.295913  3.618122
C    0.805232  2.214133  4.734384
C    2.167825  2.796341  4.341510
N    3.081804  1.747604  3.721002
H    -1.848765  1.417183  4.814095
H    -2.273287  1.671043  3.123692
H    -0.648851  3.321846  3.584151
H    0.197510  2.129215  2.630041
H    0.949791  1.179245  5.085382
H    0.450251  2.774109  5.610339
H    2.705237  3.199432  5.206653
H    2.066953  3.604382  3.606850
H    2.557567  1.060980  3.121357
H    3.828402  2.183214  3.163563
H    3.546476  1.192772  4.451718
N    -2.246796  -1.502635  5.143651
C    -1.231907  -1.308237  6.193900
H    -3.063411  -2.048759  5.418632
H    -1.198680  -0.259799  6.513629
H    -0.246835  -1.632247  5.838624
H    -1.514942  -1.926810  7.050048
Ca    -4.820987  -2.062572  2.067239
