35
Energy: -36760.1349934 eV PBE+vdW (tier 2 basis)
C    -0.169604  0.604824  -0.230509
C    -0.166176  0.518448  1.256385
O    0.873464  0.820627  1.923688
H    -1.122618  0.314598  -0.684615
H    0.631036  -0.029722  -0.635915
H    0.071467  1.637094  -0.524259
N    -1.282963  0.120628  1.890892
C    -1.459899  0.083040  3.353685
C    -0.595135  -1.053281  3.967323
O    0.582216  -0.731505  4.351029
H    -2.079487  -0.133562  1.310964
H    -0.981766  0.991653  3.750205
C    -2.949674  0.124727  3.754087
C    -3.587365  1.522671  3.622762
C    -5.063081  1.531220  4.077008
C    -5.676829  2.928468  3.976045
N    -7.128512  2.946452  4.436772
H    -3.020144  -0.208160  4.800413
H    -3.524463  -0.604175  3.164370
H    -3.523445  1.874647  2.581167
H    -3.015154  2.240929  4.230696
H    -5.125839  1.175033  5.117935
H    -5.643960  0.826360  3.460608
H    -5.683902  3.306238  2.945962
H    -5.152980  3.657339  4.607052
H    -7.529547  3.894324  4.364707
H    -7.224925  2.650976  5.419776
H    -7.721831  2.322876  3.869381
N    -0.991007  -2.306575  4.095534
C    -2.228170  -2.976679  3.677216
H    -0.299842  -2.905146  4.553062
H    -2.578019  -2.593724  2.714340
H    -3.010058  -2.872972  4.439304
H    -2.003756  -4.040942  3.555721
Ca    2.201971  0.405268  3.535206
