35
Energy: -36759.1875861 eV PBE+vdW (tier 2 basis)
C    0.325296  3.874310  0.421007
C    0.452709  2.680814  1.294679
O    1.559783  2.386871  1.844762
H    0.963069  3.686581  -0.460838
H    0.738911  4.770022  0.901926
H    -0.691918  4.057601  0.064406
N    -0.605398  1.847347  1.503909
C    -1.911265  2.313213  1.991595
C    -1.636174  3.051025  3.336775
O    -0.559651  2.775212  3.975897
H    -0.319698  0.964683  1.932956
H    -2.339768  3.013335  1.262618
C    -2.814363  1.053276  2.162969
C    -4.349757  1.198568  2.153019
C    -4.960457  1.483521  0.767965
C    -6.490752  1.505238  0.700910
N    -7.127557  0.117959  0.708663
H    -2.519603  0.549535  3.096035
H    -2.527868  0.375403  1.344338
H    -4.686945  1.950960  2.880203
H    -4.728292  0.239661  2.541279
H    -4.568745  0.772120  0.021977
H    -4.648171  2.474265  0.403000
H    -6.832809  1.972296  -0.230036
H    -6.942966  2.048078  1.540648
H    -8.154840  0.189572  0.638617
H    -6.922940  -0.412269  1.567097
H    -6.812103  -0.450279  -0.091741
N    -2.466682  3.953137  3.826700
C    -3.678938  4.541659  3.252858
H    -2.185759  4.332497  4.734076
H    -3.579456  5.633840  3.265073
H    -4.551699  4.265688  3.857232
H    -3.823607  4.214220  2.220917
Ca    1.587916  2.416279  4.006160
