35
Energy: -36759.798748 eV PBE+vdW (tier 2 basis)
C    0.145011  -0.243836  -0.336760
C    -0.062593  -0.095766  1.129532
O    0.888660  -0.306051  1.948708
H    0.529878  -1.249934  -0.554154
H    0.925493  0.464756  -0.653121
H    -0.759123  -0.065693  -0.927926
N    -1.271875  0.272685  1.584693
C    -1.600387  0.603202  2.985477
C    -1.534385  -0.681657  3.855194
O    -0.428755  -0.911211  4.457574
H    -1.995992  0.433317  0.886769
H    -0.769479  1.211140  3.374302
C    -2.892041  1.451105  2.999151
C    -3.400634  1.967305  4.364836
C    -2.709167  3.250132  4.865673
C    -3.270804  3.853050  6.156633
N    -4.579221  4.615068  5.960841
H    -3.699695  0.888753  2.514884
H    -2.695424  2.312046  2.341044
H    -3.327615  1.181915  5.134158
H    -4.478680  2.148983  4.234248
H    -2.704077  4.016775  4.073211
H    -1.648241  3.052816  5.081003
H    -2.573745  4.585836  6.579542
H    -3.475207  3.094863  6.923205
H    -4.901023  5.020631  6.853672
H    -5.342224  4.018619  5.611792
H    -4.468628  5.397987  5.299081
N    -2.524630  -1.548948  3.978223
C    -3.844829  -1.605745  3.336009
H    -2.305480  -2.328169  4.602315
H    -4.198318  -2.639448  3.398869
H    -3.782171  -1.335086  2.277877
H    -4.567611  -0.964649  3.855085
Ca    1.617972  -1.034536  3.796919
