35
Energy: -36758.8401447 eV PBE+vdW (tier 2 basis)
C    0.238963  -0.160632  2.675091
C    0.436614  1.204549  2.116249
O    1.598579  1.790682  2.304783
H    0.978719  -0.846962  2.238366
H    -0.761380  -0.559735  2.489464
H    0.415914  -0.141332  3.759775
N    -0.475467  1.854104  1.444791
C    -1.811630  1.457789  0.964630
C    -1.941147  2.363465  -0.304486
O    -1.316817  3.431794  -0.298865
H    -0.283740  2.799400  1.030753
H    -1.816850  0.390773  0.702854
C    -2.887238  1.781589  2.033489
C    -4.340936  1.456692  1.639746
C    -5.285540  1.631542  2.845189
C    -6.742410  1.218371  2.642180
N    -7.572578  2.250201  1.881356
H    -2.798937  2.847883  2.291361
H    -2.629755  1.216055  2.942846
H    -4.409255  0.416620  1.280899
H    -4.644952  2.102881  0.801021
H    -5.239475  2.663567  3.230910
H    -4.926315  1.002180  3.673613
H    -7.250754  1.097714  3.606005
H    -6.841772  0.278667  2.084251
H    -8.550195  1.935776  1.785463
H    -7.214727  2.422554  0.932418
H    -7.592763  3.154294  2.375611
N    -2.732021  1.931189  -1.293753
C    -2.924535  2.673291  -2.544340
H    -3.099169  0.985955  -1.243820
H    -2.247751  2.300889  -3.323881
H    -2.714082  3.730768  -2.363712
H    -3.958747  2.554203  -2.883183
Ca    3.449943  2.515336  2.571324
