35
Energy: -36758.3180148 eV PBE+vdW (tier 2 basis)
C    -0.323885  0.049797  -0.938666
C    -0.540469  -0.583100  0.400258
O    0.394004  -0.977147  1.117734
H    -1.243466  0.395916  -1.423007
H    0.182738  -0.669641  -1.596257
H    0.367670  0.894686  -0.819320
N    -1.838851  -0.728233  0.836137
C    -2.143893  -1.175708  2.194598
C    -1.936768  -2.710518  2.299899
O    -2.908017  -3.560472  2.506305
H    -2.604786  -0.498633  0.210526
H    -1.345839  -0.764357  2.836702
C    -3.498930  -0.659716  2.695185
C    -3.515388  0.797952  3.215140
C    -3.311356  1.909404  2.167759
C    -3.773478  3.305315  2.589751
N    -2.907190  3.952220  3.668120
H    -3.814479  -1.295570  3.534266
H    -4.265222  -0.788440  1.913468
H    -2.770513  0.883083  4.023740
H    -4.498160  0.941124  3.690537
H    -3.916255  1.687680  1.274260
H    -2.268743  1.950697  1.815730
H    -4.794349  3.297352  2.992611
H    -3.746711  3.999316  1.741329
H    -2.909212  3.418707  4.548304
H    -3.251412  4.899269  3.889801
H    -1.927825  4.051891  3.363798
N    -0.703197  -3.113816  2.163005
C    -0.249003  -4.498059  2.189471
H    -0.033846  -2.321381  1.892926
H    -0.686438  -5.074049  1.359836
H    -0.485998  -4.966860  3.156066
H    0.838533  -4.511782  2.070529
Ca    -3.972755  -5.254531  2.770615
