35
Energy: -36758.5137733 eV PBE+vdW (tier 2 basis)
C    1.131599  1.307378  0.321419
C    0.538327  1.490304  1.684621
O    0.920478  2.388407  2.459696
H    2.223822  1.374080  0.395933
H    0.815443  2.147250  -0.314321
H    0.849481  0.368952  -0.168019
N    -0.475891  0.642403  2.045922
C    -1.078204  0.559455  3.382985
C    -1.891049  1.822838  3.729641
O    -3.150012  1.714996  4.079333
H    -0.779245  -0.045867  1.364494
H    -1.806954  -0.259658  3.325972
C    -0.069959  0.228355  4.522338
C    0.696642  -1.088013  4.304234
C    1.541533  -1.511415  5.527465
C    2.927612  -0.878322  5.677842
N    4.009084  -1.663129  4.938091
H    -0.650184  0.156171  5.455976
H    0.624235  1.070222  4.647691
H    1.323111  -1.011257  3.400768
H    -0.020012  -1.896849  4.098372
H    1.643004  -2.608112  5.542075
H    0.990203  -1.279137  6.450027
H    3.251130  -0.867804  6.725008
H    2.982101  0.148026  5.293992
H    4.933021  -1.216995  5.042368
H    3.818755  -1.742558  3.929778
H    4.092405  -2.621135  5.310302
N    -1.292410  2.976905  3.679354
C    -1.897878  4.273476  3.964207
H    -0.284478  2.906215  3.299355
H    -1.123136  5.041511  3.886986
H    -2.306995  4.297108  4.983406
H    -2.684448  4.507614  3.232509
Ca    -5.114734  1.857816  4.492690
