35
Energy: -36758.1647277 eV PBE+vdW (tier 2 basis)
C    -0.571413  1.103991  -1.305510
C    -0.172949  0.531925  0.006797
O    1.101666  0.468269  0.303413
H    -0.269228  0.409511  -2.105278
H    -0.035357  2.047241  -1.472996
H    -1.645368  1.281827  -1.393020
N    -1.031953  0.054580  0.886051
C    -2.525192  0.014342  0.902054
C    -3.183480  -0.384943  -0.443398
O    -4.005391  0.370304  -0.985471
H    -0.604148  -0.310170  1.739156
H    -2.734713  -0.828370  1.579844
C    -3.139416  1.254992  1.592793
C    -2.849053  2.687261  1.103170
C    -3.656897  3.312405  -0.052440
C    -5.182829  3.347988  0.149763
N    -5.890575  2.357738  -0.757118
H    -2.809881  1.200016  2.641034
H    -4.220718  1.057927  1.641402
H    -1.778062  2.800806  0.869475
H    -2.994993  3.332039  1.982677
H    -3.428223  2.829136  -1.012471
H    -3.312163  4.349622  -0.155682
H    -5.603259  4.333817  -0.074410
H    -5.474684  3.094879  1.176283
H    -5.948557  2.715307  -1.719676
H    -5.344016  1.463637  -0.793970
H    -6.853633  2.172541  -0.447867
N    -2.883039  -1.587276  -0.962207
C    -2.060926  -2.660741  -0.407243
H    -3.398598  -1.797519  -1.816865
H    -2.376497  -3.604868  -0.861825
H    -2.202231  -2.758365  0.676415
H    -0.994097  -2.519670  -0.630334
Ca    3.126157  0.526557  0.470218
