35
Energy: -36759.4324396 eV PBE+vdW (tier 2 basis)
C    -0.688043  0.282794  -1.344658
C    0.040744  -0.065464  -0.090622
O    1.306866  -0.184115  -0.092028
H    0.032236  0.582010  -2.111967
H    -1.254334  -0.582978  -1.724169
H    -1.404051  1.096256  -1.178280
N    -0.619400  -0.275255  1.079611
C    -1.797523  -1.147650  1.204164
C    -1.391822  -2.543580  0.624479
O    -0.170256  -2.786379  0.344449
H    0.013998  -0.324745  1.877962
H    -1.897232  -1.311566  2.289221
C    -3.137433  -0.524415  0.709223
C    -4.328324  -0.742088  1.667298
C    -5.575905  0.064518  1.247297
C    -6.715484  -0.098175  2.255507
N    -7.935994  0.729529  1.875862
H    -3.382896  -0.873193  -0.304272
H    -2.959361  0.556161  0.629946
H    -4.027144  -0.438724  2.682370
H    -4.597095  -1.809779  1.737372
H    -5.911160  -0.256459  0.248160
H    -5.303416  1.129344  1.168240
H    -6.427780  0.236069  3.260254
H    -7.066000  -1.135537  2.325279
H    -8.694209  0.609359  2.565400
H    -8.317187  0.459658  0.956802
H    -7.721512  1.737217  1.835514
N    -2.316612  -3.470672  0.478271
C    -2.061012  -4.847542  0.027621
H    -3.273809  -3.231161  0.721549
H    -3.010477  -5.388604  0.018341
H    -1.368148  -5.348018  0.714121
H    -1.640124  -4.843757  -0.984442
Ca    1.919511  -2.245908  0.033852
