35
Energy: -36759.3571785 eV PBE+vdW (tier 2 basis)
C    0.287145  1.167165  0.547729
C    -0.049388  0.522521  1.844753
O    0.670637  0.719307  2.873568
H    1.330053  0.896836  0.315310
H    0.277300  2.262977  0.634591
H    -0.349167  0.851339  -0.283180
N    -1.117413  -0.314892  1.957664
C    -2.462788  0.070355  1.528485
C    -2.939013  1.204351  2.505741
O    -2.168452  1.598469  3.444489
H    -1.112130  -0.832804  2.839348
H    -2.392199  0.518887  0.525374
C    -3.403457  -1.159734  1.504316
C    -2.977420  -2.275396  0.522257
C    -3.436747  -2.101297  -0.944269
C    -4.783504  -2.729324  -1.315582
N    -4.684743  -4.231468  -1.568673
H    -4.427151  -0.824111  1.280201
H    -3.451077  -1.570879  2.524620
H    -3.350015  -3.227204  0.931140
H    -1.883301  -2.373638  0.545885
H    -2.663653  -2.482450  -1.629269
H    -3.521318  -1.034071  -1.200143
H    -5.175886  -2.306774  -2.248019
H    -5.545880  -2.604836  -0.535960
H    -4.051107  -4.439653  -2.355330
H    -5.606216  -4.626979  -1.812042
H    -4.339438  -4.752147  -0.749844
N    -4.125798  1.745949  2.326215
C    -4.694902  2.824559  3.149532
H    -4.690836  1.415686  1.547811
H    -5.742377  2.956714  2.866555
H    -4.154992  3.763136  2.973455
H    -4.638564  2.556825  4.210030
Ca    -0.271011  1.805690  4.482981
