35
Energy: -36758.4814314 eV PBE+vdW (tier 2 basis)
C    -0.556076  0.383632  -0.089060
C    -0.404569  0.411100  1.399811
O    0.692011  0.630801  1.947684
H    0.179062  -0.319216  -0.503372
H    -0.294238  1.372505  -0.490088
H    -1.558740  0.109086  -0.433711
N    -1.532695  0.197757  2.153063
C    -1.566854  -0.005103  3.607660
C    -1.173999  1.275153  4.375682
O    -1.972925  1.773751  5.288236
H    -2.412019  0.098611  1.656727
H    -2.619116  -0.194000  3.854723
C    -0.692587  -1.198634  4.108959
C    -0.843336  -2.530959  3.348101
C    -2.124362  -3.332553  3.629078
C    -2.272304  -4.630548  2.832920
N    -1.296610  -5.724716  3.259420
H    -0.913484  -1.343829  5.178068
H    0.362142  -0.904841  4.048497
H    0.043061  -3.123624  3.625659
H    -0.748715  -2.348392  2.266791
H    -3.015776  -2.742684  3.364513
H    -2.223746  -3.544994  4.706482
H    -2.101876  -4.481929  1.759060
H    -3.270627  -5.063943  2.964729
H    -1.451021  -6.585105  2.711776
H    -1.413588  -5.974050  4.252443
H    -0.313658  -5.451990  3.120332
N    -0.028435  1.827239  4.102347
C    0.501264  3.034476  4.722835
H    0.482185  1.349296  3.266745
H    1.492916  3.234948  4.306486
H    0.610128  2.900318  5.808932
H    -0.137483  3.903516  4.503056
Ca    -2.878610  2.974128  6.628122
