35
Energy: -36758.4173833 eV PBE+vdW (tier 2 basis)
C    -0.462070  0.272304  1.884058
C    -0.535473  -0.925206  2.763682
O    0.599528  -1.477746  3.117511
H    -1.439260  0.643801  1.577679
H    0.114182  0.036950  0.982342
H    0.063735  1.067687  2.436458
N    -1.633182  -1.358526  3.377792
C    -2.995973  -1.361800  2.822222
C    -2.860793  -2.085647  1.434794
O    -1.781593  -2.024526  0.838756
H    -1.458902  -2.107493  4.047163
H    -3.557392  -2.011110  3.503525
C    -3.721648  0.030873  2.796018
C    -4.225624  0.535698  1.431210
C    -4.854509  1.947754  1.451996
C    -6.252057  1.998991  2.070007
N    -6.884606  3.373770  1.888180
H    -3.037226  0.771329  3.233108
H    -4.558637  -0.041442  3.503389
H    -4.951066  -0.169718  1.000531
H    -3.396131  0.566450  0.709871
H    -4.917571  2.291439  0.407647
H    -4.187618  2.651812  1.975574
H    -6.256739  1.809956  3.150225
H    -6.938343  1.290213  1.589402
H    -7.830402  3.411695  2.297406
H    -6.973660  3.620941  0.891043
H    -6.327604  4.115676  2.337131
N    -3.937353  -2.739913  0.971254
C    -5.192846  -3.029635  1.665435
H    -3.786496  -3.196847  0.073287
H    -5.905621  -3.420008  0.933019
H    -5.634566  -2.127123  2.105708
H    -5.061881  -3.789690  2.448121
Ca    2.454138  -2.249572  3.180817
