35
Energy: -36759.1251058 eV PBE+vdW (tier 2 basis)
C    -0.828963  1.414297  -1.064986
C    -0.073771  0.347954  -0.342957
O    0.810646  -0.321049  -0.964467
H    -0.986899  2.301814  -0.445279
H    -1.815846  1.042996  -1.385324
H    -0.270463  1.690524  -1.965888
N    -0.271458  0.075408  0.979364
C    -1.583043  -0.230080  1.582746
C    -2.119551  -1.520534  0.875548
O    -1.557268  -1.934842  -0.199241
H    0.462762  -0.543002  1.330331
H    -1.349478  -0.532777  2.615799
C    -2.615026  0.923134  1.672806
C    -2.411630  1.914385  2.843046
C    -1.325010  2.987444  2.651968
C    -1.067562  3.891047  3.861079
N    -2.181428  4.898345  4.137631
H    -3.600869  0.461739  1.808144
H    -2.689464  1.455547  0.717749
H    -2.209846  1.346579  3.766187
H    -3.389885  2.396376  2.997921
H    -1.545562  3.609416  1.768525
H    -0.353291  2.513919  2.446376
H    -0.944711  3.318852  4.789500
H    -0.164233  4.493852  3.710917
H    -2.339130  5.526060  3.335372
H    -1.936492  5.496327  4.942341
H    -3.079540  4.448455  4.363033
N    -3.110630  -2.215539  1.399861
C    -3.842747  -2.023341  2.657433
H    -3.390825  -3.030878  0.850498
H    -4.016583  -3.009114  3.102980
H    -4.815189  -1.550567  2.467980
H    -3.264281  -1.422677  3.364839
Ca    0.098144  -2.270940  -1.553883
