35
Energy: -36759.8574706 eV PBE+vdW (tier 2 basis)
C    0.371918  -0.752422  0.195900
C    -0.032496  -0.376992  1.577259
O    0.807624  0.116698  2.396164
H    1.213658  -1.457697  0.239155
H    0.742861  0.145921  -0.320036
H    -0.439891  -1.192551  -0.392199
N    -1.308372  -0.554381  1.968427
C    -1.799531  -0.080043  3.270082
C    -1.142095  -0.883372  4.426874
O    -0.243520  -0.264124  5.096343
H    -1.965791  -0.920058  1.284498
H    -1.337473  0.907568  3.411030
C    -3.314134  0.249645  3.313754
C    -4.416857  -0.798553  3.075381
C    -5.797402  -0.104710  2.998853
C    -6.939652  -1.105505  2.819285
N    -8.293270  -0.410213  2.754009
H    -3.436430  1.061217  2.578686
H    -3.479987  0.722284  4.293808
H    -4.433127  -1.534176  3.890462
H    -4.248315  -1.357976  2.140743
H    -5.799197  0.613566  2.163363
H    -5.958679  0.477168  3.920691
H    -7.007116  -1.813997  3.654344
H    -6.850901  -1.677521  1.887127
H    -9.057196  -1.093222  2.633374
H    -8.350669  0.250598  1.964625
H    -8.495713  0.121577  3.613914
N    -1.404366  -2.143963  4.724927
C    -2.229450  -3.144452  4.049191
H    -0.880245  -2.486668  5.533752
H    -1.629613  -4.052571  3.913394
H    -2.549179  -2.790948  3.068095
H    -3.102574  -3.397572  4.662723
Ca    1.572158  0.605551  4.331227
