35
Energy: -36757.548403 eV PBE+vdW (tier 2 basis)
C    0.283209  0.305898  1.989306
C    -0.506292  0.767387  3.190040
O    -0.058053  0.808560  4.319556
H    0.162392  -0.776500  1.828844
H    1.344392  0.475868  2.199721
H    0.010799  0.834989  1.067838
N    -1.835103  1.211120  2.980639
C    -2.770917  0.519308  2.112110
C    -3.386674  1.470860  1.073567
O    -3.404658  1.108706  -0.187302
H    -2.215597  1.522157  3.873799
H    -2.194251  -0.196393  1.512081
C    -3.885316  -0.265609  2.891124
C    -3.419503  -0.908265  4.217070
C    -2.384009  -2.043301  4.105623
C    -1.558814  -2.298303  5.367189
N    -2.367579  -2.866010  6.530581
H    -4.306588  -1.029913  2.221775
H    -4.715471  0.413651  3.131565
H    -4.333970  -1.276918  4.706491
H    -3.024103  -0.123113  4.880095
H    -1.627640  -1.808566  3.342584
H    -2.860704  -2.974646  3.761455
H    -1.089585  -1.377152  5.737928
H    -0.768039  -3.033502  5.177566
H    -1.758397  -3.039319  7.344878
H    -2.810012  -3.764687  6.287967
H    -3.111320  -2.226957  6.843925
N    -3.878240  2.650216  1.378709
C    -3.978300  3.321232  2.684433
H    -4.209814  3.204761  0.588972
H    -3.019192  3.787553  2.942195
H    -4.283410  2.619819  3.465767
H    -4.745288  4.096978  2.600225
Ca    -3.444549  0.699941  -2.170784
