35
Energy: -36758.6987071 eV PBE+vdW (tier 2 basis)
C    -0.289269  -1.070569  1.506726
C    -0.080873  0.371446  1.202492
O    1.152889  0.816247  1.117512
H    -1.343244  -1.347366  1.588271
H    0.212445  -1.319700  2.452553
H    0.175832  -1.682947  0.720719
N    -1.056893  1.220109  1.010946
C    -2.519870  1.019954  0.972815
C    -2.963150  2.173021  0.027516
O    -2.331392  3.232724  0.119131
H    -0.864468  2.220774  0.799075
H    -2.742841  0.028020  0.564061
C    -3.101666  1.187905  2.402069
C    -4.641972  1.157401  2.546430
C    -5.308069  2.545893  2.640820
C    -6.798916  2.406556  2.946646
N    -7.465519  3.755809  3.185304
H    -2.705143  2.127537  2.814380
H    -2.676354  0.379816  3.013364
H    -4.870478  0.602606  3.467339
H    -5.101813  0.574638  1.735186
H    -5.163439  3.113520  1.708500
H    -4.820627  3.118425  3.446586
H    -6.976464  1.821940  3.858294
H    -7.354158  1.936344  2.125464
H    -8.470142  3.644521  3.390155
H    -7.387417  4.375439  2.366020
H    -7.045141  4.251114  3.985365
N    -4.008820  1.996530  -0.800211
C    -4.668512  0.754301  -1.209967
H    -4.180027  2.810806  -1.390666
H    -5.696415  0.982527  -1.510600
H    -4.715405  0.034714  -0.387263
H    -4.155928  0.290769  -2.063903
Ca    3.104794  1.256591  0.950228
