35
Energy: -36758.2938503 eV PBE+vdW (tier 2 basis)
C    0.643308  -1.353292  0.682334
C    0.437242  -0.854989  2.074509
O    1.241396  -1.265182  3.020560
H    0.559216  -2.450003  0.664946
H    1.651550  -1.087036  0.333213
H    -0.086721  -0.947669  -0.025629
N    -0.546731  -0.020857  2.320404
C    -1.014336  0.554009  3.589219
C    -2.533562  0.737943  3.369419
O    -2.907219  1.013093  2.205508
H    -1.195048  0.214311  1.553945
H    -0.805195  -0.172674  4.382757
C    -0.334850  1.919706  3.953154
C    -1.059332  3.254143  3.648731
C    -0.780021  4.006532  2.331753
C    -1.377972  3.535422  1.008936
N    -2.894520  3.488068  1.022892
H    0.673162  1.925569  3.512199
H    -0.181992  1.885389  5.039983
H    -0.731957  3.944281  4.438602
H    -2.141022  3.151580  3.828973
H    0.306933  4.066677  2.166629
H    -1.089186  5.052935  2.484596
H    -1.057493  2.528113  0.718193
H    -1.086654  4.225198  0.208023
H    -3.299525  4.326065  1.461850
H    -3.199242  2.628189  1.540589
H    -3.276519  3.432607  0.069054
N    -3.362649  0.649984  4.404947
C    -3.051956  0.321638  5.800512
H    -4.346129  0.784178  4.168471
H    -3.928410  0.564086  6.408471
H    -2.215250  0.921662  6.175899
H    -2.841928  -0.749082  5.922171
Ca    2.741471  -2.334534  3.887511
