35
Energy: -36758.1470369 eV PBE+vdW (tier 2 basis)
C    0.272509  0.146664  0.200056
C    0.001377  0.051535  1.658164
O    1.039121  0.000120  2.461285
H    -0.618541  0.078860  -0.422200
H    0.967260  -0.656602  -0.083563
H    0.774879  1.101973  -0.014872
N    -1.192219  0.004679  2.220036
C    -2.614824  0.162514  1.769207
C    -3.493046  -1.088270  2.068208
O    -4.597299  -0.868431  2.587763
H    -1.143466  -0.082288  3.237988
H    -3.001023  0.890732  2.496489
C    -2.884406  0.758006  0.372571
C    -4.353713  1.226997  0.218830
C    -5.323279  0.155056  -0.325197
C    -6.787652  0.340295  0.058301
N    -7.016732  0.153288  1.561331
H    -2.648376  0.046188  -0.430788
H    -2.229425  1.631173  0.245729
H    -4.360873  2.085772  -0.464575
H    -4.694343  1.625074  1.187116
H    -5.014402  -0.859365  -0.033574
H    -5.290648  0.160202  -1.424064
H    -7.410913  -0.405329  -0.446863
H    -7.172164  1.332973  -0.203684
H    -6.214522  -0.355773  2.005383
H    -7.882914  -0.369140  1.743046
H    -7.108813  1.052305  2.048760
N    -3.092077  -2.327660  1.735821
C    -1.911392  -2.774514  1.001951
H    -3.759225  -3.048341  2.010716
H    -2.123337  -3.764366  0.585722
H    -1.031241  -2.868529  1.653293
H    -1.688849  -2.111820  0.158533
Ca    2.857510  0.081084  3.360753
