35
Energy: -36759.6321197 eV PBE+vdW (tier 2 basis)
C    -0.556973  -2.977645  1.403083
C    -0.409716  -1.970140  2.487340
O    0.676441  -1.867986  3.145359
H    -1.552838  -2.988660  0.948300
H    -0.323770  -3.977251  1.795572
H    0.190191  -2.765380  0.623101
N    -1.435406  -1.150515  2.768992
C    -1.367460  -0.011336  3.707261
C    -1.168667  -0.543640  5.148720
O    0.018273  -0.498804  5.626770
H    -2.274804  -1.244607  2.199790
H    -0.425598  0.518792  3.497791
C    -2.531839  0.962069  3.407987
C    -2.432731  2.413457  3.927615
C    -2.740109  2.649918  5.422564
C    -3.460740  3.961777  5.745572
N    -2.641540  5.220856  5.474512
H    -3.496050  0.531520  3.708453
H    -2.563323  1.031692  2.309727
H    -3.167604  2.970332  3.324913
H    -1.449965  2.832009  3.659125
H    -1.837775  2.551055  6.046212
H    -3.436365  1.878849  5.786961
H    -3.730977  4.011573  6.807140
H    -4.378281  4.073949  5.153743
H    -3.185585  6.063522  5.718531
H    -2.376836  5.314115  4.483657
H    -1.778080  5.249385  6.035770
N    -2.139073  -1.072210  5.876706
C    -3.536075  -1.377775  5.543678
H    -1.837029  -1.365699  6.808094
H    -4.205564  -0.566420  5.855466
H    -3.820281  -2.283026  6.090918
H    -3.656080  -1.576281  4.476096
Ca    1.822122  -1.421161  4.864089
