35
Energy: -36758.4826806 eV PBE+vdW (tier 2 basis)
C    0.126745  0.061099  -0.834559
C    0.286202  -0.295641  0.599497
O    1.498329  -0.599031  1.003584
H    0.770713  0.930126  -1.043368
H    -0.898389  0.300275  -1.110311
H    0.460073  -0.775808  -1.459936
N    -0.643185  -0.188562  1.540743
C    -2.103719  -0.363924  1.416218
C    -2.288971  -1.808916  0.831497
O    -1.466418  -2.186773  -0.006886
H    -0.292152  -0.371751  2.480579
H    -2.464075  -0.295002  2.450102
C    -2.849660  0.717876  0.586305
C    -4.315158  0.883763  1.031492
C    -5.066936  2.098268  0.442767
C    -5.522200  1.920754  -1.004790
N    -6.438902  3.062249  -1.430272
H    -2.801302  0.468330  -0.482479
H    -2.317764  1.670682  0.728478
H    -4.339722  1.006432  2.123994
H    -4.886754  -0.030375  0.814545
H    -4.449017  3.005588  0.536510
H    -5.956023  2.260163  1.072512
H    -6.106906  1.002334  -1.142349
H    -4.694678  1.916603  -1.724443
H    -6.756086  2.952087  -2.405063
H    -5.970070  3.977551  -1.361338
H    -7.282225  3.108743  -0.838508
N    -3.328910  -2.559226  1.234345
C    -4.291786  -2.373814  2.318192
H    -3.376803  -3.452695  0.744001
H    -4.305292  -3.272865  2.945859
H    -5.304307  -2.213963  1.925717
H    -4.020913  -1.525868  2.953085
Ca    3.389999  -1.262471  1.151986
