35
Energy: -36759.6375102 eV PBE+vdW (tier 2 basis)
C    -0.649835  3.333354  0.816560
C    -0.577404  1.979096  1.424406
O    0.537747  1.384534  1.561965
H    -0.184600  3.263030  -0.180569
H    -0.038070  4.053690  1.377665
H    -1.668399  3.712257  0.698067
N    -1.705069  1.328567  1.826336
C    -2.677030  1.933667  2.742255
C    -1.942596  2.150849  4.104283
O    -0.780601  1.636377  4.275429
H    -1.524032  0.346296  2.043206
H    -2.958899  2.924006  2.353653
C    -3.938409  1.046432  2.858468
C    -4.779594  1.014003  1.568415
C    -6.047359  0.144818  1.708961
C    -6.871116  0.153826  0.420098
N    -8.135395  -0.686320  0.544278
H    -4.552443  1.415350  3.690910
H    -3.629319  0.027962  3.146177
H    -4.167540  0.639879  0.733812
H    -5.071900  2.042517  1.302978
H    -6.661746  0.520779  2.542914
H    -5.762251  -0.889386  1.960403
H    -6.316013  -0.262281  -0.429920
H    -7.207183  1.163062  0.150931
H    -8.679608  -0.669890  -0.332097
H    -8.755648  -0.341742  1.292149
H    -7.924249  -1.673827  0.751358
N    -2.486751  2.873009  5.064029
C    -3.748287  3.621387  5.076820
H    -1.933322  2.925631  5.922024
H    -3.573180  4.580464  5.576884
H    -4.513609  3.069842  5.637829
H    -4.099553  3.820589  4.060742
Ca    1.176691  1.011731  3.594389
