35
Energy: -36757.7733182 eV PBE+vdW (tier 2 basis)
C    0.187473  -0.634321  -0.017459
C    0.022192  -0.434894  1.463174
O    0.967031  -0.542976  2.247015
H    0.624803  0.291795  -0.423282
H    -0.726528  -0.849531  -0.580539
H    0.919627  -1.426165  -0.207358
N    -1.211127  -0.024855  1.977034
C    -2.491154  -0.597741  1.573126
C    -3.588429  0.484283  1.584044
O    -4.714736  0.285829  2.217212
H    -1.127667  0.168660  2.976465
H    -2.396870  -0.889357  0.513959
C    -2.852747  -1.869490  2.382985
C    -1.693182  -2.898487  2.480908
C    -0.883592  -2.790627  3.789478
C    0.374820  -3.650222  3.910852
N    1.529555  -3.164596  3.037656
H    -3.719267  -2.346511  1.902110
H    -3.162553  -1.581665  3.400833
H    -1.046428  -2.805526  1.593679
H    -2.120410  -3.908133  2.414119
H    -1.528541  -3.102191  4.625145
H    -0.604196  -1.749312  4.007228
H    0.200170  -4.702259  3.654752
H    0.741304  -3.613446  4.942646
H    2.434907  -3.364654  3.484034
H    1.474368  -2.131389  2.848547
H    1.545312  -3.637107  2.125974
N    -3.425892  1.625435  0.953290
C    -2.308853  2.079779  0.109305
H    -4.191444  2.293443  1.051314
H    -2.669232  2.924174  -0.485563
H    -1.988828  1.282986  -0.568296
H    -1.467788  2.404457  0.732503
Ca    -6.553083  0.011962  3.033902
