35
Energy: -36757.8605381 eV PBE+vdW (tier 2 basis)
C    1.300813  0.706304  0.059032
C    0.901697  0.801638  1.505440
O    1.680141  0.992150  2.424197
H    2.190245  1.321001  -0.111817
H    0.506575  1.000614  -0.637707
H    1.583387  -0.335014  -0.160786
N    -0.490577  0.665340  1.741537
C    -1.011116  0.290481  3.059067
C    -2.531824  0.280761  3.002014
O    -3.203409  -0.563690  3.730927
H    -0.951338  0.189747  0.965247
H    -0.716898  -0.743446  3.318704
C    -0.539338  1.166304  4.274891
C    -0.729550  2.697258  4.252946
C    0.260950  3.559140  3.441138
C    1.720244  3.583656  3.901883
N    1.974493  4.597486  5.017233
H    0.511416  0.902285  4.432691
H    -1.084800  0.771308  5.146521
H    -0.717606  3.018617  5.307584
H    -1.744478  2.959383  3.915089
H    -0.126049  4.590709  3.406439
H    0.277439  3.235124  2.394770
H    2.384135  3.884499  3.084088
H    2.075280  2.616263  4.272146
H    1.753793  5.557020  4.712625
H    2.966109  4.590961  5.299741
H    1.417800  4.407249  5.861295
N    -3.151888  1.143119  2.233592
C    -4.599682  1.307833  2.072871
H    -2.528881  1.740865  1.683065
H    -4.781265  2.206552  1.477143
H    -5.082220  1.429355  3.049684
H    -5.027025  0.447644  1.540978
Ca    -4.154569  -2.063911  4.707964
