35
Energy: -36759.1694463 eV PBE+vdW (tier 2 basis)
C    0.370659  -1.175180  1.743099
C    -0.673578  -1.327916  2.792841
O    -0.718461  -2.386387  3.495818
H    0.714426  -2.151212  1.386978
H    1.237572  -0.682416  2.215802
H    0.061608  -0.548653  0.901699
N    -1.578064  -0.342785  3.051081
C    -2.440448  0.266118  2.014316
C    -2.791657  -0.837031  0.971481
O    -2.768386  -2.061776  1.339677
H    -2.062400  -0.503217  3.934745
H    -3.406971  0.394591  2.532371
C    -2.086294  1.706647  1.560993
C    -0.750547  1.987349  0.855860
C    -0.577570  3.444655  0.358786
C    -0.336697  4.471706  1.467828
N    -0.019869  5.844503  0.887613
H    -2.156485  2.305272  2.481226
H    -2.924604  2.068400  0.940998
H    -0.643215  1.346443  -0.032170
H    0.087376  1.735720  1.522508
H    -1.453590  3.740752  -0.240554
H    0.285345  3.452842  -0.324916
H    -1.206590  4.619408  2.119116
H    0.524492  4.206066  2.094097
H    0.824614  5.824546  0.295654
H    0.149190  6.537170  1.633364
H    -0.790670  6.206760  0.306327
N    -3.186808  -0.479057  -0.232586
C    -3.698704  -1.370533  -1.280819
H    -3.201189  0.517153  -0.439021
H    -3.255192  -1.082431  -2.240043
H    -4.790351  -1.275458  -1.347060
H    -3.432558  -2.403017  -1.047232
Ca    -2.259296  -3.678321  2.712016
