35
Energy: -36758.4909628 eV PBE+vdW (tier 2 basis)
C    -0.537218  0.020402  -0.048760
C    -0.364525  0.110331  1.436188
O    0.749363  0.337872  1.954066
H    0.257647  -0.611777  -0.462990
H    -0.391736  1.021503  -0.479978
H    -1.513119  -0.363570  -0.364175
N    -1.488450  -0.039295  2.199645
C    -1.593026  -0.108704  3.665932
C    -1.043745  1.131445  4.391333
O    -1.793622  1.696272  5.311092
H    -2.358173  -0.188768  1.697027
H    -2.672151  -0.069680  3.862464
C    -1.122719  -1.457267  4.297268
C    0.311077  -1.962033  4.055565
C    0.530439  -3.311625  4.768796
C    1.943095  -3.891143  4.716664
N    2.297038  -4.524943  3.373263
H    -1.834050  -2.211851  3.928415
H    -1.306090  -1.385649  5.382353
H    1.050122  -1.234522  4.423554
H    0.485938  -2.058487  2.974046
H    -0.193395  -4.063636  4.412757
H    0.311915  -3.195442  5.841548
H    2.060750  -4.695127  5.452730
H    2.717072  -3.136936  4.906753
H    3.245919  -4.928562  3.397089
H    2.276075  -3.846305  2.600182
H    1.649350  -5.290790  3.136045
N    0.136635  1.586783  4.098934
C    0.771284  2.760041  4.691143
H    0.587510  1.066994  3.249148
H    1.784680  2.845097  4.288928
H    0.835993  2.661602  5.782894
H    0.222923  3.675688  4.427146
Ca    -2.887665  2.825192  6.565837
