35
Energy: -36758.7007625 eV PBE+vdW (tier 2 basis)
C    0.528738  0.112260  0.099888
C    0.160911  0.685267  1.423990
O    1.109863  1.249280  2.138313
H    1.317058  -0.642156  0.234251
H    0.944646  0.903526  -0.540620
H    -0.313079  -0.351602  -0.420058
N    -1.050650  0.663166  1.913212
C    -2.331511  0.305828  1.278477
C    -3.323579  1.225226  2.063289
O    -2.954563  1.649494  3.167919
H    -1.292220  1.144877  2.816656
H    -2.299271  0.591201  0.218508
C    -2.701518  -1.195805  1.387495
C    -3.018899  -1.720779  2.798405
C    -3.227014  -3.250885  2.843355
C    -4.593484  -3.789943  2.414126
N    -5.605987  -3.789359  3.557760
H    -1.874774  -1.781473  0.955736
H    -3.556976  -1.352046  0.712486
H    -3.889745  -1.186897  3.213612
H    -2.187678  -1.480325  3.476435
H    -2.994584  -3.627674  3.852040
H    -2.486179  -3.738316  2.192478
H    -4.526869  -4.835781  2.092692
H    -5.054529  -3.214929  1.601588
H    -5.292408  -4.395378  4.330604
H    -6.522151  -4.146178  3.246609
H    -5.758298  -2.849270  3.948259
N    -4.511976  1.456538  1.496667
C    -5.537545  2.319002  2.093287
H    -4.666528  1.136639  0.544711
H    -5.560922  3.291981  1.586708
H    -5.299375  2.469703  3.149345
H    -6.519829  1.844082  1.997107
Ca    2.653095  2.230710  2.966882
