35
Energy: -36757.3551433 eV PBE+vdW (tier 2 basis)
C    0.187536  -0.006502  0.090927
C    -0.042231  -0.086959  1.578498
O    0.878442  -0.277657  2.374525
H    1.251660  0.163572  -0.097683
H    -0.394904  0.783749  -0.400920
H    -0.077579  -0.967207  -0.374571
N    -1.334468  -0.014594  2.071132
C    -2.478948  0.768572  1.606514
C    -2.938088  0.415909  0.188398
O    -3.260418  1.354289  -0.663633
H    -1.362143  -0.226728  3.068381
H    -3.330628  0.385733  2.203700
C    -2.405831  2.273087  1.978463
C    -1.241969  3.189498  1.539757
C    0.199137  2.966171  2.065372
C    0.357422  2.721861  3.572078
N    1.655626  1.990833  3.852778
H    -2.486287  2.296025  3.075625
H    -3.347303  2.741419  1.649294
H    -1.552457  4.203182  1.833307
H    -1.164331  3.214118  0.440537
H    0.779033  3.858913  1.789743
H    0.672606  2.142266  1.520851
H    0.366611  3.653495  4.149441
H    -0.425631  2.077481  3.987279
H    1.809337  1.864570  4.863308
H    2.474078  2.495198  3.484120
H    1.611933  1.043077  3.404742
N    -3.107054  -0.837949  -0.171229
C    -2.977089  -2.067645  0.629524
H    -3.414371  -0.981056  -1.133938
H    -3.582553  -2.839201  0.143784
H    -3.349646  -1.910160  1.646223
H    -1.933646  -2.401707  0.666778
Ca    -4.100308  2.699871  -1.937673
