35
Energy: -36758.4932572 eV PBE+vdW (tier 2 basis)
C    -0.639519  -1.318915  1.166859
C    -0.121836  -0.290060  2.111770
O    0.926351  -0.549936  2.846891
H    0.114473  -2.090100  0.985142
H    -0.937014  -0.879721  0.206563
H    -1.528686  -1.808584  1.597255
N    -0.706862  0.890027  2.236267
C    -1.970054  1.346359  1.603078
C    -1.808558  2.039688  0.220063
O    -2.846963  2.326950  -0.385149
H    -0.299378  1.527718  2.923684
H    -2.567421  0.446073  1.405896
C    -2.745549  2.276828  2.584751
C    -4.206454  1.875065  2.868515
C    -5.189447  1.894093  1.685955
C    -5.465538  3.295000  1.116525
N    -5.507109  3.256811  -0.396813
H    -2.683066  3.308990  2.213691
H    -2.223463  2.280668  3.553547
H    -4.576506  2.540345  3.662894
H    -4.224046  0.865395  3.306080
H    -6.134309  1.445085  2.018632
H    -4.811540  1.243646  0.882800
H    -4.676991  4.014885  1.363787
H    -6.419162  3.708015  1.462873
H    -6.240308  2.624202  -0.744312
H    -4.580161  2.915843  -0.727778
H    -5.688201  4.185851  -0.800384
N    -0.580880  2.293907  -0.251301
C    -0.352606  2.980253  -1.529360
H    0.225141  2.101335  0.330981
H    0.692467  2.842873  -1.819937
H    -0.564772  4.053063  -1.439657
H    -1.001795  2.550540  -2.298793
Ca    2.475075  -1.384683  3.871415
