35
Energy: -36759.35732 eV PBE+vdW (tier 2 basis)
C    0.583180  -0.297741  0.420921
C    0.032441  -0.419645  1.793922
O    0.791132  -0.653756  2.786558
H    0.999038  -1.287181  0.160965
H    1.431550  0.398131  0.388956
H    -0.162305  -0.039252  -0.335950
N    -1.307062  -0.316649  2.025642
C    -2.103780  0.840665  1.595350
C    -1.456086  2.089950  2.266423
O    -0.737306  1.918620  3.316045
H    -1.558239  -0.634907  2.963699
H    -2.033169  0.940593  0.503800
C    -3.580762  0.567772  1.999958
C    -4.637995  1.561280  1.491966
C    -6.097709  1.209479  1.871237
C    -6.722549  0.101122  1.021196
N    -8.207007  -0.055820  1.326903
H    -3.634642  0.509048  3.099728
H    -3.788490  -0.443644  1.619798
H    -4.567454  1.669269  0.398570
H    -4.444193  2.555870  1.915572
H    -6.693001  2.126952  1.745376
H    -6.155041  0.945555  2.939282
H    -6.276709  -0.885619  1.195529
H    -6.661876  0.324230  -0.051616
H    -8.729161  0.813317  1.137347
H    -8.375784  -0.302826  2.313511
H    -8.633350  -0.797223  0.749998
N    -1.594429  3.304479  1.767232
C    -2.222252  3.762346  0.523208
H    -1.139922  4.036257  2.318676
H    -2.484297  2.920351  -0.120914
H    -1.509515  4.404765  -0.007354
H    -3.121337  4.349190  0.746116
Ca    0.866023  0.857735  4.330592
