35
Energy: -36758.1725054 eV PBE+vdW (tier 2 basis)
C    0.644640  -0.141098  0.075905
C    0.374619  -0.161073  1.548401
O    1.248309  -0.308462  2.410345
H    -0.228127  0.115377  -0.534377
H    0.998426  -1.139588  -0.221575
H    1.461570  0.557004  -0.145036
N    -0.952728  -0.045172  1.941274
C    -1.258290  0.039187  3.367922
C    -2.647812  -0.537705  3.626746
O    -3.291413  -0.279876  4.726413
H    -1.569313  0.433838  1.285754
H    -0.580693  -0.702204  3.836378
C    -0.928672  1.414351  4.021215
C    0.266494  1.349542  5.008373
C    1.257892  2.526457  4.947553
C    2.145808  2.649632  3.709452
N    3.071885  1.461267  3.510880
H    -1.811836  1.829899  4.524685
H    -0.719247  2.110268  3.198035
H    0.807841  0.405113  4.854781
H    -0.110086  1.300435  6.039558
H    1.901703  2.487323  5.840184
H    0.720870  3.483734  5.030086
H    1.576251  2.739215  2.775793
H    2.782258  3.537814  3.796766
H    3.820682  1.689529  2.842976
H    2.539083  0.645235  3.120893
H    3.530920  1.182188  4.388377
N    -3.158902  -1.367042  2.746493
C    -4.423188  -2.095215  2.863550
H    -2.570946  -1.542121  1.927300
H    -4.571443  -2.682759  1.952952
H    -5.263360  -1.394288  2.956246
H    -4.393686  -2.787208  3.716377
Ca    -4.514785  -0.093826  6.335824
