35
Energy: -36758.3265326 eV PBE+vdW (tier 2 basis)
C    1.448966  -0.174987  1.110006
C    0.603079  0.806181  1.869387
O    1.069249  1.598814  2.686258
H    0.948112  -0.634958  0.250667
H    1.753938  -0.974657  1.802187
H    2.366549  0.321797  0.774266
N    -0.760440  0.757907  1.573745
C    -1.898413  1.303509  2.325779
C    -2.906295  1.928752  1.352835
O    -4.162719  2.000892  1.685095
H    -1.003190  -0.057482  1.013601
H    -2.434887  0.460907  2.794921
C    -1.570290  2.298596  3.476859
C    -0.982890  3.662806  3.083469
C    -0.381004  4.454134  4.264820
C    0.798221  3.853536  5.032196
N    2.044825  3.669920  4.188452
H    -0.902615  1.754397  4.154249
H    -2.506386  2.445922  4.037836
H    -1.768968  4.300021  2.649095
H    -0.227589  3.537641  2.296647
H    -1.157693  4.633169  5.024391
H    -0.101678  5.456400  3.904876
H    0.580314  2.865229  5.454204
H    1.071303  4.516268  5.861765
H    2.846143  3.402082  4.776161
H    2.307118  4.535539  3.698774
H    1.890370  2.906013  3.489533
N    -2.480234  2.392644  0.206509
C    -3.267405  3.053930  -0.837020
H    -1.481162  2.238330  0.040785
H    -2.579094  3.538552  -1.535279
H    -3.917355  3.819386  -0.397865
H    -3.863262  2.317766  -1.393162
Ca    -6.151795  1.896207  2.081816
