35
Energy: -36758.455953 eV PBE+vdW (tier 2 basis)
C    2.002756  -0.057337  1.352299
C    0.729330  -0.765010  1.699042
O    0.664218  -2.005984  1.796911
H    2.715915  -0.190952  2.178323
H    1.881750  1.013180  1.155271
H    2.454121  -0.543911  0.478202
N    -0.378597  0.009701  1.921891
C    -1.743239  -0.492246  2.130356
C    -1.884883  -1.255528  3.462504
O    -2.793155  -0.887042  4.333091
H    -0.262368  1.017267  1.884544
H    -2.369666  0.403316  2.232134
C    -2.314667  -1.338418  0.952648
C    -2.274091  -0.613791  -0.416632
C    -1.136204  -1.053153  -1.365078
C    -1.392994  -2.304358  -2.206846
N    -2.232838  -2.013151  -3.448715
H    -3.354600  -1.578496  1.216712
H    -1.781524  -2.297101  0.901039
H    -2.190730  0.471252  -0.261714
H    -3.252006  -0.745356  -0.905451
H    -0.224989  -1.264749  -0.789708
H    -0.861337  -0.221083  -2.032469
H    -1.925645  -3.091535  -1.658323
H    -0.456266  -2.728463  -2.586706
H    -2.399388  -2.871119  -3.996108
H    -1.756672  -1.344392  -4.072444
H    -3.153787  -1.614735  -3.218396
N    -1.099615  -2.269530  3.682688
C    -1.084524  -3.102813  4.880411
H    -0.356996  -2.395360  2.911376
H    -0.354471  -3.904065  4.735093
H    -2.069161  -3.559386  5.049722
H    -0.779253  -2.518407  5.760256
Ca    -3.985863  -0.448658  5.894445
