35
Energy: -36758.4272502 eV PBE+vdW (tier 2 basis)
C    0.151268  -0.492346  0.402484
C    -0.290016  -0.565359  1.819089
O    0.486793  -1.178007  2.680324
H    -0.452179  0.180402  -0.210389
H    0.106129  -1.500513  -0.038182
H    1.199452  -0.167470  0.366873
N    -1.427198  -0.074458  2.271805
C    -2.558483  0.678643  1.637067
C    -2.834039  0.334496  0.141274
O    -2.599787  1.150352  -0.765432
H    -1.563976  -0.207688  3.276193
H    -3.432123  0.314570  2.199539
C    -2.469534  2.193157  1.893398
C    -1.267023  2.944243  1.290494
C    -1.565708  4.410136  0.914190
C    -2.683501  4.652365  -0.098634
N    -2.474379  3.893494  -1.396484
H    -2.519402  2.369650  2.977790
H    -3.419639  2.587231  1.504215
H    -0.888395  2.414978  0.406008
H    -0.438133  2.957288  2.011824
H    -0.637479  4.876429  0.550840
H    -1.845183  4.982320  1.811664
H    -2.745523  5.717034  -0.352257
H    -3.670042  4.344278  0.268445
H    -2.490070  2.857436  -1.222966
H    -1.579538  4.142799  -1.837967
H    -3.215689  4.115462  -2.074553
N    -3.364417  -0.874564  -0.085382
C    -3.766254  -1.337171  -1.418409
H    -3.651897  -1.440270  0.708002
H    -3.811503  -2.430042  -1.414550
H    -3.036069  -0.998785  -2.159560
H    -4.753874  -0.938531  -1.684938
Ca    1.879503  -2.218791  3.727756
