35
Energy: -36759.756229 eV PBE+vdW (tier 2 basis)
C    0.215350  -0.855274  0.006059
C    -0.201231  -0.521510  1.394430
O    0.582169  0.096475  2.184666
H    -0.541902  -1.411941  -0.555475
H    1.148205  -1.435754  0.032714
H    0.443927  0.079142  -0.528238
N    -1.428687  -0.871586  1.821726
C    -1.955929  -0.459198  3.130213
C    -1.162414  -1.144914  4.279140
O    -0.339346  -0.393930  4.910905
H    -2.041105  -1.341944  1.160010
H    -1.643036  0.587159  3.255798
C    -3.505826  -0.369296  3.191631
C    -4.401857  -1.587426  2.901720
C    -5.875803  -1.233846  2.582287
C    -6.693469  -0.757618  3.784493
N    -8.164110  -0.599608  3.418426
H    -3.756444  0.429627  2.475201
H    -3.734708  0.044730  4.184932
H    -4.378766  -2.298594  3.738197
H    -4.037287  -2.140588  2.022766
H    -6.343638  -2.142982  2.173610
H    -5.909830  -0.477105  1.782184
H    -6.374885  0.220370  4.165226
H    -6.667668  -1.478186  4.611902
H    -8.303148  0.089095  2.663691
H    -8.721365  -0.282021  4.226437
H    -8.575617  -1.489379  3.097430
N    -1.237778  -2.422902  4.606973
C    -1.935609  -3.546426  3.981430
H    -0.648894  -2.669119  5.406272
H    -1.233296  -4.384785  3.903284
H    -2.276230  -3.287429  2.978130
H    -2.783635  -3.865592  4.599287
Ca    1.332576  0.689858  4.093004
