35
Energy: -36758.2027294 eV PBE+vdW (tier 2 basis)
C    1.062641  -0.645891  1.933670
C    -0.159259  -1.357248  2.387626
O    -0.047618  -2.639919  2.644418
H    0.908122  0.419266  1.772198
H    1.407448  -1.083561  0.988188
H    1.849761  -0.790649  2.689492
N    -1.325185  -0.794874  2.660330
C    -1.909282  0.473065  2.173934
C    -2.013623  0.330336  0.620069
O    -1.126686  -0.279413  0.024139
H    -2.015980  -1.444406  3.035793
H    -2.911909  0.466848  2.615091
C    -1.194524  1.783416  2.656323
C    -0.443288  2.652846  1.614404
C    -1.243348  3.838116  1.031178
C    -1.379591  5.082206  1.911367
N    -0.145079  5.979581  1.855663
H    -0.510202  1.495635  3.464637
H    -1.965608  2.388904  3.152578
H    -0.107749  2.036159  0.769353
H    0.484524  3.020177  2.082063
H    -2.266156  3.517816  0.791840
H    -0.815783  4.130094  0.058790
H    -1.534812  4.849545  2.972664
H    -2.208944  5.716905  1.578123
H    -0.260017  6.808923  2.457808
H    0.024194  6.321674  0.897936
H    0.709079  5.495069  2.164192
N    -3.060312  0.924942  0.014938
C    -4.274984  1.474033  0.621031
H    -3.071591  0.788823  -0.995275
H    -4.782737  2.093733  -0.124751
H    -4.046369  2.115484  1.480992
H    -4.971181  0.684067  0.935138
Ca    0.442739  -4.590577  2.730505
