35
Energy: -36758.6870528 eV PBE+vdW (tier 2 basis)
C    -0.589775  0.428798  -0.231275
C    -0.159987  0.455181  1.194382
O    0.944888  1.102974  1.493496
H    -1.484967  -0.173897  -0.402934
H    0.225266  0.030910  -0.852055
H    -0.786522  1.455118  -0.574788
N    -0.820775  -0.122701  2.162007
C    -2.176244  -0.702678  2.167076
C    -2.616074  -0.428463  3.638454
O    -1.712945  -0.226985  4.467152
H    -0.539013  -0.019766  3.170924
H    -2.802125  -0.144729  1.459826
C    -2.236285  -2.209186  1.806941
C    -1.738148  -3.205667  2.869985
C    -1.830450  -4.651362  2.346122
C    -1.297941  -5.750899  3.262855
N    -2.248603  -6.107369  4.403878
H    -1.679175  -2.358074  0.869037
H    -3.286150  -2.429780  1.563892
H    -2.332888  -3.078856  3.789665
H    -0.696002  -2.983322  3.147355
H    -1.238205  -4.738413  1.422287
H    -2.863017  -4.890746  2.040802
H    -0.345592  -5.482423  3.737139
H    -1.153287  -6.685539  2.708292
H    -1.860652  -6.868397  4.981702
H    -3.158230  -6.433954  4.045943
H    -2.426745  -5.311072  5.030658
N    -3.917530  -0.450084  3.947196
C    -5.076341  -0.619991  3.070798
H    -4.104967  -0.273900  4.933792
H    -5.900431  -0.011519  3.457399
H    -5.407894  -1.666332  3.034025
H    -4.861598  -0.273569  2.054311
Ca    2.515050  2.328626  1.741212
