35
Energy: -36758.5213774 eV PBE+vdW (tier 2 basis)
C    -0.299408  -1.254609  -0.557271
C    0.071796  -0.295257  0.513217
O    1.076258  0.522861  0.291539
H    -0.955775  -2.049840  -0.193717
H    0.612209  -1.723123  -0.951367
H    -0.771004  -0.701149  -1.384725
N    -0.541098  -0.182501  1.678075
C    -1.689229  -0.922739  2.295597
C    -1.265028  -2.396285  2.570844
O    -1.186356  -3.183744  1.629964
H    -0.145709  0.538070  2.282521
H    -1.842164  -0.387346  3.242968
C    -2.986275  -0.822292  1.468034
C    -4.271874  -1.234826  2.223287
C    -4.544496  -2.748483  2.299621
C    -5.832193  -3.147769  3.018202
N    -7.097741  -2.853743  2.214621
H    -2.889083  -1.426706  0.556521
H    -3.096211  0.225553  1.155836
H    -5.098589  -0.729879  1.698494
H    -4.264066  -0.806395  3.238748
H    -3.744510  -3.257699  2.854965
H    -4.519241  -3.199646  1.294367
H    -5.959041  -2.626907  3.975904
H    -5.856620  -4.227053  3.208622
H    -7.937642  -3.162910  2.726796
H    -7.093926  -3.348930  1.311076
H    -7.215419  -1.850101  2.019968
N    -1.034601  -2.700378  3.864480
C    -0.629157  -4.033793  4.312610
H    -1.109980  -1.970725  4.565981
H    0.411829  -4.023142  4.659191
H    -0.719653  -4.725549  3.470642
H    -1.272501  -4.363919  5.136165
Ca    2.679155  1.497763  -0.449575
