35
Energy: -36758.3869369 eV PBE+vdW (tier 2 basis)
C    0.136640  0.346827  0.913977
C    -0.206524  0.033570  2.323366
O    0.769344  -0.046636  3.199421
H    -0.711410  0.223776  0.233014
H    0.938525  -0.327837  0.582548
H    0.529077  1.374212  0.860952
N    -1.433204  -0.167283  2.770823
C    -2.764329  -0.131661  2.083482
C    -2.825134  -1.249628  0.994936
O    -2.423423  -0.998203  -0.140190
H    -1.484525  -0.372352  3.769119
H    -3.465125  -0.358354  2.896599
C    -3.102400  1.258105  1.510669
C    -4.602933  1.506743  1.234035
C    -5.198768  0.787466  0.009814
C    -6.659561  1.117784  -0.293078
N    -6.857399  2.504359  -0.902226
H    -2.527964  1.419534  0.588834
H    -2.772106  2.007831  2.243365
H    -4.697998  2.598296  1.114148
H    -5.192836  1.258593  2.131295
H    -5.186374  -0.301757  0.158477
H    -4.577689  0.953581  -0.885169
H    -7.292570  1.091810  0.603206
H    -7.075981  0.418791  -1.027730
H    -7.852570  2.674773  -1.111615
H    -6.339290  2.603728  -1.787334
H    -6.547787  3.257605  -0.273094
N    -3.334006  -2.445333  1.360972
C    -3.826052  -2.879206  2.668532
H    -3.340117  -3.131184  0.607546
H    -4.140611  -3.923448  2.582711
H    -4.699676  -2.300395  2.996851
H    -3.044518  -2.838242  3.439945
Ca    2.555478  -0.103825  4.138477
