35
Energy: -36759.360515 eV PBE+vdW (tier 2 basis)
C    -1.858252  1.706441  -1.694047
C    -1.247122  0.920516  -0.592273
O    -0.036426  0.536605  -0.655545
H    -1.789626  1.083824  -2.602477
H    -1.274892  2.611486  -1.911923
H    -2.910303  1.956384  -1.531976
N    -1.975785  0.556241  0.501618
C    -2.696265  1.534876  1.319214
C    -1.610340  2.371900  2.072706
O    -0.377760  2.029607  1.974014
H    -1.486479  -0.142567  1.062512
H    -3.207977  2.233409  0.639856
C    -3.788908  0.867978  2.193982
C    -3.318055  -0.202984  3.192995
C    -4.416075  -0.717331  4.155897
C    -5.475391  -1.603575  3.496822
N    -6.429698  -2.183855  4.533188
H    -4.513811  0.448427  1.481602
H    -4.321176  1.661225  2.735962
H    -2.518020  0.206464  3.828930
H    -2.884318  -1.067791  2.665173
H    -4.900569  0.138956  4.651853
H    -3.912529  -1.293358  4.947582
H    -5.030398  -2.465965  2.984283
H    -6.107450  -1.063676  2.781488
H    -7.142134  -2.785770  4.092106
H    -6.932846  -1.447753  5.051021
H    -5.934031  -2.761181  5.229463
N    -1.934476  3.447739  2.764303
C    -3.234377  4.111521  2.923566
H    -1.145405  3.908252  3.222649
H    -3.062361  5.193216  2.938623
H    -3.703508  3.821775  3.872234
H    -3.901105  3.882353  2.087329
Ca    1.321588  1.281173  0.849390
