35
Energy: -36759.4239455 eV PBE+vdW (tier 2 basis)
C    0.084752  0.205604  0.029562
C    -0.124300  -0.064441  1.474565
O    0.840125  -0.432575  2.218275
H    0.449932  -0.735466  -0.416682
H    0.886577  0.939100  -0.130307
H    -0.822574  0.502519  -0.503635
N    -1.361574  0.036727  2.038137
C    -2.166166  1.256213  1.937734
C    -1.480704  2.317968  2.858132
O    -0.473692  1.969012  3.573402
H    -1.385711  -0.378649  2.970315
H    -2.066196  1.639877  0.910497
C    -3.674718  0.983995  2.158046
C    -4.122931  0.365163  3.494281
C    -5.647598  0.107713  3.478392
C    -6.147457  -0.554212  4.762452
N    -7.646214  -0.821640  4.708184
H    -3.970998  0.320787  1.332124
H    -4.219114  1.923115  1.993963
H    -3.868051  1.028461  4.336346
H    -3.608660  -0.593497  3.669932
H    -5.891550  -0.533233  2.615876
H    -6.175684  1.062497  3.325093
H    -5.985656  0.073622  5.647534
H    -5.675954  -1.529240  4.938209
H    -7.977312  -1.269695  5.576515
H    -7.897548  -1.448631  3.929041
H    -8.189550  0.046502  4.589231
N    -1.882498  3.574819  2.869407
C    -2.902906  4.247096  2.054659
H    -1.364755  4.176791  3.512807
H    -3.854295  4.310974  2.597322
H    -3.047534  3.734699  1.099053
H    -2.552964  5.264205  1.848347
Ca    1.370117  0.859528  3.862894
