35
Energy: -36758.2435454 eV PBE+vdW (tier 2 basis)
C    0.819813  -0.669213  0.088931
C    0.474193  -0.657205  1.545604
O    1.208144  -1.101981  2.434214
H    1.029193  -1.704921  -0.212745
H    1.746922  -0.102333  -0.072418
H    0.036083  -0.260616  -0.557966
N    -0.766810  -0.130187  1.888276
C    -1.090060  0.068077  3.297715
C    -2.573936  -0.204088  3.526940
O    -3.194017  0.271491  4.566957
H    -1.189001  0.497312  1.204866
H    -0.572445  -0.768899  3.806455
C    -0.546323  1.390822  3.908591
C    0.179768  1.246761  5.261842
C    1.412683  0.320151  5.293506
C    2.610625  0.822176  4.475552
N    3.424046  -0.342652  3.949507
H    -1.352666  2.132053  4.004845
H    0.135689  1.819325  3.162390
H    -0.521801  0.868876  6.023827
H    0.465150  2.254165  5.599564
H    1.130588  -0.679974  4.933033
H    1.720194  0.190832  6.340178
H    3.281216  1.455387  5.067398
H    2.310257  1.387243  3.585693
H    2.830530  -0.877951  3.274424
H    3.727055  -0.975143  4.702964
H    4.273493  -0.024693  3.462524
N    -3.210917  -0.972824  2.675329
C    -4.603958  -1.413201  2.764828
H    -2.643051  -1.304685  1.890937
H    -4.812246  -2.078631  1.922191
H    -5.285036  -0.554268  2.697293
H    -4.772751  -1.973138  3.694307
Ca    -4.402478  0.937286  6.053274
