35
Energy: -36757.9871341 eV PBE+vdW (tier 2 basis)
C    0.262408  0.492571  0.496197
C    -0.076595  0.160498  1.904146
O    0.922748  0.018173  2.748437
H    -0.605561  0.581848  -0.155422
H    0.926798  -0.287844  0.097511
H    0.820492  1.439711  0.470296
N    -1.291992  -0.011425  2.383550
C    -2.698187  0.068411  1.875948
C    -3.432709  -1.313503  1.939794
O    -4.539895  -1.309452  2.464359
H    -1.291212  -0.251069  3.377927
H    -3.198394  0.617825  2.684826
C    -2.978458  0.847547  0.576402
C    -4.485585  1.202746  0.430059
C    -5.327055  0.168189  -0.343421
C    -6.833009  0.239709  -0.110508
N    -7.490049  1.485042  -0.703987
H    -2.647258  0.295829  -0.314657
H    -2.409512  1.787058  0.611552
H    -4.532106  2.176927  -0.078286
H    -4.914917  1.353368  1.432477
H    -5.062769  -0.851068  -0.030698
H    -5.105315  0.215930  -1.421756
H    -7.081832  0.242874  0.958318
H    -7.343782  -0.608948  -0.580250
H    -8.508707  1.472174  -0.544882
H    -7.130441  2.354776  -0.287763
H    -7.342952  1.542128  -1.722243
N    -2.874197  -2.422742  1.395000
C    -1.660721  -2.580099  0.604522
H    -3.451982  -3.252066  1.524288
H    -1.737284  -3.514591  0.039727
H    -0.757305  -2.647914  1.229467
H    -1.544000  -1.773620  -0.129251
Ca    2.648664  -0.028146  3.798457
