35
Energy: -36758.436237 eV PBE+vdW (tier 2 basis)
C    0.009128  -1.306187  1.065822
C    0.077368  0.141300  1.407604
O    1.241857  0.648471  1.728631
H    -0.982870  -1.638833  0.751771
H    0.304601  -1.897193  1.945952
H    0.726120  -1.532708  0.264290
N    -0.975643  0.927176  1.406219
C    -2.353811  0.618140  0.973947
C    -2.949927  1.974799  0.535710
O    -2.607590  3.009148  1.150895
H    -0.867662  1.920860  1.656890
H    -2.292829  -0.048398  0.105360
C    -3.238543  -0.072496  2.056879
C    -3.144921  0.365644  3.531682
C    -3.381315  1.838217  3.914585
C    -4.722475  2.432387  3.462017
N    -4.542361  3.891875  3.089744
H    -3.010401  -1.147565  2.031785
H    -4.274961  -0.002833  1.694275
H    -2.159160  0.085314  3.931926
H    -3.857024  -0.271423  4.076709
H    -2.569611  2.453663  3.502479
H    -3.303232  1.917753  5.007430
H    -5.493616  2.381084  4.238594
H    -5.123033  1.952029  2.561536
H    -3.848114  3.942278  2.309888
H    -5.424959  4.325870  2.785915
H    -4.190442  4.446608  3.882160
N    -3.840260  1.971772  -0.460595
C    -4.276496  0.848657  -1.302307
H    -4.176275  2.897535  -0.723247
H    -5.091019  1.203006  -1.940424
H    -4.663819  0.017595  -0.701626
H    -3.466516  0.497107  -1.954895
Ca    3.216662  1.008146  2.004130
