35
Energy: -36758.5637383 eV PBE+vdW (tier 2 basis)
C    0.564343  0.369192  1.119031
C    -0.003017  -0.417624  2.247895
O    0.845508  -1.066617  3.007804
H    -0.197042  0.761817  0.445606
H    1.257342  -0.247816  0.538104
H    1.124750  1.215392  1.549628
N    -1.250775  -0.287760  2.715239
C    -2.463043  -0.299212  1.876024
C    -2.161557  -1.301368  0.704795
O    -1.032865  -1.805762  0.617758
H    -1.382170  -0.752270  3.612454
H    -3.207008  -0.798410  2.515359
C    -3.126728  1.056646  1.526821
C    -2.529451  1.983171  0.456062
C    -3.503718  3.142366  0.148689
C    -2.946775  4.115007  -0.888477
N    -3.928985  5.243425  -1.179901
H    -3.233308  1.605544  2.474235
H    -4.159369  0.807935  1.233980
H    -2.327286  1.421917  -0.470134
H    -1.573260  2.402719  0.801824
H    -3.726865  3.685233  1.081514
H    -4.457750  2.725665  -0.213090
H    -2.751052  3.630381  -1.853180
H    -2.022966  4.601275  -0.551204
H    -3.549817  5.900566  -1.878356
H    -4.146244  5.790021  -0.333331
H    -4.822408  4.887297  -1.550689
N    -3.175323  -1.576634  -0.121862
C    -3.082954  -2.569138  -1.198307
H    -4.094781  -1.201200  0.087328
H    -3.288669  -3.578337  -0.818882
H    -2.076036  -2.546251  -1.624724
H    -3.815152  -2.320820  -1.972208
Ca    2.284326  -2.277972  3.706563
