35
Energy: -36758.2651878 eV PBE+vdW (tier 2 basis)
C    -3.476251  0.775562  0.724681
C    -2.699990  0.042947  1.780745
O    -2.180528  -1.054663  1.585054
H    -2.942613  0.706144  -0.230347
H    -3.673025  1.828474  0.955946
H    -4.440822  0.263168  0.588492
N    -2.602226  0.706854  3.005220
C    -2.233027  0.162695  4.318842
C    -1.446646  1.216729  5.105224
O    -1.471593  1.199945  6.406339
H    -3.240064  1.499349  3.060563
H    -3.153607  -0.010154  4.903104
C    -1.460121  -1.188409  4.315270
C    -0.066422  -1.203421  3.665933
C    0.443531  -2.640286  3.359370
C    0.709575  -2.973618  1.891318
N    -0.552864  -3.210538  1.081840
H    -2.124081  -1.912244  3.829977
H    -1.385843  -1.509013  5.366210
H    0.659462  -0.711042  4.329229
H    -0.076838  -0.614306  2.739625
H    -0.231088  -3.395959  3.792865
H    1.403703  -2.801594  3.866948
H    1.306143  -3.889658  1.806723
H    1.255464  -2.169367  1.382385
H    -1.054200  -4.045709  1.412230
H    -1.210826  -2.396100  1.141029
H    -0.326352  -3.373181  0.091228
N    -0.745604  2.107980  4.452450
C    0.098899  3.164642  5.015488
H    -0.832076  2.042846  3.433868
H    0.717674  3.577275  4.213678
H    0.756884  2.755543  5.790802
H    -0.520528  3.973261  5.425997
Ca    -1.693298  1.313088  8.421700
