35
Energy: -36758.2973092 eV PBE+vdW (tier 2 basis)
C    0.395162  -1.111741  0.529542
C    -0.000503  -0.026694  1.475021
O    0.880868  0.871745  1.819032
H    1.239238  -1.680515  0.946830
H    0.724017  -0.674557  -0.424871
H    -0.418468  -1.814365  0.318901
N    -1.231648  -0.000088  1.947833
C    -1.872292  0.962855  2.867984
C    -2.682974  0.208049  3.976923
O    -3.880379  0.473004  4.144374
H    -1.838684  -0.738720  1.590875
H    -1.062369  1.519788  3.359773
C    -2.785108  1.947886  2.113044
C    -3.857643  1.313116  1.197901
C    -5.148503  2.155890  1.049638
C    -6.350204  1.692858  1.869279
N    -6.164940  1.849613  3.368163
H    -2.153647  2.627833  1.523577
H    -3.244944  2.571767  2.891043
H    -4.135718  0.311294  1.559715
H    -3.427939  1.164439  0.198270
H    -5.489359  2.114106  0.006006
H    -4.944166  3.222053  1.237430
H    -6.564701  0.629829  1.700999
H    -7.246724  2.264438  1.601446
H    -6.970837  1.461868  3.877324
H    -6.094474  2.840404  3.633424
H    -5.299730  1.352456  3.700351
N    -2.053100  -0.700218  4.741124
C    -0.639717  -1.055218  4.801003
H    -2.665183  -1.140425  5.428605
H    -0.413848  -1.403242  5.814194
H    -0.006183  -0.180418  4.607042
H    -0.387807  -1.864882  4.101655
Ca    2.655328  1.881707  1.799469
