35
Energy: -36759.4709884 eV PBE+vdW (tier 2 basis)
C    -1.360284  0.384198  -1.781829
C    -1.109840  0.990705  -0.448910
O    -0.964893  2.247024  -0.319689
H    -1.426516  -0.706933  -1.767889
H    -0.513735  0.672226  -2.427562
H    -2.252778  0.816486  -2.255144
N    -0.998351  0.215098  0.666710
C    -2.031668  -0.747640  1.059465
C    -3.306355  0.079593  1.423218
O    -3.220861  1.356878  1.499825
H    -0.635396  0.743220  1.462786
H    -2.282872  -1.365563  0.183721
C    -1.521414  -1.671073  2.192308
C    -0.432701  -2.642282  1.693264
C    -0.052973  -3.799396  2.645360
C    0.851043  -3.406227  3.813732
N    1.335919  -4.640523  4.565482
H    -2.372751  -2.242165  2.586847
H    -1.164853  -1.046279  3.027357
H    0.472122  -2.085742  1.406191
H    -0.793661  -3.115815  0.767999
H    0.471841  -4.550408  2.034237
H    -0.964556  -4.289567  3.023108
H    1.757712  -2.888853  3.475146
H    0.349141  -2.779004  4.560590
H    1.950577  -4.387069  5.353953
H    1.874013  -5.271120  3.951544
H    0.553661  -5.189272  4.952648
N    -4.469339  -0.511647  1.615985
C    -4.837768  -1.926152  1.489473
H    -5.230518  0.121412  1.870946
H    -4.114769  -2.469770  0.875153
H    -5.817192  -1.982430  1.001482
H    -4.915127  -2.391630  2.480369
Ca    -2.453203  3.279312  0.861140
