35
Energy: -36758.4833791 eV PBE+vdW (tier 2 basis)
C    0.305449  -0.042756  0.074784
C    0.183736  -0.310055  1.541879
O    1.145242  -0.664214  2.245494
H    -0.622164  0.303440  -0.393685
H    0.648118  -0.956891  -0.428429
H    1.092860  0.707108  -0.080143
N    -1.056970  -0.157361  2.120071
C    -1.221343  -0.214562  3.570655
C    -1.207304  -1.694318  4.030177
O    -2.260092  -2.316014  4.493975
H    -1.857750  0.062842  1.535450
H    -0.291696  0.199232  3.995810
C    -2.418767  0.606305  4.062013
C    -2.367818  2.114432  3.732433
C    -1.296518  2.940280  4.475652
C    -1.472852  4.426699  4.158791
N    -0.461690  5.304084  4.885451
H    -2.503407  0.473062  5.151296
H    -3.346380  0.201303  3.628159
H    -3.359545  2.522860  3.975752
H    -2.247264  2.257141  2.648009
H    -0.283404  2.619335  4.184452
H    -1.390828  2.778687  5.561840
H    -2.460754  4.794947  4.462752
H    -1.342207  4.639853  3.090445
H    -0.604297  6.299912  4.656466
H    0.508679  5.070216  4.629419
H    -0.540480  5.214880  5.909143
N    -0.060448  -2.303807  3.902584
C    0.207364  -3.702582  4.212140
H    0.665510  -1.708798  3.386996
H    -0.360456  -4.370108  3.546627
H    -0.023485  -3.918827  5.265115
H    1.272433  -3.896861  4.055080
Ca    -3.579393  -3.682165  5.166084
