35
Energy: -36760.0017222 eV PBE+vdW (tier 2 basis)
C    -0.362119  0.012023  0.312563
C    -0.062450  -0.028069  1.774308
O    1.128194  -0.232111  2.175565
H    0.228033  0.810708  -0.158991
H    -1.420690  0.169147  0.081267
H    -0.027909  -0.931455  -0.142553
N    -1.076230  0.162323  2.632651
C    -1.127884  0.072530  4.111952
C    -0.201376  1.078198  4.828361
O    1.067270  1.015824  4.732638
H    -1.974385  0.344465  2.191028
H    -2.154796  0.386758  4.344806
C    -0.980596  -1.370804  4.665102
C    -2.158211  -2.269384  4.225786
C    -2.466148  -3.503660  5.104699
C    -1.529004  -4.695713  4.915407
N    -2.054963  -5.919457  5.657319
H    -0.965396  -1.285470  5.762971
H    -0.010607  -1.793188  4.366269
H    -2.029951  -2.583758  3.179083
H    -3.077633  -1.664674  4.242547
H    -3.489324  -3.821696  4.849383
H    -2.489927  -3.208105  6.165698
H    -0.518441  -4.520330  5.304010
H    -1.452390  -4.996093  3.862682
H    -2.142741  -5.748851  6.670413
H    -1.433386  -6.733622  5.537306
H    -2.987894  -6.197251  5.315520
N    -0.786376  1.981828  5.594233
C    -0.098120  2.986076  6.412983
H    -1.804011  2.006941  5.610848
H    -0.647349  3.107927  7.352441
H    -0.077894  3.948936  5.885696
H    0.921681  2.654779  6.621943
Ca    2.664019  0.504227  3.427065
