35
Energy: -36760.1312047 eV PBE+vdW (tier 2 basis)
C    -1.818251  -3.683481  1.367061
C    -1.005224  -2.460665  1.624043
O    -0.004832  -2.182729  0.890328
H    -2.215986  -3.631176  0.342813
H    -2.647330  -3.816259  2.069745
H    -1.170767  -4.570574  1.404136
N    -1.353572  -1.652776  2.640206
C    -0.736946  -0.356380  2.981978
C    0.653805  -0.589261  3.635220
O    1.635226  -0.873063  2.873208
H    -2.128345  -1.963196  3.222169
H    -0.510720  0.151682  2.031388
C    -1.705904  0.523361  3.795824
C    -2.920808  1.079467  3.018687
C    -3.675806  2.125273  3.867445
C    -4.736405  2.970883  3.158666
N    -6.098456  2.293465  3.025685
H    -1.124268  1.380250  4.168157
H    -2.058791  -0.025110  4.686876
H    -3.587867  0.258068  2.711410
H    -2.564617  1.557696  2.092685
H    -2.946135  2.858680  4.243712
H    -4.104564  1.664424  4.772621
H    -4.439265  3.257736  2.142129
H    -4.932480  3.888859  3.725136
H    -6.775345  2.926474  2.571507
H    -6.490156  2.048779  3.947354
H    -6.065408  1.433954  2.461440
N    0.796170  -0.494983  4.941733
C    2.047078  -0.690508  5.685533
H    -0.027811  -0.267591  5.493778
H    2.042574  -1.675556  6.169916
H    2.124483  0.085507  6.454532
H    2.894612  -0.617061  5.000898
Ca    2.065112  -1.694188  0.945980
