35
Energy: -36758.5593823 eV PBE+vdW (tier 2 basis)
C    -0.256815  0.064987  -0.730770
C    0.076907  0.969833  0.403036
O    1.295359  1.458084  0.469993
H    0.456297  -0.770925  -0.753513
H    -0.148055  0.609924  -1.679946
H    -1.269978  -0.340874  -0.675071
N    -0.774328  1.311452  1.333969
C    -2.218870  1.040957  1.477388
C    -2.677745  2.317868  2.248459
O    -1.854219  2.801263  3.038789
H    -0.508582  1.970228  2.100576
H    -2.677016  0.956940  0.485234
C    -2.439525  -0.259258  2.298783
C    -3.912407  -0.664827  2.538855
C    -4.573584  -0.098511  3.816095
C    -4.361697  -0.903587  5.098442
N    -5.282500  -2.119288  5.185226
H    -1.901472  -0.152748  3.253410
H    -1.935823  -1.067887  1.750334
H    -3.948471  -1.765821  2.550561
H    -4.521671  -0.388464  1.667995
H    -5.654702  0.036413  3.653456
H    -4.197073  0.911349  4.029185
H    -4.589359  -0.305656  5.988581
H    -3.339707  -1.290579  5.198519
H    -5.115148  -2.653281  6.051305
H    -5.153062  -2.768753  4.396752
H    -6.274017  -1.837034  5.190761
N    -3.902137  2.830629  2.055261
C    -4.952411  2.461095  1.109210
H    -4.076805  3.658352  2.626097
H    -5.789319  1.963213  1.616790
H    -4.568564  1.801773  0.325369
H    -5.335136  3.367028  0.625493
Ca    3.155877  2.202519  0.337975
