35
Energy: -36758.2831408 eV PBE+vdW (tier 2 basis)
C    -0.720849  -0.131771  0.658282
C    -1.158244  -0.571391  2.009848
O    -0.717383  -1.733907  2.426659
H    0.363438  0.063680  0.701749
H    -1.229494  0.765689  0.309602
H    -0.899223  -0.931021  -0.069060
N    -1.769114  0.191514  2.916198
C    -2.846857  1.171449  2.678024
C    -3.768677  0.559256  1.562979
O    -3.438711  -0.491513  1.006309
H    -1.824841  -0.253224  3.831276
H    -3.432723  1.122206  3.608462
C    -2.439736  2.665442  2.571754
C    -1.764601  3.212798  1.304898
C    -1.340259  4.692805  1.461600
C    -2.422189  5.769479  1.320705
N    -2.538184  6.300321  -0.106772
H    -1.790966  2.867933  3.437511
H    -3.359834  3.235823  2.776994
H    -2.414023  3.071774  0.424565
H    -0.843529  2.651184  1.102690
H    -0.518517  4.914678  0.762430
H    -0.892154  4.827588  2.456810
H    -2.192391  6.649705  1.931914
H    -3.425614  5.422144  1.595731
H    -3.274430  7.018942  -0.180202
H    -2.761051  5.560833  -0.787022
H    -1.656681  6.740879  -0.410206
N    -4.904717  1.226278  1.309306
C    -5.929353  0.714394  0.391656
H    -5.167522  1.995632  1.916577
H    -6.552450  1.548336  0.055572
H    -6.564041  -0.031757  0.887008
H    -5.442408  0.249427  -0.470427
Ca    -0.177247  -3.661988  2.611040
