35
Energy: -36758.4940473 eV PBE+vdW (tier 2 basis)
C    -0.586047  0.078505  -0.043921
C    -0.463244  0.348005  1.423361
O    0.632179  0.286785  2.035489
H    -0.250734  -0.946575  -0.256364
H    0.096273  0.746596  -0.586889
H    -1.601091  0.199558  -0.436489
N    -1.596859  0.677148  2.098096
C    -1.705149  0.819595  3.557597
C    -1.187572  2.195977  4.008482
O    -1.935871  2.985366  4.726085
H    -2.462634  0.720913  1.568407
H    -2.780684  0.798973  3.772772
C    -1.008142  -0.299921  4.396107
C    -1.194814  -1.723089  3.847409
C    -0.191990  -2.753171  4.403021
C    1.299546  -2.490733  4.195286
N    1.694514  -2.320891  2.734691
H    -1.415802  -0.238630  5.416091
H    0.058464  -0.062183  4.476209
H    -1.139722  -1.716666  2.749187
H    -2.206350  -2.086154  4.075749
H    -0.446811  -3.739443  3.985956
H    -0.321327  -2.862917  5.490467
H    1.882979  -3.335377  4.580271
H    1.655971  -1.585680  4.701726
H    2.718957  -2.332821  2.633026
H    1.351676  -1.409400  2.347181
H    1.329421  -3.090159  2.156458
N    0.027259  2.535562  3.662011
C    0.703037  3.796296  3.972036
H    0.527973  1.816162  3.099673
H    1.698748  3.774291  3.521154
H    0.814615  3.918968  5.057262
H    0.150647  4.644926  3.547701
Ca    -3.059517  4.294235  5.794565
