35
Energy: -36758.4471251 eV PBE+vdW (tier 2 basis)
C    0.587645  -0.151053  0.027915
C    0.032397  -0.385517  1.393299
O    0.721270  -1.086418  2.249924
H    0.794506  -1.112520  -0.464507
H    1.538880  0.396798  0.104369
H    -0.085297  0.426124  -0.615603
N    -1.148529  0.120189  1.707070
C    -1.877795  0.086433  2.988519
C    -3.331683  -0.474511  2.837794
O    -4.199050  -0.097590  3.636737
H    -1.579183  0.681292  0.970311
H    -1.335557  -0.610600  3.642634
C    -1.922116  1.475589  3.653634
C    -2.678969  2.567826  2.864339
C    -3.392855  3.616682  3.749044
C    -4.876745  3.381557  4.021805
N    -5.165565  2.172220  4.894215
H    -0.894426  1.803615  3.863451
H    -2.382809  1.303376  4.634818
H    -3.424195  2.115522  2.189426
H    -1.969107  3.098261  2.215482
H    -3.355139  4.592701  3.245445
H    -2.846346  3.765603  4.694067
H    -5.435582  3.221740  3.090890
H    -5.314718  4.247158  4.532901
H    -6.179838  2.051009  5.018928
H    -4.763273  2.285983  5.833392
H    -4.784548  1.286228  4.468721
N    -3.574247  -1.368965  1.872562
C    -4.892294  -1.991457  1.686361
H    -2.817322  -1.682309  1.276222
H    -5.152453  -2.608291  2.554859
H    -5.658189  -1.218499  1.558648
H    -4.858517  -2.616545  0.790316
Ca    2.282408  -2.155694  3.018217
