35
Energy: -36757.4487762 eV PBE+vdW (tier 2 basis)
C    -1.577594  -1.660509  1.146233
C    -0.504671  -0.824275  1.805067
O    0.645875  -1.179732  1.948396
H    -2.451749  -1.792919  1.800021
H    -1.152837  -2.643516  0.923792
H    -1.908353  -1.212750  0.195245
N    -0.873185  0.442381  2.301938
C    -2.068384  1.188758  2.043126
C    -2.147343  1.760710  0.607889
O    -3.312826  1.718549  0.006125
H    -0.088357  0.906400  2.749773
H    -2.919539  0.489239  2.050387
C    -2.389144  2.226395  3.164513
C    -1.242923  3.093788  3.721762
C    -1.750352  3.972055  4.885532
C    -0.724624  4.886152  5.559684
N    0.131162  4.183493  6.611559
H    -2.806666  1.632765  3.990448
H    -3.203363  2.880471  2.816195
H    -0.824175  3.747470  2.940620
H    -0.423916  2.445033  4.073555
H    -2.250477  3.349906  5.646321
H    -2.535697  4.644570  4.509489
H    -1.226784  5.697757  6.099053
H    -0.021840  5.336651  4.847640
H    0.788662  4.847121  7.049881
H    0.694324  3.414714  6.223174
H    -0.448456  3.791741  7.368872
N    -1.120924  2.200297  -0.084154
C    0.297545  2.340115  0.291892
H    -1.331750  2.462147  -1.047993
H    0.767239  2.993662  -0.449127
H    0.797921  1.363585  0.279595
H    0.397800  2.801868  1.276331
Ca    -5.065601  1.404645  -0.958078
