35
Energy: -36758.6147638 eV PBE+vdW (tier 2 basis)
C    -0.157827  -0.916779  0.967165
C    -0.183207  0.083519  2.069302
O    0.925319  0.290306  2.745385
H    0.556004  -0.595036  0.194780
H    -1.134190  -1.067208  0.499746
H    0.198868  -1.880694  1.356297
N    -1.242604  0.771795  2.401131
C    -2.571950  0.876259  1.769822
C    -2.958894  2.341507  2.151156
O    -2.506542  2.760042  3.227222
H    -1.216015  1.491052  3.162540
H    -2.478637  0.728691  0.687631
C    -3.552629  -0.153511  2.391932
C    -4.978505  -0.126818  1.810836
C    -5.856100  -1.301852  2.298185
C    -6.540503  -1.153304  3.658371
N    -7.875746  -0.417781  3.561356
H    -3.566379  0.013024  3.480148
H    -3.124172  -1.155168  2.231328
H    -4.924695  -0.191427  0.714909
H    -5.459137  0.840829  2.029073
H    -5.244331  -2.213996  2.355809
H    -6.617119  -1.534382  1.536499
H    -5.941401  -0.597026  4.389965
H    -6.785084  -2.130678  4.090136
H    -8.321858  -0.327770  4.486687
H    -8.536326  -0.926977  2.955066
H    -7.775444  0.531421  3.176492
N    -3.750033  3.068609  1.350089
C    -4.253210  2.791915  0.006257
H    -3.936377  4.001051  1.720679
H    -5.342980  2.661246  0.011084
H    -3.793613  1.892216  -0.411950
H    -4.009207  3.633005  -0.653254
Ca    2.727642  0.584544  3.578212
