35
Energy: -36758.1024139 eV PBE+vdW (tier 2 basis)
C    -0.047585  0.332974  0.151096
C    0.012889  0.054601  1.624552
O    1.059355  -0.196569  2.216051
H    0.028354  -0.605755  -0.418194
H    0.836496  0.925704  -0.115382
H    -0.947438  0.870994  -0.166328
N    -1.180231  0.126975  2.371785
C    -2.409795  -0.523247  1.922461
C    -3.609179  0.420733  2.096531
O    -4.817884  0.026576  1.818916
H    -0.970783  -0.042418  3.357737
H    -2.328151  -0.685219  0.834693
C    -2.615755  -1.906771  2.603152
C    -1.360733  -2.819732  2.530852
C    -0.505321  -2.802283  3.814703
C    0.843034  -3.518927  3.763819
N    1.881014  -2.787376  2.914508
H    -3.460160  -2.409168  2.112710
H    -2.908492  -1.757433  3.654583
H    -0.764695  -2.549993  1.644240
H    -1.693346  -3.850936  2.351265
H    -1.071658  -3.293891  4.620005
H    -0.326906  -1.777996  4.176326
H    0.768583  -4.540287  3.371582
H    1.263398  -3.578354  4.773727
H    2.824627  -2.900549  3.308957
H    1.676824  -1.760811  2.836763
H    1.921658  -3.153849  1.955901
N    -3.371593  1.638354  2.508512
C    -4.345366  2.708819  2.724554
H    -2.372013  1.829382  2.653420
H    -3.833503  3.554832  3.191801
H    -5.141388  2.371424  3.400229
H    -4.766795  3.045044  1.767559
Ca    -6.758961  -0.366510  1.374046
