35
Energy: -36757.84323 eV PBE+vdW (tier 2 basis)
C    -0.458373  0.522428  -0.057218
C    -0.332920  0.188442  1.397858
O    0.741557  -0.092499  1.947751
H    -0.014630  1.513440  -0.235234
H    -1.491990  0.537684  -0.419828
H    0.130737  -0.193271  -0.643705
N    -1.495640  0.201187  2.149365
C    -1.357453  0.104453  3.605066
C    -2.605022  -0.586046  4.154406
O    -2.764906  -1.847220  3.828856
H    -2.301723  0.682316  1.755821
H    -0.572821  -0.661295  3.738102
C    -0.810248  1.397962  4.258034
C    -0.008038  1.175575  5.552833
C    1.305824  0.372677  5.447389
C    2.572240  1.075369  4.957880
N    2.596120  1.403414  3.465173
H    -1.599677  2.136232  4.426981
H    -0.177680  1.857078  3.487663
H    -0.644301  0.663793  6.292910
H    0.201246  2.159087  5.999269
H    1.173491  -0.559494  4.874777
H    1.566398  0.040258  6.463220
H    3.434496  0.421384  5.130025
H    2.757408  2.016842  5.489343
H    3.560580  1.383745  3.106684
H    2.240213  2.348809  3.280683
H    2.019766  0.738846  2.894086
N    -3.525315  -0.053296  4.927913
C    -3.743746  1.320812  5.424100
H    -4.244634  -0.715645  5.222769
H    -4.737093  1.340325  5.881646
H    -3.726152  2.040874  4.601174
H    -3.003559  1.583161  6.188042
Ca    -3.028404  -3.755150  3.204307
