35
Energy: -36759.3415304 eV PBE+vdW (tier 2 basis)
C    1.631954  1.298043  1.882506
C    0.994273  1.271262  3.224304
O    1.653394  1.579572  4.266285
H    2.496743  0.614995  1.925599
H    2.049759  2.289834  1.660494
H    0.974616  0.971999  1.072158
N    -0.304706  0.888929  3.378053
C    -1.402846  1.505746  2.626925
C    -1.459053  3.005807  3.062717
O    -0.760468  3.388640  4.066680
H    -0.543360  0.733658  4.359807
H    -1.160711  1.472358  1.554063
C    -2.723909  0.743148  2.893608
C    -2.708013  -0.713598  2.385360
C    -3.909607  -1.555581  2.880722
C    -5.174398  -1.572613  2.015925
N    -5.155544  -2.683399  0.967591
H    -3.554618  1.304272  2.444414
H    -2.913524  0.752975  3.979947
H    -1.788123  -1.201314  2.735989
H    -2.643209  -0.720330  1.284439
H    -4.218139  -1.201954  3.875198
H    -3.581681  -2.592093  3.055387
H    -5.338789  -0.638386  1.464743
H    -6.066754  -1.770036  2.621150
H    -6.015637  -2.673233  0.397802
H    -5.101120  -3.612725  1.411757
H    -4.359046  -2.607150  0.319700
N    -2.193064  3.881530  2.403998
C    -3.004691  3.705850  1.195749
H    -2.179609  4.826563  2.793896
H    -2.852074  4.576924  0.548784
H    -4.069263  3.647502  1.456493
H    -2.702790  2.810482  0.645503
Ca    0.996178  3.338813  5.338040
