35
Energy: -36759.9584191 eV PBE+vdW (tier 2 basis)
C    -0.249939  1.432116  0.569370
C    -0.444525  0.065753  1.137588
O    0.303641  -0.892249  0.763621
H    -0.351730  1.375802  -0.524329
H    0.777517  1.767838  0.768684
H    -0.950609  2.178379  0.957872
N    -1.420812  -0.107690  2.044138
C    -1.941385  -1.335965  2.690427
C    -0.889009  -2.057939  3.552595
O    0.138038  -2.602316  3.025646
H    -1.932208  0.739761  2.278020
H    -2.706423  -0.955313  3.377597
C    -2.654679  -2.315561  1.719702
C    -3.874520  -1.667219  1.037303
C    -4.698787  -2.572865  0.091725
C    -5.690504  -3.491196  0.808575
N    -6.626694  -4.173995  -0.181433
H    -2.952264  -3.191559  2.317039
H    -1.943756  -2.678741  0.963326
H    -4.544350  -1.240251  1.801361
H    -3.530595  -0.815600  0.434243
H    -4.028117  -3.165403  -0.550489
H    -5.262037  -1.906271  -0.579626
H    -6.341326  -2.932164  1.492866
H    -5.207942  -4.299675  1.371139
H    -7.174509  -3.486697  -0.721506
H    -7.301725  -4.787803  0.300007
H    -6.115930  -4.756854  -0.861104
N    -1.077248  -2.154512  4.857315
C    -2.152931  -1.603506  5.696916
H    -0.359858  -2.696193  5.343726
H    -1.878289  -1.773651  6.741873
H    -3.105009  -2.113857  5.506729
H    -2.257791  -0.522736  5.548219
Ca    1.546302  -2.464870  1.437867
