35
Energy: -36758.0703245 eV PBE+vdW (tier 2 basis)
C    0.501473  0.124437  -0.000333
C    0.243776  0.366313  1.456113
O    1.010266  0.993472  2.199468
H    0.616873  1.087594  -0.514845
H    -0.280482  -0.456495  -0.500850
H    1.459344  -0.404450  -0.101789
N    -0.912654  -0.160399  1.986467
C    -1.212647  0.059674  3.405719
C    -2.183557  -1.028224  3.855918
O    -3.455947  -0.788888  4.034830
H    -1.592350  -0.583019  1.362112
H    -0.268934  -0.159805  3.933840
C    -1.581619  1.528042  3.761844
C    -0.558274  2.178657  4.724166
C    -0.307506  3.684343  4.526520
C    0.381295  4.130090  3.236196
N    1.759824  3.520806  3.048469
H    -2.589015  1.583840  4.201075
H    -1.643798  2.080646  2.815684
H    0.395258  1.637261  4.640519
H    -0.882175  2.033393  5.763861
H    0.275952  4.052153  5.384803
H    -1.254713  4.243265  4.570857
H    -0.180678  3.865524  2.331886
H    0.510902  5.218533  3.241540
H    2.284168  4.022020  2.318766
H    1.673898  2.520324  2.745846
H    2.321992  3.571819  3.908661
N    -1.734026  -2.244352  4.074126
C    -0.347992  -2.731718  3.958692
H    -2.423481  -2.937073  4.369015
H    -0.374163  -3.824607  3.989887
H    0.252703  -2.369411  4.803428
H    0.095392  -2.410758  3.010993
Ca    -5.428143  -0.476990  4.402725
