35
Energy: -36758.6859326 eV PBE+vdW (tier 2 basis)
C    -0.209361  -0.610338  -0.179144
C    -0.138729  -0.284851  1.271283
O    0.977110  -0.545978  1.914026
H    0.564395  -0.046439  -0.719976
H    -1.181680  -0.386012  -0.624752
H    0.005838  -1.678447  -0.324694
N    -1.123929  0.252095  1.942527
C    -2.455457  0.727863  1.515875
C    -2.725941  1.844843  2.566595
O    -2.294350  1.660259  3.709122
H    -1.022551  0.473946  2.955794
H    -2.399692  1.129923  0.495356
C    -3.471930  -0.440591  1.604954
C    -4.961961  -0.132386  1.333705
C    -5.762946  0.419332  2.537710
C    -7.184372  -0.117607  2.688237
N    -8.143182  0.352001  1.595059
H    -3.372938  -0.898418  2.600809
H    -3.143058  -1.200521  0.881238
H    -5.401936  -1.094488  1.026704
H    -5.058473  0.529802  0.458682
H    -5.773917  1.519203  2.548846
H    -5.264261  0.131921  3.476119
H    -7.633595  0.213938  3.632016
H    -7.216852  -1.214260  2.658992
H    -9.087829  -0.033345  1.746738
H    -7.842477  0.053317  0.656924
H    -8.234081  1.377999  1.583367
N    -3.426215  2.913431  2.157332
C    -3.737590  4.044796  3.036089
H    -3.612083  3.019159  1.164766
H    -3.674777  3.710626  4.075331
H    -4.748363  4.409274  2.823170
H    -3.025129  4.865020  2.881197
Ca    2.782983  -0.942296  2.699793
