35
Energy: -36759.9138554 eV PBE+vdW (tier 2 basis)
C    1.760844  2.845569  1.344988
C    1.072878  1.932273  2.302428
O    1.670668  0.898222  2.741518
H    1.161587  3.713921  1.052612
H    2.025616  2.272014  0.444087
H    2.707151  3.191404  1.783684
N    -0.179103  2.234881  2.680853
C    -1.155170  1.466364  3.492579
C    -0.657805  1.220040  4.935461
O    0.283693  0.399642  5.182859
H    -0.547292  3.095204  2.281359
H    -2.015739  2.145925  3.565785
C    -1.643990  0.178526  2.783308
C    -2.941893  -0.400839  3.379628
C    -3.425804  -1.691858  2.677542
C    -4.258404  -1.535153  1.399553
N    -5.756750  -1.433548  1.676759
H    -0.851229  -0.583653  2.806519
H    -1.786552  0.440083  1.724315
H    -3.730890  0.370396  3.365173
H    -2.784786  -0.640900  4.441498
H    -3.982829  -2.312562  3.396482
H    -2.555249  -2.306872  2.407170
H    -4.150562  -2.409228  0.747061
H    -3.997796  -0.643917  0.815233
H    -5.999308  -0.633716  2.277868
H    -6.109271  -2.284338  2.141291
H    -6.290298  -1.328176  0.799756
N    -1.273402  1.872654  5.905736
C    -0.968604  1.762069  7.336849
H    -1.998641  2.538083  5.646183
H    -1.900723  1.860967  7.902335
H    -0.283941  2.565605  7.639140
H    -0.513860  0.789854  7.542145
Ca    2.167452  -0.271935  4.419245
