35
Energy: -36757.7479854 eV PBE+vdW (tier 2 basis)
C    0.514118  -0.060850  0.207682
C    0.269566  0.257651  1.652598
O    1.181136  0.435426  2.462225
H    -0.395907  -0.141330  -0.397032
H    1.066955  -1.008780  0.145899
H    1.167330  0.710180  -0.221651
N    -1.066880  0.357049  2.040754
C    -1.444894  0.421682  3.455157
C    -2.959284  0.463339  3.581777
O    -3.667584  1.306125  2.889789
H    -1.713501  -0.109228  1.409952
H    -1.100297  -0.488348  3.976590
C    -0.833684  1.674061  4.165519
C    -0.417925  1.527890  5.641574
C    0.403641  0.318232  6.154403
C    1.634856  -0.228878  5.420022
N    2.572244  0.819749  4.850305
H    -1.543894  2.512368  4.097119
H    0.022399  1.971873  3.556426
H    -1.308984  1.565828  6.286180
H    0.119786  2.456977  5.886170
H    -0.247942  -0.561272  6.277030
H    0.697357  0.576484  7.182240
H    1.372432  -0.847450  4.556304
H    2.221871  -0.841818  6.113411
H    3.512992  0.426607  4.706305
H    2.678132  1.643518  5.455936
H    2.212388  1.092997  3.914300
N    -3.544278  -0.331116  4.448388
C    -4.974408  -0.367167  4.778375
H    -2.943856  -1.000283  4.929217
H    -5.119028  -1.064661  5.608033
H    -5.555650  -0.723373  3.918105
H    -5.319048  0.625850  5.091346
Ca    -4.711857  2.670824  1.806209
