35
Energy: -36759.9280751 eV PBE+vdW (tier 2 basis)
C    -0.003189  1.623081  0.234027
C    -0.477563  0.277073  0.665601
O    0.314094  -0.717762  0.643205
H    0.332979  1.556916  -0.811546
H    0.876803  1.907829  0.827546
H    -0.762264  2.407693  0.316453
N    -1.751423  0.151160  1.074229
C    -2.522640  -1.068072  1.422862
C    -1.901595  -1.793061  2.638277
O    -0.867969  -2.526336  2.499056
H    -2.293227  1.011930  1.057070
H    -3.499171  -0.679312  1.735709
C    -2.742766  -2.006439  0.213923
C    -3.898932  -3.028246  0.373169
C    -5.206524  -2.613731  -0.337985
C    -6.246558  -3.735042  -0.279095
N    -7.501292  -3.403495  -1.076304
H    -1.810392  -2.543342  -0.001549
H    -2.923684  -1.364934  -0.659818
H    -4.099166  -3.230331  1.437854
H    -3.565510  -3.987442  -0.045953
H    -4.977229  -2.383910  -1.390980
H    -5.618846  -1.694518  0.108762
H    -6.584610  -3.941370  0.744063
H    -5.860770  -4.669144  -0.706784
H    -7.975037  -2.558409  -0.724636
H    -8.184686  -4.175286  -1.028910
H    -7.293042  -3.246139  -2.073830
N    -2.456772  -1.664603  3.831683
C    -3.612385  -0.852785  4.241829
H    -1.997016  -2.201198  4.569978
H    -3.506034  0.185924  3.910154
H    -3.649291  -0.854262  5.335063
H    -4.550735  -1.281604  3.868810
Ca    1.046442  -2.479834  1.538066
