35
Energy: -36758.4330997 eV PBE+vdW (tier 2 basis)
C    -0.088673  1.818192  0.294029
C    0.092874  0.756108  1.321900
O    1.302877  0.423425  1.697616
H    -0.160074  1.348645  -0.701890
H    0.775277  2.490465  0.284912
H    -1.002683  2.406018  0.448310
N    -0.931759  0.117461  1.856793
C    -2.361920  0.371495  1.553429
C    -2.865111  1.709749  2.201109
O    -3.164401  2.608226  1.422391
H    -0.713450  -0.595458  2.554753
H    -2.415925  0.600476  0.483001
C    -3.233836  -0.871259  1.810695
C    -4.709325  -0.575873  1.477006
C    -5.617143  -1.818224  1.554162
C    -7.058193  -1.450236  1.202179
N    -7.985305  -2.657933  1.248779
H    -3.143656  -1.212293  2.852467
H    -2.862778  -1.688054  1.172193
H    -4.770860  -0.143525  0.466186
H    -5.091957  0.198076  2.160115
H    -5.578636  -2.250480  2.567118
H    -5.250007  -2.590089  0.858644
H    -7.144095  -1.044582  0.186332
H    -7.482108  -0.718433  1.901100
H    -8.009742  -3.087103  2.185272
H    -7.695122  -3.389115  0.583135
H    -8.952885  -2.393937  1.008825
N    -2.931438  1.844573  3.548237
C    -2.722092  0.869236  4.610458
H    -3.281547  2.759774  3.827822
H    -1.803447  0.286581  4.461544
H    -3.570193  0.179446  4.726016
H    -2.602689  1.410435  5.554420
Ca    3.311850  0.327395  1.893000
