35
Energy: -36757.6142738 eV PBE+vdW (tier 2 basis)
C    0.232604  0.320167  0.352363
C    0.178811  0.816438  1.771900
O    1.073049  1.503442  2.257781
H    0.846234  0.991289  -0.256339
H    -0.745880  0.183590  -0.121230
H    0.744731  -0.656231  0.361852
N    -0.851506  0.354069  2.628187
C    -2.287672  0.603919  2.433771
C    -2.946563  -0.459416  1.548049
O    -4.167976  -0.317266  1.122707
H    -0.576880  0.565347  3.590164
H    -2.739270  0.348803  3.411913
C    -2.652743  2.101641  2.224078
C    -1.941235  2.902739  1.112606
C    -1.592137  4.356423  1.501244
C    -0.531721  4.595877  2.580006
N    0.892306  4.283474  2.147717
H    -2.439498  2.561117  3.200292
H    -3.743712  2.191308  2.116822
H    -2.576600  2.944824  0.217377
H    -1.030661  2.396397  0.773744
H    -2.498301  4.865248  1.864403
H    -1.310214  4.908413  0.591024
H    -0.538123  5.654612  2.864588
H    -0.697928  4.009845  3.492750
H    1.563664  4.662032  2.831349
H    1.119709  4.713388  1.240810
H    1.071625  3.250737  2.093163
N    -2.289339  -1.573509  1.345617
C    -2.769157  -2.772056  0.658007
H    -1.360077  -1.587375  1.781039
H    -1.922997  -3.448272  0.505411
H    -3.182488  -2.511044  -0.324214
H    -3.518570  -3.294622  1.268867
Ca    -6.127261  -0.445666  0.593905
