35
Energy: -36759.2576788 eV PBE+vdW (tier 2 basis)
C    -0.456337  0.452506  -0.051008
C    -0.200370  0.168283  1.389955
O    0.996452  0.207989  1.824853
H    -0.276140  -0.444901  -0.663523
H    0.280064  1.200929  -0.372922
H    -1.462715  0.825520  -0.248287
N    -1.190814  -0.080517  2.293341
C    -2.202115  -1.152653  2.207965
C    -1.424517  -2.476202  2.493485
O    -0.179645  -2.543666  2.193966
H    -0.839419  0.024417  3.247866
H    -2.885595  -0.967850  3.048712
C    -3.041205  -1.141937  0.901800
C    -4.403870  -1.859074  0.966105
C    -5.270933  -1.530798  -0.270389
C    -6.643918  -2.200804  -0.190950
N    -7.522244  -1.843412  -1.382658
H    -2.452672  -1.541115  0.064286
H    -3.228034  -0.079698  0.690062
H    -4.945507  -1.544426  1.871692
H    -4.267297  -2.948253  1.031727
H    -4.750986  -1.855313  -1.185897
H    -5.398699  -0.438585  -0.341104
H    -7.205351  -1.887524  0.698286
H    -6.573739  -3.295712  -0.187576
H    -7.693746  -0.828591  -1.444807
H    -8.444128  -2.302022  -1.315270
H    -7.101804  -2.139187  -2.276284
N    -2.002583  -3.511582  3.076465
C    -3.334399  -3.662017  3.671230
H    -1.387963  -4.321763  3.183994
H    -3.942212  -4.350354  3.072050
H    -3.841487  -2.698785  3.756825
H    -3.216265  -4.086389  4.675280
Ca    1.834217  -1.718953  2.259522
