35
Energy: -36758.4644782 eV PBE+vdW (tier 2 basis)
C    0.617978  0.432773  0.839118
C    0.026208  -0.060720  2.107128
O    0.835834  -0.367965  3.095262
H    1.351622  -0.303464  0.478811
H    1.163557  1.367637  1.037291
H    -0.123622  0.581586  0.047291
N    -1.268143  -0.217223  2.317772
C    -2.453523  0.046321  1.442451
C    -2.361399  -0.780079  0.118423
O    -1.855967  -0.261459  -0.876429
H    -1.501722  -0.571774  3.245773
H    -3.293129  -0.321016  2.046137
C    -2.665966  1.542376  1.156124
C    -4.010356  1.824373  0.457259
C    -4.215830  3.330860  0.218604
C    -5.566821  3.741470  -0.361897
N    -5.709917  3.421595  -1.848439
H    -1.847645  1.911788  0.523649
H    -2.625883  2.087712  2.111043
H    -4.838492  1.440156  1.074358
H    -4.031497  1.270563  -0.494802
H    -3.402945  3.741491  -0.402990
H    -4.143763  3.865111  1.178299
H    -5.714849  4.824941  -0.283875
H    -6.408322  3.243853  0.136515
H    -6.628336  3.727240  -2.203674
H    -5.628040  2.414363  -2.042195
H    -4.991753  3.904694  -2.407464
N    -2.858001  -2.034166  0.138727
C    -3.510854  -2.749419  1.234312
H    -2.781410  -2.516028  -0.755610
H    -3.744068  -3.760601  0.888098
H    -4.456966  -2.277850  1.533133
H    -2.855067  -2.850826  2.110061
Ca    2.425881  -0.743903  4.280177
