35
Energy: -36758.8449443 eV PBE+vdW (tier 2 basis)
C    -0.036437  -1.602454  2.185840
C    0.065545  -0.125454  2.029802
O    1.241879  0.435633  2.209746
H    0.634461  -2.095652  1.467584
H    -1.050088  -1.982407  2.036055
H    0.301850  -1.888483  3.191914
N    -0.942475  0.644776  1.720563
C    -2.294812  0.313046  1.240951
C    -2.602158  1.561237  0.344910
O    -1.912361  2.575903  0.527365
H    -0.816450  1.675340  1.527564
H    -2.248088  -0.596350  0.626886
C    -3.349866  0.117598  2.360769
C    -3.681340  1.374430  3.181040
C    -4.722669  1.170198  4.304556
C    -6.160357  1.040509  3.801836
N    -7.148181  1.006080  4.962173
H    -3.003020  -0.688902  3.025813
H    -4.248901  -0.273783  1.860783
H    -4.017679  2.185415  2.516965
H    -2.765973  1.749155  3.660722
H    -4.660673  2.042737  4.973472
H    -4.456559  0.288940  4.910446
H    -6.339656  0.120542  3.232402
H    -6.456519  1.896976  3.182976
H    -8.120702  0.924985  4.629219
H    -7.091620  1.863024  5.532719
H    -6.973158  0.209026  5.591730
N    -3.608215  1.452573  -0.526209
C    -4.009174  2.530278  -1.437199
H    -4.043234  0.543872  -0.656900
H    -5.101629  2.604761  -1.458522
H    -3.643504  2.329406  -2.451897
H    -3.581448  3.470297  -1.079571
Ca    3.130949  1.102592  2.305048
