35
Energy: -36758.6339671 eV PBE+vdW (tier 2 basis)
C    0.289408  -1.339601  2.678561
C    0.175802  0.081457  2.244755
O    1.259779  0.812537  2.280156
H    0.678388  -1.353560  3.708357
H    0.995772  -1.872630  2.030426
H    -0.656677  -1.884827  2.666950
N    -0.985354  0.684657  2.006072
C    -2.122132  -0.034581  1.425806
C    -1.567616  -0.674738  0.085321
O    -0.348484  -0.664544  -0.108855
H    -0.905591  1.672091  1.762606
H    -2.361849  -0.877025  2.090328
C    -3.396596  0.827925  1.327148
C    -3.356090  2.021984  0.355862
C    -4.741724  2.569400  -0.056558
C    -5.528506  3.233266  1.073085
N    -6.829932  3.832552  0.552879
H    -3.657160  1.150075  2.346576
H    -4.208515  0.145278  1.031913
H    -2.854643  1.722036  -0.575790
H    -2.758946  2.848936  0.773758
H    -5.337685  1.750419  -0.491381
H    -4.582377  3.303010  -0.862183
H    -4.976603  4.064987  1.529179
H    -5.819947  2.533377  1.865657
H    -7.365820  4.286932  1.307738
H    -7.441295  3.116000  0.133805
H    -6.657673  4.545918  -0.171487
N    -2.467288  -1.230569  -0.734254
C    -2.093592  -1.957294  -1.953314
H    -3.437646  -1.276546  -0.442880
H    -2.928218  -1.918829  -2.659454
H    -1.214898  -1.483598  -2.399718
H    -1.859850  -3.005616  -1.727152
Ca    3.220576  1.252842  2.173388
