35
Energy: -36759.4890041 eV PBE+vdW (tier 2 basis)
C    0.209464  3.203742  1.616611
C    0.167329  1.782686  2.047560
O    0.893179  1.368610  3.005548
H    -0.013110  3.880665  2.452943
H    -0.434215  3.427955  0.761877
H    1.252834  3.419057  1.330609
N    -0.626532  0.877110  1.409541
C    -2.065066  1.084576  1.218903
C    -2.711771  1.083033  2.640841
O    -2.001420  0.732656  3.648653
H    -0.403130  -0.083437  1.678011
H    -2.220688  2.083259  0.783152
C    -2.639483  0.010752  0.260595
C    -2.079878  0.160642  -1.167622
C    -2.405197  -0.978979  -2.159960
C    -3.825371  -0.948810  -2.726620
N    -3.986600  -1.962021  -3.853821
H    -3.735192  0.083427  0.267524
H    -2.400197  -0.986109  0.666819
H    -0.983998  0.219309  -1.110065
H    -2.406239  1.123010  -1.593377
H    -2.206451  -1.956075  -1.691399
H    -1.693094  -0.884475  -2.994636
H    -4.069966  0.026347  -3.166719
H    -4.594715  -1.200491  -1.986474
H    -3.804726  -2.925994  -3.536751
H    -3.336693  -1.770393  -4.631619
H    -4.940909  -1.944322  -4.244841
N    -3.961687  1.463792  2.821792
C    -4.933011  1.985608  1.855127
H    -4.289661  1.400319  3.787998
H    -5.661790  1.209253  1.589333
H    -4.434206  2.356211  0.955475
H    -5.468472  2.820035  2.321731
Ca    -0.138710  0.631807  4.755828
