35
Energy: -36759.5401373 eV PBE+vdW (tier 2 basis)
C    -0.299475  -0.101806  -0.001800
C    -0.404558  0.126356  1.468729
O    0.593432  0.567040  2.121112
H    0.558101  0.457790  -0.389831
H    -1.208832  0.202086  -0.530262
H    -0.123652  -1.169130  -0.215009
N    -1.554243  -0.131555  2.148041
C    -2.296063  -1.401775  2.047894
C    -1.277966  -2.556979  2.341586
O    -0.109816  -2.275883  2.777065
H    -1.525222  0.240180  3.097902
H    -2.968239  -1.389913  2.921445
C    -3.194443  -1.580561  0.802028
C    -4.226295  -0.447546  0.639345
C    -5.238412  -0.720833  -0.493475
C    -6.264706  0.408553  -0.603249
N    -7.294476  0.141938  -1.693108
H    -3.741828  -2.528544  0.923336
H    -2.589273  -1.696072  -0.107189
H    -3.706182  0.503815  0.451034
H    -4.771438  -0.316304  1.587591
H    -5.758421  -1.672784  -0.299119
H    -4.706261  -0.835087  -1.451541
H    -5.799952  1.369435  -0.857104
H    -6.836791  0.537510  0.324158
H    -7.978238  0.912266  -1.753594
H    -7.827940  -0.722437  -1.516652
H    -6.859217  0.049674  -2.622992
N    -1.659430  -3.807469  2.188916
C    -0.838620  -4.983278  2.517650
H    -2.601569  -3.982577  1.849087
H    -1.403101  -5.880548  2.251792
H    -0.616715  -5.002184  3.591371
H    0.096327  -4.963831  1.946362
Ca    1.533321  -0.966258  3.316693
