35
Energy: -36758.649703 eV PBE+vdW (tier 2 basis)
C    -0.330012  0.874297  -0.630569
C    -0.214423  1.085941  0.838554
O    0.788396  1.810699  1.281946
H    0.590856  0.404642  -1.004980
H    -0.426184  1.846151  -1.136067
H    -1.179844  0.248129  -0.913026
N    -1.056318  0.595258  1.710330
C    -2.358829  -0.067949  1.513806
C    -3.113989  0.356791  2.812031
O    -2.426013  0.647694  3.801000
H    -0.977976  0.816719  2.731866
H    -2.846647  0.357687  0.626792
C    -2.259205  -1.607531  1.337610
C    -1.763294  -2.433404  2.547141
C    -2.850406  -2.913087  3.534045
C    -3.661740  -4.139104  3.112946
N    -2.914808  -5.449815  3.352000
H    -1.599873  -1.791664  0.477363
H    -3.254424  -1.948402  1.013121
H    -1.020683  -1.858284  3.117293
H    -1.201435  -3.295588  2.153690
H    -3.580465  -2.112701  3.715439
H    -2.400246  -3.099278  4.521879
H    -3.931075  -4.137655  2.048987
H    -4.585017  -4.225942  3.697486
H    -3.480909  -6.260377  3.058761
H    -2.696871  -5.577518  4.351415
H    -2.026051  -5.496005  2.834747
N    -4.451081  0.340866  2.768935
C    -5.301563  0.723788  3.900898
H    -4.906878  0.172232  1.876512
H    -4.689310  0.753611  4.805976
H    -5.740906  1.714476  3.730515
H    -6.109032  -0.006968  4.020775
Ca    2.273068  3.096902  1.704535
