35
Energy: -36757.8870524 eV PBE+vdW (tier 2 basis)
C    0.215539  0.326103  -0.510736
C    0.127402  -0.382019  0.792235
O    0.836642  -1.476171  0.942148
H    -0.585350  1.049144  -0.667907
H    1.178759  0.856015  -0.577816
H    0.193950  -0.412527  -1.322566
N    -0.616582  -0.003664  1.814628
C    -1.410539  1.216534  2.184680
C    -2.922870  0.996338  2.447956
O    -3.425294  1.813108  3.235153
H    -0.549874  -0.646240  2.607079
H    -1.040948  1.398024  3.204397
C    -1.163123  2.534828  1.408541
C    -2.077113  2.942104  0.232874
C    -3.465003  3.562306  0.529415
C    -3.487300  4.762867  1.494631
N    -4.179364  4.421881  2.801861
H    -0.113495  2.551367  1.085482
H    -1.201811  3.317443  2.179004
H    -2.254066  2.098408  -0.452356
H    -1.508860  3.676183  -0.356814
H    -4.172912  2.797293  0.877383
H    -3.867926  3.896270  -0.435194
H    -4.025883  5.616237  1.069499
H    -2.482568  5.114336  1.758674
H    -3.857118  3.483516  3.151789
H    -5.198533  4.364126  2.674828
H    -4.008966  5.136221  3.522134
N    -3.650899  0.024305  1.875907
C    -3.321445  -0.933535  0.822122
H    -4.610935  0.005182  2.220391
H    -4.261391  -1.320100  0.416137
H    -2.749667  -1.790237  1.203770
H    -2.785165  -0.453061  -0.004203
Ca    2.179174  -2.999697  0.860402
