35
Energy: -36758.5840522 eV PBE+vdW (tier 2 basis)
C    -0.029862  -0.302352  0.726728
C    -0.141049  -0.005915  2.183698
O    0.904738  -0.164905  2.952095
H    0.804289  -0.985411  0.539682
H    0.167012  0.628026  0.169939
H    -0.945271  -0.746676  0.320137
N    -1.261553  0.429400  2.726526
C    -2.567901  0.671834  2.061383
C    -3.159469  1.981403  2.671423
O    -3.861370  1.903661  3.694708
H    -1.252156  0.579222  3.738727
H    -2.374930  0.808644  0.991419
C    -3.536139  -0.495748  2.304751
C    -4.911044  -0.248826  1.647469
C    -6.104318  -0.920408  2.351285
C    -6.360119  -0.552206  3.811718
N    -6.489873  0.944658  4.034469
H    -3.635052  -0.619701  3.392080
H    -3.090032  -1.423227  1.919020
H    -4.891322  -0.608331  0.609791
H    -5.102096  0.833163  1.564386
H    -5.989867  -2.014711  2.332806
H    -7.010917  -0.716563  1.761573
H    -5.557578  -0.878048  4.484297
H    -7.292682  -1.011457  4.159754
H    -6.807222  1.146310  4.992109
H    -7.178202  1.364033  3.395122
H    -5.561063  1.416837  3.899673
N    -2.877180  3.142986  2.067913
C    -2.086890  3.382522  0.858229
H    -3.294764  3.957116  2.518487
H    -2.530057  2.896432  -0.020668
H    -1.045041  3.059016  0.984100
H    -2.075778  4.459691  0.668891
Ca    2.719242  -0.550837  3.779754
