35
Energy: -36758.6188159 eV PBE+vdW (tier 2 basis)
C    0.680117  0.463643  0.550073
C    0.074435  0.374365  1.906658
O    0.847053  0.678043  2.921375
H    0.952155  1.516465  0.370500
H    0.016857  0.136752  -0.249219
H    1.592117  -0.142376  0.509589
N    -1.226889  0.232295  2.163035
C    -2.144036  -0.653677  1.428930
C    -1.418742  -2.051272  1.413662
O    -0.188200  -2.076170  1.508456
H    -1.456854  0.334850  3.151053
H    -3.044460  -0.701250  2.057449
C    -2.560443  -0.159446  0.015832
C    -3.971081  -0.597613  -0.426312
C    -4.280548  -0.097276  -1.850904
C    -5.566908  -0.607136  -2.498310
N    -6.828835  0.091973  -1.996562
H    -1.839123  -0.513060  -0.733833
H    -2.510250  0.939188  0.018885
H    -4.711469  -0.220672  0.299316
H    -4.043862  -1.696502  -0.419302
H    -3.476457  -0.430227  -2.525083
H    -4.250384  1.004109  -1.894109
H    -5.728454  -1.679504  -2.330866
H    -5.553189  -0.430070  -3.580188
H    -6.792869  1.106254  -2.175392
H    -6.980787  -0.041488  -0.987811
H    -7.664865  -0.270391  -2.479952
N    -2.198332  -3.129422  1.263802
C    -1.669748  -4.496170  1.193042
H    -3.204336  -3.018675  1.329909
H    -2.335970  -5.105572  0.574778
H    -1.600244  -4.940687  2.194185
H    -0.674252  -4.471442  0.741554
Ca    2.422568  0.864771  4.153978
