35
Energy: -36758.7459749 eV PBE+vdW (tier 2 basis)
C    -0.392199  -1.381988  0.592422
C    -0.071519  -0.209829  1.452452
O    1.176189  -0.048883  1.837845
H    -0.089724  -2.305961  1.105358
H    -1.453025  -1.453063  0.339560
H    0.189405  -1.325227  -0.339150
N    -0.953368  0.669614  1.843631
C    -2.342510  0.897270  1.408058
C    -2.457806  2.444761  1.606459
O    -1.618506  2.978408  2.351217
H    -0.677653  1.541304  2.374725
H    -2.436061  0.630141  0.347975
C    -3.407835  0.119536  2.225184
C    -3.546623  0.541831  3.697000
C    -4.584683  -0.257654  4.516448
C    -6.036007  0.111069  4.209595
N    -6.995024  -0.584363  5.168835
H    -3.171478  -0.954083  2.160616
H    -4.358100  0.250047  1.686962
H    -3.779030  1.615641  3.766423
H    -2.579603  0.419429  4.205144
H    -4.387945  -0.056360  5.581091
H    -4.432986  -1.338889  4.366772
H    -6.355605  -0.185678  3.203307
H    -6.219594  1.186112  4.331732
H    -6.805383  -0.323548  6.148201
H    -6.922323  -1.610643  5.107562
H    -7.975849  -0.334879  4.971369
N    -3.445604  3.116480  1.006301
C    -4.446925  2.644155  0.052356
H    -3.446357  4.113653  1.220413
H    -4.600100  3.415183  -0.710368
H    -5.410542  2.449245  0.542241
H    -4.111192  1.736803  -0.460230
Ca    3.141453  0.184866  2.162052
