35
Energy: -36758.5930867 eV PBE+vdW (tier 2 basis)
C    -0.041206  -1.507806  1.800521
C    0.195088  -0.106421  1.354702
O    1.391669  0.401045  1.520922
H    0.252659  -1.608409  2.854939
H    -1.078595  -1.835163  1.701640
H    0.596409  -2.188687  1.216700
N    -0.734349  0.637020  0.798253
C    -2.116889  0.254403  0.431494
C    -2.468162  1.178442  -0.752795
O    -2.056985  2.361648  -0.710270
H    -0.508628  1.598531  0.507128
H    -2.106778  -0.795366  0.118819
C    -3.121447  0.433609  1.604835
C    -3.475933  1.881881  1.994256
C    -4.715818  2.457771  1.269249
C    -4.717702  3.979490  1.141054
N    -3.929880  4.434611  -0.086277
H    -2.699506  -0.094362  2.471661
H    -4.032891  -0.123615  1.342449
H    -2.602173  2.534257  1.843751
H    -3.672607  1.907110  3.073860
H    -5.619103  2.175462  1.826777
H    -4.853106  2.010469  0.271622
H    -4.259366  4.464566  2.011172
H    -5.728921  4.384538  1.025510
H    -3.572972  5.392640  0.022731
H    -3.129819  3.788667  -0.299993
H    -4.534641  4.440359  -0.917616
N    -3.225100  0.692162  -1.737678
C    -3.734336  -0.675622  -1.910130
H    -3.399145  1.347137  -2.498950
H    -4.427616  -0.673231  -2.756024
H    -4.289985  -1.012326  -1.027456
H    -2.924174  -1.379699  -2.140304
Ca    3.359399  0.708883  1.883866
