35
Energy: -36757.4788436 eV PBE+vdW (tier 2 basis)
C    1.599915  0.303747  1.287631
C    1.373993  -0.157788  2.707302
O    2.271528  -0.230445  3.520509
H    2.340732  1.110217  1.287992
H    2.054877  -0.531123  0.732212
H    0.704435  0.626670  0.745047
N    0.090106  -0.649970  3.089424
C    -1.230935  -0.106112  2.788843
C    -1.702717  -0.555410  1.395407
O    -2.764511  -0.054594  0.830891
H    0.161595  -1.039768  4.030198
H    -1.917708  -0.702743  3.420127
C    -1.525598  1.368362  3.212372
C    -0.485509  2.478233  2.944229
C    0.629714  2.680946  4.003661
C    0.207034  3.576404  5.168205
N    1.373277  3.817648  6.119402
H    -1.745303  1.326956  4.288849
H    -2.480228  1.655423  2.747020
H    -1.036709  3.424863  2.840581
H    -0.006763  2.331432  1.968774
H    1.490299  3.145763  3.498370
H    0.989747  1.717448  4.391494
H    -0.594158  3.142602  5.779634
H    -0.114843  4.570027  4.831673
H    1.097950  4.419413  6.910327
H    2.160465  4.283040  5.642687
H    1.737289  2.937861  6.514899
N    -1.068108  -1.557911  0.843155
C    -1.411596  -2.240939  -0.401225
H    -0.273463  -1.890413  1.404003
H    -2.363552  -2.780970  -0.298303
H    -0.630530  -2.973371  -0.624541
H    -1.457923  -1.525785  -1.233104
Ca    -4.480889  0.329688  -0.174403
