35
Energy: -36758.7158174 eV PBE+vdW (tier 2 basis)
C    -0.388131  0.043359  -0.442848
C    -0.100020  0.703043  0.861141
O    1.131253  1.105366  1.090240
H    -0.227720  0.761507  -1.261011
H    -1.407097  -0.344396  -0.516323
H    0.315536  -0.786164  -0.597746
N    -1.003910  0.910797  1.781757
C    -2.471551  0.809985  1.696736
C    -2.910720  1.934028  2.690328
O    -2.084958  2.290328  3.544788
H    -0.792534  1.451616  2.658765
H    -2.780995  1.060816  0.673693
C    -3.064948  -0.574794  2.068684
C    -3.220106  -0.910089  3.564902
C    -3.973528  -2.245519  3.739035
C    -4.631458  -2.501064  5.092076
N    -3.646889  -2.851084  6.205918
H    -2.477233  -1.354582  1.560289
H    -4.061932  -0.608972  1.603816
H    -3.790787  -0.106577  4.056135
H    -2.234250  -0.937656  4.055941
H    -3.337509  -3.101275  3.459862
H    -4.811631  -2.274530  3.024889
H    -5.316877  -3.355109  5.035585
H    -5.195994  -1.632287  5.453550
H    -4.145036  -3.038698  7.089241
H    -2.978222  -2.091196  6.389125
H    -3.107147  -3.698231  5.977079
N    -4.155764  2.399714  2.563607
C    -4.723209  3.449975  3.415012
H    -4.719148  2.076672  1.781996
H    -5.695838  3.127949  3.803576
H    -4.857210  4.373267  2.838330
H    -4.036602  3.637983  4.244189
Ca    2.996734  1.846263  1.086698
