35
Energy: -36759.9216335 eV PBE+vdW (tier 2 basis)
C    2.114122  0.140394  0.159903
C    1.598884  -0.622974  1.331507
O    2.401489  -1.197869  2.131379
H    2.776929  -0.498697  -0.438691
H    2.733588  0.970012  0.533552
H    1.325294  0.545885  -0.481951
N    0.270779  -0.681654  1.535710
C    -0.402341  -1.231055  2.724702
C    -0.429160  -2.782309  2.675125
O    0.670051  -3.399002  2.857882
H    -0.312363  -0.230178  0.836906
H    0.268568  -1.027962  3.574426
C    -1.716643  -0.478435  3.050603
C    -2.783393  -0.221185  1.959220
C    -4.065391  0.346848  2.611363
C    -5.266832  0.614261  1.697055
N    -5.292069  2.014917  1.090124
H    -1.412475  0.494557  3.463444
H    -2.179393  -1.009503  3.897101
H    -3.044083  -1.136436  1.402103
H    -2.393475  0.484672  1.206520
H    -3.827777  1.251085  3.195725
H    -4.423321  -0.377094  3.358506
H    -6.202250  0.538460  2.263550
H    -5.327371  -0.084026  0.852902
H    -4.480735  2.209051  0.487851
H    -5.318857  2.742149  1.820789
H    -6.135835  2.143995  0.509537
N    -1.561105  -3.431701  2.486171
C    -1.723146  -4.890573  2.463014
H    -2.402528  -2.877388  2.356597
H    -2.546957  -5.169621  3.129641
H    -0.799645  -5.363891  2.801518
H    -1.955728  -5.221747  1.443066
Ca    2.784169  -3.071984  3.053149
