35
Energy: -36758.6631059 eV PBE+vdW (tier 2 basis)
C    0.268257  -0.503618  -0.806496
C    0.207875  0.215228  0.495109
O    1.318929  0.753839  0.952834
H    0.969444  -1.346769  -0.724768
H    0.662647  0.167787  -1.582032
H    -0.702821  -0.885451  -1.129420
N    -0.871294  0.347918  1.217361
C    -2.298166  0.151323  0.907238
C    -2.910710  1.399397  1.639017
O    -2.207336  1.922412  2.521724
H    -0.878183  0.994864  2.060404
H    -2.456533  0.199033  -0.177573
C    -2.910324  -1.140313  1.501241
C    -2.492665  -2.451458  0.815812
C    -3.419012  -3.657005  1.096247
C    -3.400972  -4.162831  2.537457
N    -4.270421  -5.406428  2.684846
H    -4.001590  -1.024715  1.417938
H    -2.687717  -1.156713  2.578884
H    -1.454987  -2.713150  1.075459
H    -2.511401  -2.312773  -0.275512
H    -3.110651  -4.474830  0.426160
H    -4.449790  -3.390332  0.811236
H    -3.798374  -3.435225  3.255516
H    -2.395337  -4.459080  2.861707
H    -4.266489  -5.760382  3.653263
H    -3.943335  -6.172944  2.077652
H    -5.252161  -5.218296  2.432529
N    -4.133735  1.826485  1.319180
C    -5.052887  1.342020  0.292351
H    -4.451666  2.612409  1.886742
H    -5.522172  2.201108  -0.199623
H    -5.845048  0.718784  0.729125
H    -4.522775  0.769725  -0.475619
Ca    2.968662  1.767991  1.471553
