35
Energy: -36758.629354 eV PBE+vdW (tier 2 basis)
C    -0.431234  0.391355  -0.347224
C    -0.038899  0.129792  1.068968
O    1.233088  0.244000  1.363609
H    -1.472397  0.143488  -0.559548
H    0.205916  -0.177688  -1.031594
H    -0.284990  1.466139  -0.541707
N    -0.910542  0.164853  2.099759
C    -2.105193  -0.694145  2.100176
C    -1.619047  -2.039699  1.448437
O    -0.509156  -2.046928  0.882385
H    -0.440688  0.196539  3.003531
H    -2.316196  -0.885501  3.163023
C    -3.399017  -0.107286  1.489567
C    -3.886146  1.152780  2.229956
C    -5.379208  1.507534  2.056426
C    -5.763036  2.028726  0.673320
N    -7.216693  2.488714  0.653845
H    -4.164395  -0.894956  1.568426
H    -3.274429  0.077834  0.413932
H    -3.262139  2.017253  1.957521
H    -3.735548  1.008114  3.310177
H    -5.616917  2.280511  2.804296
H    -5.996624  0.629860  2.307968
H    -5.679303  1.269999  -0.114410
H    -5.168302  2.903550  0.381324
H    -7.863782  1.721742  0.889940
H    -7.491207  2.846594  -0.273222
H    -7.382558  3.244982  1.335005
N    -2.417710  -3.099137  1.547676
C    -2.089474  -4.423925  1.009147
H    -3.267431  -3.020604  2.098028
H    -1.589995  -5.037915  1.769409
H    -1.428980  -4.306924  0.145857
H    -3.014166  -4.919719  0.698279
Ca    3.218568  -0.031785  1.366775
