35
Energy: -36759.4674709 eV PBE+vdW (tier 2 basis)
C    -1.288512  0.980007  -0.319503
C    -0.950976  0.355325  0.986329
O    0.086555  -0.367148  1.114325
H    -1.348583  0.165844  -1.060329
H    -0.477437  1.635689  -0.666552
H    -2.238125  1.521522  -0.319482
N    -1.756431  0.520992  2.072988
C    -2.164939  1.845503  2.552571
C    -0.861793  2.593276  2.984757
O    0.237016  1.937041  3.058854
H    -1.501481  -0.108248  2.837131
H    -2.613755  2.403232  1.716947
C    -3.187227  1.708721  3.704509
C    -4.553566  1.130574  3.281854
C    -5.466372  0.909598  4.505415
C    -6.771073  0.146825  4.268539
N    -7.891589  0.993369  3.668895
H    -3.330277  2.693862  4.168430
H    -2.741495  1.076675  4.490824
H    -4.405354  0.171825  2.761478
H    -5.021489  1.813389  2.553386
H    -5.677011  1.863066  5.017322
H    -4.922905  0.305362  5.248117
H    -7.174199  -0.226480  5.217318
H    -6.643762  -0.708781  3.593430
H    -8.751838  0.433666  3.561076
H    -7.657088  1.366176  2.739024
H    -8.128319  1.792047  4.276115
N    -0.873123  3.884284  3.252727
C    -1.972136  4.851851  3.168935
H    0.026516  4.263303  3.556660
H    -2.775037  4.481746  2.525674
H    -1.581182  5.779453  2.736159
H    -2.363666  5.071759  4.170511
Ca    1.624512  0.397910  2.429909
