35
Energy: -36758.0216736 eV PBE+vdW (tier 2 basis)
C    0.045835  0.536505  0.043411
C    -0.094336  0.143419  1.482070
O    0.824741  -0.361908  2.147100
H    -0.874800  0.925651  -0.404807
H    0.383298  -0.338228  -0.528846
H    0.834620  1.295377  -0.051564
N    -1.318006  0.362354  2.069853
C    -1.534619  0.029743  3.475222
C    -2.909068  -0.623283  3.650537
O    -2.972785  -1.856686  4.085467
H    -2.009554  0.875852  1.534054
H    -0.798277  -0.759529  3.675693
C    -1.308309  1.181772  4.508381
C    -0.060579  2.075185  4.282079
C    1.158224  1.854752  5.198544
C    2.051230  0.631023  5.012354
N    2.805887  0.637028  3.696272
H    -1.272321  0.720692  5.507729
H    -2.189260  1.834526  4.523507
H    -0.381494  3.109024  4.464475
H    0.228671  2.066999  3.221679
H    0.823617  1.829475  6.246892
H    1.791034  2.755099  5.139001
H    2.803482  0.601005  5.809384
H    1.499283  -0.316667  5.029704
H    3.206641  1.562567  3.493855
H    2.159617  0.345207  2.916330
H    3.588057  -0.030621  3.714624
N    -4.043630  -0.007704  3.400003
C    -4.317950  1.344346  2.890679
H    -4.885263  -0.563063  3.566325
H    -5.024034  1.837105  3.570557
H    -3.409374  1.945267  2.832337
H    -4.783523  1.264764  1.899293
Ca    -3.170890  -3.796906  4.654169
