35
Energy: -36758.1031302 eV PBE+vdW (tier 2 basis)
C    0.813984  0.254531  0.234782
C    0.525214  -0.109611  1.657845
O    1.396080  -0.493421  2.450242
H    1.610054  1.009770  0.203346
H    -0.056283  0.627471  -0.316497
H    1.208798  -0.633796  -0.278648
N    -0.792256  -0.028004  2.072448
C    -1.114962  -0.253345  3.468570
C    -2.340553  -1.136368  3.643644
O    -3.354237  -1.070151  2.821636
H    -1.411748  0.541005  1.504187
H    -0.251882  -0.814788  3.854438
C    -1.280737  1.060189  4.295598
C    -0.039228  1.980597  4.333640
C    0.973520  1.795852  5.482258
C    1.947270  0.617604  5.499633
N    2.954090  0.645695  4.365487
H    -1.593845  0.811514  5.321280
H    -2.118740  1.622987  3.856122
H    -0.427078  3.002303  4.447661
H    0.459391  1.988622  3.353004
H    0.430650  1.749786  6.439153
H    1.563979  2.723495  5.554379
H    1.457925  -0.361512  5.431519
H    2.522699  0.638777  6.432796
H    3.742334  0.012307  4.556869
H    3.350487  1.585593  4.231574
H    2.499421  0.317006  3.475721
N    -2.414134  -1.957756  4.668469
C    -1.390746  -2.227768  5.691844
H    -3.289801  -2.469597  4.778555
H    -1.727675  -3.082599  6.284915
H    -1.270087  -1.365048  6.358073
H    -0.436430  -2.487122  5.218902
Ca    -4.988024  -1.230249  1.617972
