35
Energy: -36758.4366171 eV PBE+vdW (tier 2 basis)
C    -0.968238  -1.440011  -1.487518
C    -0.461119  -1.614762  -0.104079
O    0.799495  -1.950612  0.056697
H    -0.723265  -2.338136  -2.072723
H    -0.446783  -0.590799  -1.955463
H    -2.053506  -1.302687  -1.529445
N    -1.182363  -1.454170  0.991400
C    -2.619183  -1.086858  1.198501
C    -3.548464  -2.153016  0.531574
O    -3.833690  -2.030182  -0.658359
H    -0.665652  -1.619606  1.855607
H    -2.727788  -1.122396  2.289499
C    -2.962292  0.329736  0.705625
C    -4.393911  0.760698  1.084550
C    -4.761454  2.105932  0.430863
C    -6.231724  2.512500  0.488973
N    -6.679918  3.008041  1.862610
H    -2.872170  0.359834  -0.388220
H    -2.229466  1.036376  1.122615
H    -4.482450  0.813463  2.182782
H    -5.103842  -0.005904  0.738409
H    -4.534222  2.048352  -0.644767
H    -4.128702  2.922249  0.816527
H    -6.905340  1.685208  0.231874
H    -6.433863  3.344113  -0.196301
H    -6.584928  2.286822  2.590021
H    -7.670898  3.292640  1.844229
H    -6.134330  3.828878  2.162900
N    -4.000688  -3.157526  1.310174
C    -3.749125  -3.415909  2.727223
H    -4.613289  -3.805826  0.817596
H    -4.243739  -4.354689  2.993373
H    -4.164789  -2.630915  3.373505
H    -2.678926  -3.542698  2.940863
Ca    2.713463  -2.522957  -0.225962
