35
Energy: -36759.8220532 eV PBE+vdW (tier 2 basis)
C    -1.067961  -1.099821  -0.132026
C    -1.486324  -0.267997  1.036383
O    -1.866803  0.931556  0.851667
H    -0.272008  -0.572179  -0.676304
H    -1.912706  -1.193516  -0.829649
H    -0.719155  -2.102141  0.137038
N    -1.451867  -0.837065  2.251035
C    -1.706315  -0.340855  3.627119
C    -3.037044  0.411789  3.839194
O    -3.366184  1.453503  3.184685
H    -1.147267  -1.808319  2.235078
H    -1.820918  -1.275512  4.192704
C    -0.477480  0.351403  4.291077
C    0.076993  1.647065  3.683279
C    1.201963  2.305434  4.522369
C    2.522240  1.531485  4.544919
N    3.597140  2.297700  5.305974
H    0.306602  -0.420634  4.315940
H    -0.758922  0.525608  5.341945
H    -0.726291  2.395238  3.612201
H    0.438045  1.470803  2.658591
H    0.843207  2.458158  5.552947
H    1.385228  3.306789  4.103030
H    2.925183  1.370975  3.536847
H    2.444314  0.559287  5.046229
H    3.788694  3.217212  4.880076
H    3.329241  2.466738  6.287376
H    4.488925  1.778897  5.320358
N    -3.809923  -0.051330  4.807315
C    -5.071250  0.550119  5.253911
H    -3.529689  -0.910302  5.276563
H    -5.169970  0.392496  6.332772
H    -5.917896  0.068747  4.746677
H    -5.067932  1.621006  5.036468
Ca    -3.318901  2.393866  1.279534
