35
Energy: -36757.6014227 eV PBE+vdW (tier 2 basis)
C    -0.713255  1.661857  0.718045
C    -0.443911  0.518276  1.663780
O    0.669291  0.160213  1.996329
H    -1.583291  2.262222  1.013916
H    -0.866562  1.295894  -0.308418
H    0.174137  2.302451  0.702918
N    -1.548828  -0.167931  2.220160
C    -2.783124  -0.449992  1.510788
C    -4.001479  -0.023103  2.349125
O    -4.882034  0.786163  1.810107
H    -1.207176  -0.903657  2.837345
H    -2.814238  0.217896  0.639720
C    -2.899752  -1.910287  0.985176
C    -1.755137  -2.332528  0.024723
C    -0.495245  -2.908562  0.703578
C    0.658295  -3.281620  -0.227814
N    0.448613  -4.589338  -0.989626
H    -3.859022  -2.003705  0.454999
H    -2.956566  -2.615447  1.827912
H    -1.471654  -1.477742  -0.610263
H    -2.188666  -3.078938  -0.658902
H    -0.758180  -3.773608  1.334881
H    -0.049469  -2.167670  1.382989
H    1.582513  -3.426251  0.343784
H    0.848256  -2.515085  -0.989726
H    1.267422  -4.802771  -1.579667
H    -0.371178  -4.561155  -1.610896
H    0.325656  -5.385324  -0.346678
N    -4.195574  -0.390916  3.595540
C    -3.370229  -1.236045  4.470925
H    -5.014826  0.015224  4.048951
H    -2.921194  -2.061845  3.914208
H    -4.022970  -1.656562  5.242138
H    -2.591997  -0.628831  4.951523
Ca    -6.238584  2.108661  1.095334
