35
Energy: -36758.3383492 eV PBE+vdW (tier 2 basis)
C    0.070658  -0.129873  0.266829
C    0.065349  -0.642967  1.665212
O    1.193790  -0.940238  2.257601
H    1.092706  -0.001761  -0.098346
H    -0.458724  0.831455  0.192705
H    -0.454974  -0.827290  -0.404023
N    -1.063178  -0.806669  2.331034
C    -2.422224  -0.524472  1.816291
C    -2.785546  0.992343  1.699736
O    -3.334130  1.329246  0.655306
H    -0.984450  -1.140360  3.293274
H    -2.430710  -0.849216  0.769523
C    -3.473063  -1.336405  2.607975
C    -4.943543  -0.987015  2.290097
C    -5.399442  -1.300806  0.854077
C    -6.796131  -0.806697  0.487604
N    -7.924368  -1.576577  1.172956
H    -3.322359  -1.175655  3.686592
H    -3.292515  -2.406254  2.421812
H    -5.118698  0.078882  2.502821
H    -5.547003  -1.547293  3.021731
H    -5.309562  -2.378041  0.637463
H    -4.742768  -0.786349  0.136845
H    -6.981420  -0.917238  -0.587143
H    -6.944788  0.247401  0.754000
H    -8.844613  -1.223694  0.870005
H    -7.891341  -1.492356  2.197999
H    -7.893020  -2.579922  0.941079
N    -2.534150  1.847034  2.718845
C    -1.985622  1.596047  4.046222
H    -2.822572  2.801831  2.510516
H    -2.252824  2.437977  4.692701
H    -0.887700  1.523028  4.040269
H    -2.414984  0.697633  4.507169
Ca    3.126999  -1.327856  2.716922
