35
Energy: -36758.5439184 eV PBE+vdW (tier 2 basis)
C    -0.150471  0.541730  -0.022975
C    -0.617874  -0.834691  0.320199
O    -0.381626  -1.812139  -0.513386
H    0.940817  0.542546  -0.160689
H    -0.397215  1.281591  0.746010
H    -0.612742  0.866263  -0.967054
N    -1.259089  -1.029242  1.453189
C    -1.827374  -2.252441  2.061592
C    -3.172884  -1.803188  2.705277
O    -3.117563  -1.092148  3.725476
H    -1.373044  -0.199124  2.041225
H    -1.977079  -2.996734  1.268999
C    -0.887647  -2.764891  3.175358
C    -1.535817  -3.831305  4.083337
C    -1.062166  -3.807953  5.549773
C    -1.239936  -2.509443  6.336059
N    -2.672477  -2.004007  6.353690
H    -0.598214  -1.885471  3.767325
H    0.036981  -3.148044  2.722620
H    -1.334177  -4.834632  3.685244
H    -2.632945  -3.737874  4.057462
H    0.011766  -4.042150  5.604725
H    -1.561778  -4.628655  6.086493
H    -0.643075  -1.679600  5.938775
H    -0.941060  -2.660103  7.380035
H    -2.772617  -1.218110  7.010537
H    -3.327577  -2.735638  6.660095
H    -2.958937  -1.660748  5.401855
N    -4.301038  -2.195566  2.109097
C    -5.644366  -1.843727  2.579801
H    -4.237257  -2.801852  1.297003
H    -6.263808  -1.557514  1.723013
H    -5.568144  -1.000929  3.271621
H    -6.111225  -2.698835  3.085210
Ca    0.377034  -2.671421  -2.199274
