35
Energy: -36758.3287364 eV PBE+vdW (tier 2 basis)
C    -0.507239  1.055717  1.039974
C    0.008033  -0.028499  1.921831
O    1.243013  0.020878  2.346333
H    -1.219200  0.687246  0.294412
H    0.316757  1.557576  0.523891
H    -1.028816  1.807872  1.655510
N    -0.758198  -1.028828  2.314499
C    -2.212875  -1.203803  2.039158
C    -2.902386  -2.017908  3.164045
O    -4.024263  -1.663611  3.538229
H    -0.331191  -1.687215  2.968552
H    -2.663037  -0.205659  2.102585
C    -2.520108  -1.845691  0.648299
C    -3.682515  -1.189998  -0.131179
C    -5.026290  -0.993816  0.592815
C    -5.750646  -2.287624  0.986164
N    -6.531097  -2.076712  2.268200
H    -2.698729  -2.922100  0.784652
H    -1.620244  -1.784111  0.020145
H    -3.832129  -1.782534  -1.045668
H    -3.364478  -0.196506  -0.481541
H    -5.678929  -0.400507  -0.061912
H    -4.869296  -0.383347  1.494871
H    -5.064625  -3.115876  1.198982
H    -6.456393  -2.623883  0.218456
H    -7.192660  -1.291991  2.189224
H    -5.847660  -1.866883  3.026864
H    -7.075668  -2.909341  2.531348
N    -2.255247  -3.096075  3.654963
C    -2.840334  -3.951642  4.696526
H    -1.480759  -3.495586  3.131684
H    -3.540024  -4.680515  4.266466
H    -3.371707  -3.323397  5.417197
H    -2.035341  -4.488837  5.206557
Ca    3.170897  0.505355  2.771057
