35
Energy: -36757.9101901 eV PBE+vdW (tier 2 basis)
C    0.438625  -0.335097  -0.152685
C    0.343582  0.091010  1.285711
O    1.296094  0.584992  1.919502
H    1.107550  0.343832  -0.692913
H    -0.530574  -0.374567  -0.663422
H    0.871053  -1.346489  -0.207202
N    -0.858852  -0.099929  1.897468
C    -1.136274  0.181542  3.303469
C    -0.870331  1.644337  3.695303
O    -0.530575  1.911789  4.930713
H    -1.610488  -0.516000  1.354869
H    -2.236418  0.102495  3.391238
C    -0.572818  -0.862928  4.302751
C    0.959307  -1.032242  4.425760
C    1.556350  -2.150790  3.540955
C    3.074036  -2.067998  3.363503
N    3.470738  -1.149817  2.210828
H    -1.034552  -1.822553  4.027979
H    -1.008786  -0.632116  5.286975
H    1.191524  -1.293792  5.469000
H    1.457089  -0.075122  4.219686
H    1.070431  -2.193489  2.554578
H    1.337708  -3.124062  4.001816
H    3.568830  -1.679130  4.261708
H    3.512013  -3.047611  3.143319
H    3.486797  -1.672689  1.325712
H    4.416648  -0.766940  2.337968
H    2.786405  -0.356557  2.082422
N    -1.078230  2.665862  2.894538
C    -1.621213  2.738616  1.528024
H    -0.849085  3.572621  3.302952
H    -2.051817  3.737580  1.404815
H    -2.408631  1.996692  1.378189
H    -0.822039  2.608677  0.788269
Ca    -0.387647  2.360850  6.899351
