35
Energy: -36757.8281969 eV PBE+vdW (tier 2 basis)
C    -0.277835  0.872239  0.383012
C    -0.154819  -0.135251  1.490622
O    0.915829  -0.680541  1.762448
H    -1.294098  1.085708  0.036539
H    0.331293  0.556627  -0.470875
H    0.163816  1.813971  0.744584
N    -1.254124  -0.419927  2.304814
C    -2.633850  -0.564091  1.849051
C    -3.598909  -0.008801  2.914190
O    -4.578615  -0.741154  3.374893
H    -0.981764  -1.054122  3.057361
H    -2.761487  0.101823  0.979553
C    -2.965792  -2.004566  1.387528
C    -2.003145  -2.529330  0.293012
C    -0.751571  -3.271065  0.819405
C    0.423206  -3.252669  -0.175417
N    1.746712  -3.090505  0.546450
H    -3.989566  -2.004992  0.983848
H    -2.954992  -2.687474  2.252822
H    -1.700671  -1.686997  -0.348911
H    -2.565519  -3.199591  -0.369570
H    -1.012432  -4.308449  1.068732
H    -0.410793  -2.809943  1.755559
H    0.361449  -2.397604  -0.859639
H    0.486893  -4.163197  -0.781276
H    2.535182  -3.054439  -0.115100
H    1.933849  -3.865897  1.196513
H    1.724991  -2.195393  1.088798
N    -3.465938  1.212685  3.379556
C    -2.508760  2.260136  2.990130
H    -4.124987  1.479207  4.112156
H    -2.910553  3.217879  3.333805
H    -2.396444  2.295242  1.902651
H    -1.536027  2.081745  3.463092
Ca    -6.220855  -1.753279  4.004213
