35
Energy: -36758.2898357 eV PBE+vdW (tier 2 basis)
C    -0.947915  0.191372  -0.653077
C    -0.174635  0.202452  0.620336
O    1.120257  0.012666  0.599343
H    -1.590538  -0.702649  -0.701105
H    -0.276257  0.177651  -1.515402
H    -1.614425  1.061475  -0.732329
N    -0.770035  0.392782  1.783143
C    -2.225951  0.586222  1.983798
C    -2.762493  1.994833  1.579315
O    -3.813891  2.008262  0.947662
H    -0.169966  0.402811  2.609427
H    -2.728867  -0.077637  1.270354
C    -2.645381  0.153111  3.406783
C    -4.180561  0.052235  3.601342
C    -4.872218  1.348799  4.062136
C    -6.396815  1.339548  3.992856
N    -7.054887  0.427633  5.027423
H    -2.211826  0.825054  4.163592
H    -2.212986  -0.842321  3.584067
H    -4.347700  -0.745265  4.341099
H    -4.639317  -0.294946  2.662594
H    -4.582627  2.186472  3.413110
H    -4.541726  1.626156  5.076472
H    -6.764000  1.002683  3.015149
H    -6.804536  2.338497  4.186698
H    -8.082421  0.480420  4.960712
H    -6.799084  0.698704  5.987985
H    -6.794416  -0.560002  4.902459
N    -2.108246  3.120139  1.958547
C    -0.914444  3.288256  2.778227
H    -2.557715  3.968618  1.617832
H    -0.900939  4.314189  3.159974
H    0.013670  3.138618  2.206399
H    -0.920220  2.627148  3.654224
Ca    3.029805  -0.407995  0.074727
