35
Energy: -36760.0248293 eV PBE+vdW (tier 2 basis)
C    1.232357  0.916229  1.007744
C    0.613479  0.103689  2.091984
O    1.305430  -0.737543  2.747535
H    0.524493  1.573859  0.492832
H    1.710848  0.252579  0.274769
H    2.035233  1.527648  1.446919
N    -0.688811  0.281445  2.375940
C    -1.412730  -0.311699  3.515661
C    -1.703337  -1.810818  3.245693
O    -0.758631  -2.643088  3.439466
H    -1.188577  0.952692  1.798488
H    -0.694272  -0.344765  4.348944
C    -2.558926  0.613560  4.002516
C    -3.694512  1.012782  3.033575
C    -4.446924  2.311235  3.418057
C    -5.327283  2.194098  4.664219
N    -6.141725  3.463087  4.881537
H    -2.052185  1.529380  4.344750
H    -2.972445  0.147332  4.908562
H    -4.441373  0.208275  2.931788
H    -3.308966  1.183910  2.016795
H    -5.078356  2.587571  2.559485
H    -3.718685  3.127487  3.549254
H    -4.752515  2.046777  5.586719
H    -6.059475  1.381102  4.577145
H    -5.541536  4.291421  5.012077
H    -6.739882  3.386688  5.718771
H    -6.763576  3.660790  4.082459
N    -2.886680  -2.215924  2.829211
C    -3.239800  -3.614620  2.546978
H    -3.599873  -1.511619  2.666056
H    -2.857789  -3.913369  1.562365
H    -4.329346  -3.705227  2.551277
H    -2.815633  -4.265904  3.317333
Ca    1.388475  -2.717542  3.504089
