35
Energy: -36758.5101782 eV PBE+vdW (tier 2 basis)
C    0.234656  -0.222054  0.200162
C    -0.132125  -0.684618  1.562260
O    0.815924  -1.122098  2.353992
H    0.874149  0.669850  0.284473
H    -0.634312  0.006328  -0.423086
H    0.828609  -1.001928  -0.296998
N    -1.366153  -0.684469  2.033131
C    -2.652572  -0.161554  1.461424
C    -3.060261  -0.908520  0.154765
O    -2.785406  -0.419588  -0.955824
H    -1.449120  -1.030071  2.989997
H    -3.385044  -0.416910  2.240354
C    -2.634065  1.368299  1.293580
C    -4.024444  2.036418  1.266715
C    -4.925859  1.822513  0.036118
C    -4.376059  2.423174  -1.271870
N    -4.362581  1.400269  -2.390342
H    -2.054275  1.622579  0.394850
H    -2.089139  1.788536  2.150651
H    -3.859233  3.116456  1.393899
H    -4.590560  1.730686  2.159467
H    -5.898147  2.282111  0.254748
H    -5.145224  0.752549  -0.103374
H    -3.338228  2.761977  -1.173401
H    -4.972236  3.273112  -1.620952
H    -5.313209  1.081546  -2.620427
H    -3.793868  0.576286  -2.082153
H    -3.956650  1.785838  -3.253750
N    -3.715804  -2.062425  0.326453
C    -4.185248  -2.912097  -0.770505
H    -3.961058  -2.349100  1.270065
H    -4.084291  -3.962776  -0.479600
H    -3.579636  -2.718845  -1.660156
H    -5.241714  -2.711291  -0.993025
Ca    2.527105  -1.680090  3.288978
