35
Energy: -36758.5725299 eV PBE+vdW (tier 2 basis)
C    0.019781  -0.376093  0.424488
C    -0.087768  0.048682  1.848601
O    1.023654  0.205901  2.531763
H    -0.941879  -0.627410  -0.029327
H    0.680213  -1.250700  0.350801
H    0.480801  0.431605  -0.164660
N    -1.230408  0.282298  2.443085
C    -2.576295  0.395366  1.848204
C    -3.268229  1.417768  2.795047
O    -2.875976  1.460930  3.971800
H    -1.275479  0.623346  3.426958
H    -2.465918  0.815806  0.840729
C    -3.366579  -0.943289  1.743539
C    -4.285182  -1.380344  2.902658
C    -3.601267  -1.850988  4.197334
C    -4.476777  -2.709955  5.109077
N    -5.670389  -1.958489  5.694509
H    -2.655439  -1.750070  1.508952
H    -4.002371  -0.845844  0.852659
H    -4.887581  -2.209018  2.497337
H    -4.996640  -0.565224  3.114563
H    -3.189510  -0.998491  4.759593
H    -2.746778  -2.500280  3.949180
H    -3.912379  -3.081406  5.972399
H    -4.901575  -3.572139  4.579119
H    -6.321551  -1.638086  4.964548
H    -5.373906  -1.132694  6.234177
H    -6.207634  -2.564980  6.332433
N    -4.257283  2.146278  2.269356
C    -5.020852  3.150100  3.015346
H    -4.457109  2.051072  1.277347
H    -4.875319  4.139404  2.565667
H    -4.662566  3.166640  4.047739
H    -6.089524  2.905671  2.993847
Ca    2.900074  0.557649  3.169961
