35
Energy: -36759.2059303 eV PBE+vdW (tier 2 basis)
C    -0.253207  0.661968  0.363675
C    -0.146564  -0.396899  1.404337
O    0.936131  -1.047010  1.551808
H    -0.083517  1.634462  0.856784
H    0.525755  0.539184  -0.394239
H    -1.239263  0.716234  -0.110585
N    -1.180271  -0.678732  2.246422
C    -2.552481  -0.951699  1.787650
C    -2.456503  -2.072108  0.696790
O    -1.361362  -2.707902  0.534881
H    -0.883620  -1.275162  3.019338
H    -3.029263  -1.447076  2.648451
C    -3.406445  0.300950  1.423056
C    -4.792118  0.404209  2.106839
C    -4.737495  0.871702  3.573728
C    -6.080363  0.975197  4.302249
N    -6.899758  2.204686  3.918187
H    -3.542500  0.357769  0.334167
H    -2.817238  1.186930  1.693410
H    -5.329945  -0.557255  2.049313
H    -5.382235  1.110975  1.503045
H    -4.198956  1.830901  3.648035
H    -4.145327  0.165841  4.176873
H    -5.927995  1.059068  5.384663
H    -6.729357  0.110004  4.116374
H    -7.778665  2.237844  4.458244
H    -7.160369  2.217990  2.922393
H    -6.391882  3.079078  4.119337
N    -3.527779  -2.375983  -0.007002
C    -3.600591  -3.455720  -1.004064
H    -4.372423  -1.831741  0.146384
H    -4.634631  -3.536323  -1.348665
H    -3.295019  -4.406453  -0.553172
H    -2.954376  -3.226642  -1.859908
Ca    0.774951  -3.054717  0.785621
