35
Energy: -36758.3347728 eV PBE+vdW (tier 2 basis)
C    0.224523  0.784919  0.172004
C    -0.123761  -0.136331  1.298264
O    0.734699  -0.645291  2.039457
H    0.799921  1.628731  0.577263
H    -0.643265  1.167013  -0.376520
H    0.894617  0.263175  -0.524186
N    -1.455183  -0.417813  1.506727
C    -1.914648  -1.142329  2.692607
C    -1.612844  -2.656165  2.532586
O    -2.533984  -3.578518  2.449357
H    -2.145932  -0.080670  0.843277
H    -1.245853  -0.835779  3.516051
C    -3.361274  -0.789209  3.071725
C    -3.517703  0.475653  3.950149
C    -3.182160  1.822456  3.284510
C    -3.217806  3.041629  4.207726
N    -4.623414  3.463711  4.629645
H    -3.779159  -1.627146  3.646201
H    -3.980739  -0.711340  2.163832
H    -2.898332  0.352715  4.853183
H    -4.562853  0.476643  4.299323
H    -3.825113  1.998639  2.405985
H    -2.153149  1.806891  2.896557
H    -2.663710  2.872713  5.139903
H    -2.790042  3.920382  3.711030
H    -5.211122  3.698436  3.816312
H    -4.586249  4.303898  5.227186
H    -5.110679  2.734134  5.167647
N    -0.346035  -2.967437  2.485983
C    0.179965  -4.313261  2.314162
H    0.299070  -2.104115  2.459030
H    1.273578  -4.269953  2.315357
H    -0.133563  -4.742427  1.348633
H    -0.124245  -4.961372  3.151445
Ca    -3.320531  -5.430173  2.240470
