35
Energy: -36758.6619639 eV PBE+vdW (tier 2 basis)
C    -0.518931  -0.942091  -0.366259
C    0.375754  -0.547980  0.752872
O    1.457104  -1.249560  0.973345
H    -1.538599  -0.562750  -0.251218
H    -0.553795  -2.033978  -0.454479
H    -0.109024  -0.530762  -1.302732
N    0.122370  0.477494  1.538569
C    -0.896523  1.530869  1.325720
C    -0.629621  2.158537  -0.082547
O    0.516423  2.181218  -0.520669
H    0.834451  0.684081  2.240094
H    -1.890756  1.059772  1.373650
C    -0.748435  2.556640  2.472244
C    -1.814809  3.667177  2.515129
C    -1.692654  4.491534  3.811894
C    -2.784435  5.527588  4.072622
N    -2.613198  6.815862  3.270317
H    0.253265  3.010674  2.400058
H    -0.789523  2.000554  3.422971
H    -2.820128  3.217333  2.473048
H    -1.713709  4.307481  1.624683
H    -0.700322  4.967260  3.881886
H    -1.742401  3.808110  4.673293
H    -2.778964  5.842380  5.122765
H    -3.788037  5.153233  3.834212
H    -3.361481  7.489437  3.494109
H    -2.643040  6.655155  2.254726
H    -1.717082  7.276494  3.486651
N    -1.720260  2.650492  -0.706488
C    -1.662000  3.299429  -2.018105
H    -2.635532  2.487947  -0.298869
H    -2.258530  4.218322  -2.008126
H    -2.050647  2.634220  -2.799740
H    -0.618982  3.541728  -2.239172
Ca    3.069317  -2.452909  0.844166
