35
Energy: -36759.7367546 eV PBE+vdW (tier 2 basis)
C    0.752055  1.974150  1.704335
C    -0.120712  0.820228  2.080010
O    -0.269834  -0.145101  1.266421
H    0.782768  2.772842  2.452598
H    0.400642  2.386394  0.747861
H    1.775512  1.612453  1.529477
N    -0.707029  0.854875  3.287834
C    -1.690167  -0.001969  3.994534
C    -1.376942  -1.506522  4.047571
O    -1.058884  -2.193094  3.020675
H    -0.465140  1.685157  3.824645
H    -1.593110  0.339852  5.032419
C    -3.176881  0.302261  3.632011
C    -3.659932  0.035887  2.199555
C    -5.185286  0.224276  1.999461
C    -5.668973  1.674246  2.077864
N    -7.156020  1.776634  1.761559
H    -3.328554  1.359424  3.897224
H    -3.790886  -0.275169  4.341630
H    -3.443563  -1.007109  1.924684
H    -3.114668  0.669608  1.483767
H    -5.727202  -0.388910  2.737376
H    -5.440825  -0.181256  1.008274
H    -5.162410  2.319219  1.348654
H    -5.549224  2.116536  3.074175
H    -7.484126  2.753662  1.810438
H    -7.730005  1.230914  2.422012
H    -7.372156  1.431771  0.813922
N    -1.500143  -2.118848  5.214795
C    -1.814888  -1.567114  6.542053
H    -1.340848  -3.127163  5.173188
H    -1.091208  -0.794847  6.830717
H    -1.742507  -2.383274  7.266448
H    -2.835625  -1.167901  6.578223
Ca    -0.182565  -2.244665  1.089642
