35
Energy: -36757.8388509 eV PBE+vdW (tier 2 basis)
C    -0.190775  0.198766  -0.035272
C    -0.066314  0.214136  1.460423
O    1.022582  0.313292  2.029739
H    -1.183422  0.482547  -0.401029
H    0.075026  -0.794033  -0.428388
H    0.550917  0.898629  -0.439307
N    -1.220750  0.156189  2.242033
C    -2.319652  -0.758407  1.957140
C    -3.708847  -0.110236  2.005555
O    -4.586903  -0.477546  1.105172
H    -0.966224  0.221891  3.226657
H    -2.209117  -1.083171  0.914058
C    -2.254749  -2.029751  2.860196
C    -0.853591  -2.694748  2.823320
C    0.035930  -2.407687  4.054193
C    1.522873  -2.753936  3.853763
N    2.374218  -1.517662  3.616813
H    -3.021227  -2.739376  2.519055
H    -2.527314  -1.767378  3.894062
H    -0.331728  -2.404471  1.898249
H    -0.988810  -3.781760  2.747581
H    -0.340183  -2.991341  4.905000
H    -0.043777  -1.356791  4.375278
H    1.675942  -3.411004  2.989228
H    1.946617  -3.257748  4.728954
H    3.292300  -1.765582  3.223330
H    2.557971  -1.023043  4.499934
H    1.907118  -0.825374  2.972172
N    -4.079123  0.772665  2.903393
C    -3.334734  1.336011  4.042870
H    -5.028605  1.131775  2.795530
H    -4.063882  1.793979  4.717732
H    -2.633910  2.105505  3.697971
H    -2.810217  0.548442  4.592539
Ca    -6.016845  -0.977752  -0.250694
