35
Energy: -36759.940045 eV PBE+vdW (tier 2 basis)
C    0.230882  0.696196  0.209722
C    -0.111610  0.162433  1.559099
O    0.708782  -0.587247  2.178671
H    1.184657  1.239399  0.260870
H    -0.535616  1.352922  -0.214336
H    0.391481  -0.153679  -0.470692
N    -1.298526  0.493327  2.092681
C    -1.960479  0.006079  3.329010
C    -1.161630  0.393000  4.595978
O    -0.075394  -0.196598  4.897538
H    -1.867421  1.111670  1.518975
H    -2.899431  0.575566  3.354807
C    -2.306480  -1.504238  3.270086
C    -3.494748  -1.952699  4.153777
C    -4.878803  -1.646247  3.547692
C    -6.093570  -2.070382  4.378447
N    -6.401261  -3.563718  4.305342
H    -1.417298  -2.087573  3.543150
H    -2.517158  -1.749253  2.219242
H    -3.419089  -1.507683  5.159344
H    -3.379052  -3.037096  4.303812
H    -4.955917  -2.074052  2.534379
H    -5.003912  -0.561501  3.406794
H    -7.002141  -1.573723  4.018222
H    -5.978393  -1.838118  5.444741
H    -7.241333  -3.789026  4.861015
H    -5.636151  -4.148580  4.668615
H    -6.592756  -3.865361  3.338180
N    -1.662325  1.344503  5.364992
C    -1.055325  1.843233  6.604899
H    -2.513739  1.808319  5.055940
H    -0.410360  2.705565  6.389745
H    -0.467860  1.048759  7.072323
H    -1.853969  2.159590  7.283036
Ca    1.683944  -1.024788  3.991904
