35
Energy: -36757.9083549 eV PBE+vdW (tier 2 basis)
C    -1.514993  1.369315  0.456594
C    -1.390842  1.033275  1.914668
O    -1.561264  1.866238  2.796797
H    -1.681116  0.509086  -0.200813
H    -0.567115  1.843587  0.152033
H    -2.298784  2.117846  0.300232
N    -0.951754  -0.267723  2.274981
C    -1.741693  -1.463911  1.928399
C    -1.139309  -2.194219  0.719372
O    -1.706475  -3.256181  0.224755
H    -0.682763  -0.261173  3.260039
H    -1.572025  -2.180668  2.753019
C    -3.265349  -1.176268  1.885974
C    -3.780949  -0.775513  3.291229
C    -5.053489  0.091507  3.326844
C    -4.930311  1.572964  2.965119
N    -4.075232  2.371277  3.937757
H    -3.811480  -2.063584  1.537011
H    -3.460613  -0.390013  1.142747
H    -2.981310  -0.270255  3.852789
H    -3.987019  -1.692774  3.860241
H    -5.499720  0.011863  4.330400
H    -5.816864  -0.322295  2.650567
H    -4.489474  1.746037  1.975436
H    -5.923411  2.037070  2.971873
H    -4.230654  3.381648  3.813048
H    -3.058137  2.201580  3.768169
H    -4.300779  2.152092  4.917846
N    0.006196  -1.761774  0.261254
C    0.810407  -2.341332  -0.813495
H    0.364104  -0.950499  0.782779
H    0.195416  -2.505356  -1.707186
H    1.274039  -3.281602  -0.484216
H    1.608369  -1.638348  -1.069479
Ca    -2.287709  -5.030622  -0.574424
