35
Energy: -36758.6323605 eV PBE+vdW (tier 2 basis)
C    0.395589  0.007004  0.429759
C    0.251749  0.790751  1.688210
O    1.331411  1.343595  2.197266
H    0.716883  0.674442  -0.383900
H    -0.525934  -0.494639  0.124450
H    1.182061  -0.749711  0.556652
N    -0.885582  0.964963  2.306992
C    -2.258065  0.693316  1.842696
C    -3.048766  1.826318  2.569352
O    -2.505397  2.346352  3.558193
H    -0.977480  1.596027  3.145659
H    -2.292593  0.833764  0.755321
C    -2.799553  -0.723569  2.177682
C    -3.400560  -0.944122  3.579998
C    -3.998959  -2.361629  3.694047
C    -5.031260  -2.591898  4.794443
N    -4.437459  -2.661058  6.199883
H    -1.997915  -1.453302  1.987694
H    -3.577927  -0.938836  1.431244
H    -4.196210  -0.201924  3.750798
H    -2.638442  -0.766538  4.355506
H    -3.205898  -3.124652  3.753700
H    -4.542181  -2.593794  2.764317
H    -5.544428  -3.550338  4.651455
H    -5.789628  -1.799494  4.829043
H    -5.173244  -2.842723  6.899374
H    -3.970408  -1.785241  6.470338
H    -3.749229  -3.423515  6.279770
N    -4.261322  2.166780  2.120715
C    -4.996930  1.649513  0.967227
H    -4.708777  2.902508  2.666550
H    -5.640268  2.445252  0.578627
H    -5.631926  0.795448  1.239240
H    -4.317175  1.354438  0.160317
Ca    3.044985  2.292265  2.634976
