35
Energy: -36758.4645037 eV PBE+vdW (tier 2 basis)
C    2.735105  -2.051077  1.393125
C    1.824302  -1.923973  2.571142
O    2.234436  -2.381131  3.732826
H    2.295617  -1.641581  0.477836
H    2.968433  -3.111141  1.214006
H    3.679358  -1.523222  1.590470
N    0.652298  -1.371832  2.409719
C    -0.509931  -1.214009  3.293697
C    -1.680564  -1.516162  2.300004
O    -1.442985  -1.337639  1.097508
H    0.301355  -1.197268  1.434611
H    -0.456058  -1.938190  4.115052
C    -0.636863  0.229881  3.863796
C    -0.735189  1.339296  2.799921
C    -0.974939  2.766586  3.343409
C    -2.439846  3.061964  3.664272
N    -2.647303  4.537987  3.984484
H    0.224161  0.418095  4.523167
H    -1.525307  0.225850  4.512763
H    -1.515418  1.097469  2.062967
H    0.203044  1.372266  2.228719
H    -0.638667  3.471653  2.567343
H    -0.347266  2.953199  4.229513
H    -2.815138  2.510965  4.535177
H    -3.093790  2.848948  2.809194
H    -3.635472  4.745070  4.193799
H    -2.372234  5.137196  3.191565
H    -2.091933  4.837763  4.799104
N    -2.877616  -1.881850  2.778234
C    -3.237218  -2.291009  4.135285
H    -3.566919  -2.056465  2.046788
H    -4.313283  -2.142616  4.270663
H    -2.723898  -1.682679  4.887933
H    -3.014417  -3.352689  4.310387
Ca    3.449585  -3.430936  4.958055
