35
Energy: -36758.3409042 eV PBE+vdW (tier 2 basis)
C    0.460962  0.750687  1.102556
C    -0.447837  1.307322  2.136854
O    -0.071275  2.374101  2.796510
H    1.454615  0.587652  1.543573
H    0.580860  1.489999  0.296084
H    0.107976  -0.192432  0.677073
N    -1.625130  0.787045  2.433364
C    -2.382734  -0.347029  1.813125
C    -1.594719  -1.689529  1.895702
O    -1.082801  -2.170647  0.868347
H    -2.138882  1.286131  3.160712
H    -3.264353  -0.435988  2.463137
C    -2.859009  -0.032302  0.382214
C    -4.181743  -0.727336  -0.013188
C    -4.280256  -2.266718  -0.025222
C    -3.798908  -3.026905  -1.258478
N    -2.292279  -2.952998  -1.498599
H    -2.043493  -0.253313  -0.320029
H    -3.040317  1.049953  0.318149
H    -4.471402  -0.337952  -1.001168
H    -4.962031  -0.359281  0.669844
H    -5.350234  -2.516712  0.033751
H    -3.846315  -2.718922  0.879881
H    -4.282843  -2.669420  -2.175364
H    -4.036872  -4.090900  -1.148991
H    -1.942724  -3.825106  -1.915781
H    -1.771335  -2.768849  -0.603498
H    -2.053726  -2.198920  -2.152265
N    -1.511786  -2.294998  3.086981
C    -2.093520  -1.889328  4.367707
H    -0.993656  -3.173381  3.069067
H    -1.921450  -2.693555  5.088760
H    -3.178720  -1.741635  4.292426
H    -1.618363  -0.981527  4.762859
Ca    0.831656  4.027434  3.556753
