35
Energy: -36758.1258964 eV PBE+vdW (tier 2 basis)
C    0.519213  -0.184380  0.038856
C    0.226170  -0.285561  1.498687
O    1.198782  -0.541983  2.328698
H    1.250832  0.617094  -0.141237
H    -0.371224  0.025961  -0.563619
H    0.959710  -1.126850  -0.318833
N    -1.012702  -0.120094  1.921742
C    -1.550195  -0.158953  3.296892
C    -2.883542  -0.971492  3.335644
O    -3.903500  -0.462987  3.817811
H    -1.686768  0.094284  1.186591
H    -0.819528  -0.715609  3.901451
C    -1.693196  1.259295  3.904135
C    -2.262788  2.403539  3.037472
C    -3.731072  2.409309  2.565031
C    -4.811096  2.853057  3.552597
N    -5.103482  1.838778  4.656141
H    -2.249944  1.130561  4.841671
H    -0.683558  1.572289  4.208458
H    -1.631703  2.505657  2.140206
H    -2.074329  3.332847  3.596707
H    -4.027702  1.454598  2.106734
H    -3.797229  3.149559  1.753552
H    -4.556382  3.800973  4.041316
H    -5.754152  3.001196  3.015499
H    -4.698663  0.900909  4.400042
H    -4.702470  2.124241  5.556402
H    -6.114503  1.733076  4.806613
N    -2.888958  -2.232646  2.870277
C    -1.786874  -3.069576  2.407581
H    -3.802997  -2.680567  2.942082
H    -1.608341  -2.958050  1.328898
H    -2.045679  -4.116038  2.598831
H    -0.866701  -2.853723  2.965221
Ca    3.115995  -0.859692  2.961337
