35
Energy: -36759.3079355 eV PBE+vdW (tier 2 basis)
C    0.074487  -1.838667  0.227159
C    0.275683  -0.777483  1.256320
O    1.419833  -0.594362  1.778637
H    -0.433757  -2.713112  0.665947
H    1.049298  -2.170057  -0.144359
H    -0.536995  -1.483617  -0.609334
N    -0.753493  0.007373  1.673280
C    -2.063816  -0.525969  2.080980
C    -1.788785  -1.624432  3.162856
O    -0.625256  -1.725055  3.679773
H    -0.435940  0.792052  2.242909
H    -2.529012  0.303895  2.637596
C    -3.030251  -0.884028  0.911834
C    -4.496383  -0.486209  1.188491
C    -5.507339  -0.785589  0.055876
C    -5.482513  0.226968  -1.091516
N    -6.636992  -0.007942  -2.057638
H    -2.960766  -1.952231  0.659512
H    -2.660142  -0.331112  0.038071
H    -4.541920  0.584015  1.445718
H    -4.877047  -1.007221  2.080998
H    -6.510539  -0.775889  0.509339
H    -5.350900  -1.804140  -0.333472
H    -4.570274  0.175771  -1.698106
H    -5.601864  1.256326  -0.730244
H    -6.603019  -0.946293  -2.483475
H    -6.626807  0.677151  -2.828945
H    -7.550976  0.079953  -1.587387
N    -2.774114  -2.401789  3.562381
C    -2.670071  -3.407211  4.631432
H    -3.684356  -2.280665  3.126653
H    -1.942665  -4.180005  4.357029
H    -3.651141  -3.870014  4.764549
H    -2.366377  -2.930206  5.570530
Ca    1.512426  -1.327887  3.805811
