35
Energy: -36759.4045514 eV PBE+vdW (tier 2 basis)
C    0.460882  -0.296715  0.236568
C    0.110165  0.805725  1.172220
O    0.757483  1.899066  1.158769
H    1.546414  -0.463156  0.317029
H    0.283577  0.002092  -0.807314
H    -0.060183  -1.235457  0.443105
N    -0.897934  0.661342  2.078253
C    -2.239316  0.227764  1.676313
C    -2.836542  1.377083  0.783128
O    -2.145109  2.426606  0.551821
H    -0.915658  1.424725  2.758198
H    -2.137924  -0.652726  1.022774
C    -3.128352  -0.134332  2.887263
C    -2.853699  -1.495073  3.572276
C    -1.714690  -1.517506  4.607137
C    -1.456714  -2.871476  5.273565
N    -2.522631  -3.278281  6.288433
H    -4.170306  -0.151065  2.540474
H    -3.090005  0.686590  3.622120
H    -2.673875  -2.263682  2.803645
H    -3.801583  -1.778168  4.056396
H    -1.879583  -0.749531  5.381080
H    -0.760095  -1.252537  4.129284
H    -0.515482  -2.855675  5.835374
H    -1.406936  -3.692511  4.547017
H    -2.608777  -2.588733  7.049789
H    -2.280500  -4.180722  6.726495
H    -3.453798  -3.392900  5.864633
N    -4.034000  1.219730  0.260520
C    -4.713054  2.191353  -0.610945
H    -4.527981  0.349422  0.446113
H    -5.759983  1.892076  -0.708189
H    -4.249235  2.200183  -1.605338
H    -4.662647  3.191133  -0.167453
Ca    -0.341516  3.617945  0.442055
