35
Energy: -36758.2980254 eV PBE+vdW (tier 2 basis)
C    0.901660  -0.162503  0.308946
C    0.550135  0.031028  1.756025
O    1.406558  0.121508  2.649164
H    1.702917  0.536473  0.039364
H    0.060125  -0.034447  -0.380842
H    1.304515  -1.177070  0.173130
N    -0.795142  0.105997  2.037693
C    -1.478342  0.114540  3.333605
C    -2.169358  1.460138  3.618518
O    -3.427641  1.433402  3.987184
H    -1.404785  -0.015317  1.233942
H    -2.315307  -0.594811  3.235357
C    -0.657022  -0.331025  4.575907
C    -0.140519  -1.777366  4.472866
C    0.934924  -2.150739  5.511568
C    2.262986  -1.393725  5.490051
N    3.012940  -1.524713  4.177281
H    -1.326082  -0.246811  5.446905
H    0.163652  0.373778  4.742264
H    0.234781  -1.973144  3.459500
H    -0.980585  -2.473974  4.608133
H    1.135442  -3.229736  5.422911
H    0.537333  -2.020191  6.529653
H    2.922989  -1.782442  6.274409
H    2.148345  -0.315796  5.655832
H    3.100226  -2.507574  3.886278
H    3.968005  -1.151573  4.263970
H    2.523202  -0.978172  3.424395
N    -1.576399  2.625401  3.523208
C    -0.188959  2.956237  3.168202
H    -2.169719  3.434355  3.716788
H    0.128685  3.787667  3.807141
H    -0.148383  3.281006  2.120164
H    0.475402  2.102969  3.319831
Ca    -5.388861  1.430179  4.511275
