35
Energy: -36758.3429363 eV PBE+vdW (tier 2 basis)
C    0.556654  -0.782347  0.106042
C    0.119635  -0.309430  1.457191
O    0.851866  0.422792  2.174347
H    1.497893  -1.341254  0.201810
H    0.776373  0.092159  -0.522074
H    -0.174547  -1.418277  -0.403583
N    -1.119147  -0.678972  1.871252
C    -1.748880  -0.497986  3.190450
C    -1.957593  0.963300  3.607222
O    -3.082903  1.271670  4.199018
H    -1.655706  -1.241065  1.216111
H    -2.776693  -0.852583  3.038616
C    -1.176969  -1.416707  4.331772
C    0.338674  -1.647822  4.453999
C    1.152411  -0.533748  5.130439
C    2.668137  -0.687426  5.035561
N    3.171837  -0.594263  3.591356
H    -1.640743  -2.397984  4.163681
H    -1.585414  -1.057383  5.289969
H    0.733489  -1.895426  3.457320
H    0.460679  -2.570976  5.039950
H    0.920038  -0.513368  6.205840
H    0.882063  0.457766  4.743642
H    3.021208  -1.647330  5.430909
H    3.172144  0.111409  5.590149
H    2.495133  -0.077868  2.983240
H    4.085365  -0.123539  3.546672
H    3.303470  -1.525924  3.178807
N    -1.045866  1.864998  3.377092
C    -1.140743  3.289862  3.692747
H    -0.174321  1.477449  2.922204
H    -2.006000  3.740545  3.189100
H    -1.212390  3.445690  4.777308
H    -0.237345  3.785409  3.327039
Ca    -4.865268  1.834555  4.979338
