35
Energy: -36758.3385417 eV PBE+vdW (tier 2 basis)
C    0.410834  1.953739  1.183593
C    0.391771  0.748599  2.058833
O    1.417891  0.481250  2.826410
H    -0.451027  2.606535  1.387241
H    0.338143  1.667408  0.122858
H    1.330850  2.525971  1.326671
N    -0.647969  -0.065252  2.081217
C    -1.877667  0.092786  1.271460
C    -2.832462  1.238434  1.743486
O    -3.295685  1.950672  0.861055
H    -0.598232  -0.855580  2.725928
H    -1.557512  0.437827  0.280600
C    -2.617008  -1.251329  1.099504
C    -3.734471  -1.164402  0.039435
C    -4.485902  -2.496172  -0.127343
C    -5.414182  -2.584872  -1.336191
N    -6.657463  -1.705427  -1.219731
H    -3.037273  -1.583663  2.061506
H    -1.886473  -2.013602  0.785745
H    -3.286364  -0.871290  -0.923171
H    -4.426046  -0.352491  0.312807
H    -5.039288  -2.755000  0.790197
H    -3.763845  -3.315061  -0.270562
H    -5.790567  -3.606174  -1.467484
H    -4.918121  -2.278979  -2.265986
H    -7.264511  -1.819019  -2.045418
H    -6.423973  -0.705273  -1.150513
H    -7.220200  -1.953987  -0.393307
N    -3.141343  1.381639  3.056424
C    -2.754842  0.583812  4.213139
H    -3.772880  2.163065  3.224851
H    -3.465913  0.783007  5.021290
H    -1.752652  0.841883  4.587642
H    -2.805788  -0.493433  4.008676
Ca    3.224930  0.457666  3.737559
