35
Energy: -36758.6019249 eV PBE+vdW (tier 2 basis)
C    0.852484  0.408822  0.180336
C    0.146883  1.169405  1.253704
O    0.000515  2.462534  1.124300
H    1.875798  0.794814  0.062647
H    0.328522  0.541362  -0.777452
H    0.916024  -0.663472  0.392290
N    -0.305560  0.527294  2.305452
C    -0.990654  1.017035  3.512720
C    -0.559423  0.015711  4.612275
O    -0.450022  -1.186581  4.288496
H    -0.124055  -0.484144  2.367561
H    -0.635535  2.033420  3.726349
C    -2.536873  1.028659  3.338450
C    -3.224818  -0.347526  3.232105
C    -3.690408  -0.952635  4.578100
C    -3.795522  -2.477390  4.572329
N    -2.449340  -3.132869  4.877900
H    -2.751000  1.619587  2.436520
H    -2.957491  1.602050  4.177963
H    -2.568813  -1.051829  2.698040
H    -4.107674  -0.237953  2.588873
H    -4.686208  -0.558450  4.821942
H    -3.050942  -0.635889  5.417329
H    -4.122175  -2.860075  3.598039
H    -4.497383  -2.845986  5.328089
H    -2.369855  -4.063227  4.447093
H    -2.336006  -3.267537  5.890700
H    -1.646399  -2.535164  4.564144
N    -0.369992  0.499677  5.838918
C    0.005166  -0.314172  6.998317
H    -0.480452  1.498657  5.989590
H    0.736947  0.234956  7.599785
H    0.456184  -1.247383  6.649403
H    -0.871378  -0.528446  7.624272
Ca    0.203893  4.301209  0.278337
