35
Energy: -36757.9369258 eV PBE+vdW (tier 2 basis)
C    1.227440  -1.164216  0.253002
C    0.815643  -0.782122  1.649835
O    1.599156  -0.730693  2.594945
H    0.486319  -0.924368  -0.517975
H    1.418815  -2.246811  0.220229
H    2.175541  -0.667912  0.015841
N    -0.538278  -0.509697  1.808672
C    -1.273740  -0.219913  3.034028
C    -1.601259  1.287057  3.169600
O    -2.869382  1.622996  3.269304
H    -1.104890  -0.600159  0.971026
H    -2.267689  -0.674241  2.900153
C    -0.724258  -0.768168  4.385257
C    -0.848181  -2.294647  4.597652
C    0.158260  -3.236268  3.906668
C    1.604366  -3.206731  4.404328
N    1.813803  -4.074587  5.645042
H    -1.337646  -0.292372  5.166813
H    0.301872  -0.422643  4.542351
H    -1.857663  -2.618514  4.301056
H    -0.820091  -2.456835  5.687765
H    0.195365  -3.036954  2.829717
H    -0.228209  -4.266086  3.978477
H    1.953767  -2.201478  4.663297
H    2.290361  -3.610652  3.651628
H    1.593621  -5.063127  5.453296
H    1.228392  -3.778767  6.437993
H    2.794610  -4.038919  5.960625
N    -0.716467  2.252539  3.187959
C    0.749518  2.216304  3.115749
H    -1.109042  3.193516  3.256688
H    1.142811  2.840035  3.927305
H    1.066259  2.647177  2.156802
H    1.130411  1.195344  3.203299
Ca    -4.800510  2.212598  3.362388
