35
Energy: -36758.4394651 eV PBE+vdW (tier 2 basis)
C    1.365387  -2.188871  0.681562
C    0.584033  -2.136485  1.952542
O    0.954610  -2.885581  2.958035
H    1.351165  -3.212419  0.278585
H    2.413169  -1.916471  0.874613
H    0.970428  -1.516652  -0.087206
N    -0.460848  -1.345609  2.032470
C    -1.429210  -1.132644  3.115893
C    -2.757382  -0.791226  2.388629
O    -2.706125  -0.112745  1.343243
H    -0.729272  -0.820441  1.188826
H    -1.533478  -2.072483  3.674003
C    -1.021324  -0.001043  4.112376
C    -0.284857  1.254920  3.600590
C    -0.897164  2.114186  2.478918
C    -2.300493  2.670376  2.756654
N    -3.099805  2.724129  1.469079
H    -0.372612  -0.454385  4.875079
H    -1.939279  0.273447  4.653516
H    0.723979  0.971310  3.265355
H    -0.117326  1.883592  4.487742
H    -0.929615  1.531120  1.548459
H    -0.210574  2.950409  2.288611
H    -2.278914  3.682368  3.176000
H    -2.886876  2.039072  3.434616
H    -2.633001  3.297572  0.752532
H    -3.194352  1.748396  1.110376
H    -4.038001  3.123000  1.611600
N    -3.879295  -1.229956  2.961553
C    -5.224931  -0.984249  2.434160
H    -3.809476  -1.781173  3.812297
H    -5.718125  -0.172116  2.984254
H    -5.823687  -1.894418  2.543643
H    -5.152199  -0.728901  1.373299
Ca    2.034893  -4.296831  3.950740
