35
Energy: -36759.3599017 eV PBE+vdW (tier 2 basis)
C    -1.000983  0.414896  0.570008
C    -0.632724  -0.257401  1.850271
O    0.588109  -0.392493  2.175814
H    -1.867824  1.072724  0.690788
H    -1.245158  -0.332738  -0.202459
H    -0.144652  0.994918  0.210528
N    -1.582540  -0.745155  2.691703
C    -2.684722  -1.622709  2.257503
C    -2.044952  -2.813497  1.466137
O    -0.777509  -2.975014  1.482419
H    -1.192753  -1.007036  3.597604
H    -3.047814  -2.077160  3.194042
C    -3.911783  -0.926038  1.618578
C    -4.487541  0.165732  2.545450
C    -5.943475  0.609699  2.275642
C    -6.132593  1.534826  1.073329
N    -7.556482  2.077179  1.024076
H    -4.684249  -1.697686  1.471616
H    -3.670009  -0.538159  0.619896
H    -3.825108  1.044404  2.552391
H    -4.475717  -0.214879  3.577515
H    -6.281793  1.138838  3.180371
H    -6.591965  -0.275431  2.175505
H    -5.968390  1.036653  0.109931
H    -5.481002  2.416306  1.126811
H    -7.695430  2.705944  0.218341
H    -7.786391  2.616271  1.873076
H    -8.255057  1.322815  0.946229
N    -2.828123  -3.670384  0.845258
C    -2.365938  -4.886768  0.158525
H    -3.831342  -3.507898  0.872711
H    -1.897369  -5.571541  0.875521
H    -1.649055  -4.627775  -0.628725
H    -3.232754  -5.376861  -0.291841
Ca    1.273704  -2.428007  1.942679
