35
Energy: -36758.7166971 eV PBE+vdW (tier 2 basis)
C    0.116966  -0.716262  0.714529
C    0.130961  -0.056996  2.049671
O    1.121807  -0.338250  2.866470
H    1.027456  -0.445036  0.160484
H    -0.752240  -0.451316  0.107712
H    0.131002  -1.807573  0.846738
N    -0.783774  0.787496  2.449678
C    -1.869057  1.438763  1.692100
C    -1.990213  2.802589  2.435017
O    -1.625546  2.839413  3.620332
H    -0.712185  1.277813  3.371801
H    -1.535380  1.592059  0.657253
C    -3.194979  0.633549  1.665492
C    -4.006686  0.480841  2.972299
C    -4.932441  1.665734  3.310126
C    -5.870164  1.454020  4.498047
N    -7.070801  0.566906  4.172786
H    -2.954944  -0.368392  1.281469
H    -3.825937  1.095156  0.890876
H    -3.338207  0.288420  3.825653
H    -4.601991  -0.438192  2.848556
H    -5.519225  1.963272  2.424981
H    -4.334807  2.547927  3.576651
H    -6.299018  2.404379  4.836450
H    -5.368366  0.982203  5.352262
H    -7.682378  0.457913  4.995844
H    -6.793412  -0.377960  3.873935
H    -7.646078  0.973538  3.420581
N    -2.511798  3.820984  1.744092
C    -2.702206  5.165843  2.294556
H    -2.718912  3.684997  0.758534
H    -3.747490  5.475418  2.178045
H    -2.059480  5.882099  1.768862
H    -2.434736  5.151266  3.354257
Ca    2.834462  -0.781407  3.818901
