35
Energy: -36757.9646673 eV PBE+vdW (tier 2 basis)
C    0.332970  -0.657779  0.289743
C    -0.004919  -0.718369  1.749286
O    0.673561  -1.302089  2.593243
H    1.283582  -0.121333  0.165611
H    -0.433738  -0.171971  -0.323369
H    0.498643  -1.679025  -0.077088
N    -1.173419  -0.071508  2.147360
C    -1.468231  -0.015230  3.571871
C    -2.947965  -0.330385  3.754428
O    -3.807177  0.586285  4.130005
H    -1.637912  0.552012  1.493810
H    -0.910309  -0.886785  3.962957
C    -0.930622  1.232738  4.303462
C    -0.435147  0.995026  5.753248
C    1.097999  0.893516  5.942509
C    1.717949  -0.437373  5.520016
N    3.220269  -0.441352  5.776463
H    -1.686579  2.032530  4.290539
H    -0.106757  1.619590  3.688991
H    -0.922393  0.108430  6.191843
H    -0.754706  1.839465  6.377037
H    1.309406  1.063058  7.009856
H    1.576710  1.722339  5.395942
H    1.587377  -0.664395  4.453371
H    1.317030  -1.276193  6.103634
H    3.644093  -1.340022  5.501939
H    3.442106  -0.289172  6.771894
H    3.701009  0.296996  5.242020
N    -3.401979  -1.540455  3.506567
C    -2.658044  -2.718692  3.041866
H    -4.410873  -1.668725  3.591724
H    -3.167745  -3.611277  3.417673
H    -1.628357  -2.705557  3.409917
H    -2.649405  -2.741553  1.944191
Ca    -5.194821  1.961090  4.644978
