35
Energy: -36758.7141657 eV PBE+vdW (tier 2 basis)
C    -0.104473  -0.039637  -0.485700
C    0.155858  -0.132680  0.977562
O    1.404716  -0.089799  1.385829
H    0.304673  0.904776  -0.872755
H    -1.165031  -0.092249  -0.743309
H    0.420379  -0.856534  -1.001613
N    -0.787765  -0.250253  1.874857
C    -2.253379  -0.160159  1.724992
C    -2.682093  0.359314  3.125679
O    -1.936693  0.095509  4.081634
H    -0.572873  -0.269546  2.897047
H    -2.485785  0.574461  0.943966
C    -2.918568  -1.512515  1.355441
C    -2.942132  -2.632475  2.422242
C    -4.247742  -2.707744  3.242276
C    -4.247715  -3.937109  4.149211
N    -5.574743  -4.112914  4.877420
H    -2.406847  -1.886423  0.457659
H    -3.942509  -1.286260  1.025126
H    -2.083715  -2.543363  3.104540
H    -2.813044  -3.588308  1.895012
H    -5.100801  -2.766022  2.546442
H    -4.379851  -1.797115  3.846450
H    -3.479776  -3.879046  4.930531
H    -4.095319  -4.864122  3.581982
H    -5.562307  -4.949605  5.480101
H    -6.358939  -4.225267  4.218004
H    -5.792779  -3.306531  5.480330
N    -3.840220  1.026023  3.238125
C    -4.708401  1.520613  2.165139
H    -4.025607  1.365758  4.180673
H    -5.619441  1.918427  2.621325
H    -5.006897  0.717788  1.480994
H    -4.234478  2.333047  1.597884
Ca    3.366556  0.168679  1.729501
