35
Energy: -36757.6383391 eV PBE+vdW (tier 2 basis)
C    -0.025826  -2.321694  1.565415
C    -0.182229  -0.829418  1.542115
O    0.756466  -0.074502  1.277989
H    0.646747  -2.569683  2.400601
H    0.477089  -2.662989  0.652874
H    -0.962068  -2.873601  1.706397
N    -1.400241  -0.268595  1.908587
C    -2.733477  -0.712271  1.499355
C    -3.326446  -1.773554  2.446483
O    -3.985050  -2.795206  1.966254
H    -1.315076  0.742891  1.987099
H    -3.379373  0.165574  1.677693
C    -2.859649  -1.076103  -0.011130
C    -1.856525  -0.381358  -0.956039
C    -1.827933  1.160590  -1.000287
C    -0.570270  1.713923  -1.684274
N    0.606525  1.880070  -0.729705
H    -3.889772  -0.856069  -0.329434
H    -2.705065  -2.157912  -0.139971
H    -2.083609  -0.742998  -1.969658
H    -0.850579  -0.770673  -0.748906
H    -1.927229  1.621075  -0.004371
H    -2.693943  1.529044  -1.567589
H    -0.229754  1.052758  -2.490548
H    -0.751429  2.702324  -2.120512
H    0.685744  1.115216  -0.004051
H    0.533986  2.766327  -0.212758
H    1.496122  1.919785  -1.246387
N    -3.226630  -1.659839  3.751622
C    -2.661840  -0.570059  4.566374
H    -3.635379  -2.426812  4.287193
H    -3.088891  -0.659555  5.569998
H    -2.936480  0.405519  4.153599
H    -1.571469  -0.659077  4.627168
Ca    -5.178816  -4.286377  1.274386
