35
Energy: -36758.5661807 eV PBE+vdW (tier 2 basis)
C    -0.279809  0.198277  -1.119699
C    0.099698  0.156510  0.319337
O    1.366115  0.017091  0.622605
H    -1.355464  0.280310  -1.291236
H    0.078888  -0.715777  -1.614804
H    0.218317  1.049862  -1.606184
N    -0.774215  0.255163  1.296208
C    -2.230823  0.505396  1.210709
C    -2.589181  1.208412  2.532129
O    -2.045321  0.788652  3.580612
H    -0.444017  0.210836  2.269745
H    -2.414769  1.163523  0.354496
C    -3.071906  -0.790309  1.049548
C    -2.887735  -1.892675  2.124997
C    -4.141497  -2.265378  2.939967
C    -4.721714  -1.239735  3.909377
N    -3.764119  -0.878450  5.034729
H    -2.848339  -1.202475  0.056038
H    -4.122893  -0.468984  0.989717
H    -2.059962  -1.641866  2.804182
H    -2.570189  -2.812963  1.618874
H    -3.934236  -3.195283  3.493040
H    -4.960948  -2.527244  2.253245
H    -5.626595  -1.640654  4.381003
H    -4.989625  -0.290039  3.428869
H    -2.992445  -0.266100  4.668675
H    -3.358289  -1.720004  5.465533
H    -4.249614  -0.364477  5.782043
N    -3.497620  2.186216  2.512918
C    -4.171674  2.790009  1.354530
H    -3.667699  2.618629  3.420542
H    -4.658320  2.031278  0.730790
H    -3.475588  3.386597  0.750760
H    -4.951016  3.459750  1.729202
Ca    3.388706  -0.102668  0.631381
