35
Energy: -36759.7883024 eV PBE+vdW (tier 2 basis)
C    -1.002588  2.146997  1.808899
C    -1.231262  0.685484  1.609471
O    -0.494671  0.027582  0.809718
H    -1.061094  2.650802  0.833307
H    0.019664  2.307786  2.180124
H    -1.708607  2.616360  2.501812
N    -2.230878  0.101872  2.294554
C    -2.732148  -1.292029  2.249684
C    -1.670456  -2.307258  2.719884
O    -0.633275  -2.539521  2.012848
H    -2.715832  0.716032  2.943712
H    -3.537819  -1.304817  2.992970
C    -3.339424  -1.725386  0.881937
C    -4.862712  -1.514196  0.724074
C    -5.336226  -0.067812  0.498805
C    -6.854321  0.130640  0.444619
N    -7.512103  -0.413952  -0.820505
H    -3.151921  -2.801930  0.762816
H    -2.794207  -1.230190  0.065757
H    -5.376311  -1.940174  1.601413
H    -5.164294  -2.144079  -0.128054
H    -4.870470  0.358757  -0.404837
H    -5.007579  0.578359  1.327357
H    -7.108682  1.196853  0.466117
H    -7.367411  -0.359092  1.282112
H    -7.132920  0.027623  -1.671186
H    -8.526479  -0.223452  -0.810647
H    -7.401352  -1.432614  -0.920714
N    -1.855556  -2.980720  3.841036
C    -2.945666  -2.897450  4.825304
H    -1.129131  -3.673621  4.035070
H    -3.856643  -3.376373  4.445236
H    -3.144127  -1.858871  5.111541
H    -2.625270  -3.435838  5.722117
Ca    0.723727  -1.700693  0.610016
