35
Energy: -36760.182657 eV PBE+vdW (tier 2 basis)
C    -1.626335  -0.184961  -2.634119
C    -1.280285  -0.615666  -1.250249
O    -0.085167  -0.531171  -0.824473
H    -1.376801  0.881604  -2.739492
H    -2.680515  -0.333099  -2.890088
H    -0.999339  -0.724339  -3.357236
N    -2.255577  -1.086018  -0.453606
C    -2.125012  -1.430134  0.975174
C    -1.376762  -2.781092  1.128023
O    -0.109531  -2.781235  0.996216
H    -3.179428  -1.172827  -0.870712
H    -1.438421  -0.690560  1.416724
C    -3.481942  -1.311648  1.701933
C    -3.985329  0.145606  1.798013
C    -5.118938  0.411485  2.815612
C    -6.509131  -0.048650  2.374920
N    -7.577111  0.432262  3.350199
H    -3.338155  -1.706328  2.719209
H    -4.233938  -1.955078  1.212848
H    -4.287926  0.521375  0.808548
H    -3.141985  0.779056  2.109860
H    -5.145893  1.500055  2.980063
H    -4.861531  -0.042396  3.785942
H    -6.613652  -1.139722  2.332473
H    -6.789609  0.366453  1.398424
H    -7.595834  1.461598  3.415905
H    -7.421890  0.070516  4.303215
H    -8.519323  0.129795  3.058890
N    -2.047557  -3.886320  1.384419
C    -1.466412  -5.224694  1.548684
H    -3.058437  -3.815860  1.472447
H    -0.393044  -5.136461  1.728925
H    -1.644755  -5.822155  0.645304
H    -1.945065  -5.715489  2.402834
Ca    1.470630  -1.625902  0.121169
