35
Energy: -36760.1014859 eV PBE+vdW (tier 2 basis)
C    -0.931826  1.245471  -0.641481
C    -1.036066  -0.027906  0.130788
O    -0.245270  -0.991364  -0.121263
H    -1.033600  1.018141  -1.712394
H    0.073033  1.670850  -0.508113
H    -1.675851  1.997569  -0.359474
N    -1.977116  -0.111047  1.086036
C    -2.398634  -1.249251  1.935942
C    -1.282145  -1.763440  2.863962
O    -0.229647  -2.310750  2.393079
H    -2.526066  0.735791  1.211303
H    -3.169505  -0.813413  2.582535
C    -3.063809  -2.415954  1.159476
C    -4.434764  -2.035454  0.567712
C    -5.181114  -3.235434  -0.053687
C    -6.559831  -2.818538  -0.570234
N    -7.337139  -3.993742  -1.148377
H    -3.186990  -3.248452  1.869884
H    -2.386639  -2.775861  0.371479
H    -4.309499  -1.249537  -0.192871
H    -5.060146  -1.602352  1.364956
H    -5.294740  -4.027226  0.704208
H    -4.586903  -3.660591  -0.878215
H    -6.494942  -2.075894  -1.375237
H    -7.191032  -2.406756  0.227297
H    -6.847777  -4.427868  -1.944906
H    -8.263555  -3.693365  -1.489359
H    -7.498224  -4.732063  -0.447097
N    -1.440561  -1.683420  4.173444
C    -2.540575  -1.098348  4.956258
H    -0.680168  -2.103878  4.711760
H    -3.448667  -1.708936  4.879664
H    -2.741575  -0.066144  4.647824
H    -2.228791  -1.080634  6.004503
Ca    1.105136  -2.374203  0.743597
