35
Energy: -36758.2513979 eV PBE+vdW (tier 2 basis)
C    0.299786  0.658117  1.125533
C    -0.333594  0.516861  2.463878
O    0.432753  0.562531  3.525253
H    1.137549  -0.047656  1.041911
H    0.715549  1.672277  1.025034
H    -0.383759  0.478450  0.292621
N    -1.630331  0.354805  2.640192
C    -2.713074  0.175249  1.635932
C    -3.935102  1.043105  2.071785
O    -4.995381  0.518665  2.431285
H    -1.930956  0.240800  3.611683
H    -2.348822  0.593872  0.689667
C    -2.964551  -1.348584  1.477070
C    -4.323798  -1.856298  0.962482
C    -4.927737  -1.201527  -0.294939
C    -6.444289  -1.373052  -0.337868
N    -7.123983  -0.459509  0.684992
H    -2.810098  -1.823120  2.457426
H    -2.153969  -1.721101  0.831978
H    -5.031319  -1.796733  1.797748
H    -4.195357  -2.930514  0.765914
H    -4.520877  -1.660365  -1.206430
H    -4.689279  -0.128577  -0.376931
H    -6.737761  -2.399702  -0.088485
H    -6.870935  -1.125147  -1.315631
H    -7.978172  -0.883070  1.070231
H    -7.401614  0.430613  0.253153
H    -6.478551  -0.223631  1.471684
N    -3.782721  2.383192  2.014404
C    -2.653086  3.178853  1.540637
H    -4.602472  2.895948  2.337427
H    -3.014781  4.184871  1.306854
H    -2.226716  2.765364  0.618106
H    -1.866598  3.274524  2.302871
Ca    1.934683  0.593264  4.890643
