35
Energy: -36759.8412449 eV PBE+vdW (tier 2 basis)
C    0.103227  1.848607  0.376187
C    -0.375258  0.482480  0.733282
O    0.340335  -0.536506  0.471829
H    0.255101  1.891820  -0.712857
H    1.085815  2.024748  0.835578
H    -0.582031  2.649260  0.672881
N    -1.571290  0.362168  1.331022
C    -2.358847  -0.852061  1.661368
C    -1.619837  -1.740428  2.683194
O    -0.638049  -2.472583  2.324681
H    -2.057298  1.240700  1.496210
H    -3.244976  -0.446778  2.163766
C    -2.849817  -1.621282  0.406111
C    -4.229844  -2.293653  0.578135
C    -4.751841  -2.849029  -0.764816
C    -6.250302  -3.138290  -0.869738
N    -6.694421  -4.446003  -0.217906
H    -2.098102  -2.357403  0.087554
H    -2.922621  -0.882077  -0.404392
H    -4.941092  -1.539144  0.951770
H    -4.176661  -3.086377  1.342393
H    -4.172942  -3.731689  -1.081502
H    -4.570350  -2.095793  -1.547286
H    -6.547355  -3.230744  -1.921181
H    -6.862677  -2.350278  -0.413394
H    -6.520439  -4.466895  0.795800
H    -6.217578  -5.258749  -0.635380
H    -7.707310  -4.591473  -0.352703
N    -2.019462  -1.752953  3.943745
C    -3.082365  -0.970075  4.594971
H    -1.485903  -2.380528  4.548411
H    -4.069470  -1.226652  4.192546
H    -2.897214  0.106110  4.498235
H    -3.074472  -1.220246  5.659600
Ca    1.134344  -2.372205  1.123888
