35
Energy: -36758.5223416 eV PBE+vdW (tier 2 basis)
C    0.652931  -0.169145  0.642123
C    0.258511  0.325555  1.989405
O    1.167344  0.517081  2.910489
H    1.740530  -0.208365  0.541439
H    0.249584  -1.180024  0.471165
H    0.242087  0.472626  -0.150408
N    -1.006193  0.573474  2.280550
C    -2.170382  0.346709  1.385338
C    -2.302816  1.381037  0.227928
O    -2.813834  0.988049  -0.814793
H    -1.203894  0.897661  3.229490
H    -2.003318  -0.612168  0.877102
C    -3.455781  0.242103  2.241434
C    -4.641332  -0.508409  1.591348
C    -5.555422  0.301742  0.650663
C    -6.719727  -0.569165  0.183233
N    -7.640197  0.181471  -0.770197
H    -3.767593  1.245345  2.573009
H    -3.192538  -0.322763  3.148932
H    -5.251617  -0.897571  2.419479
H    -4.257648  -1.392428  1.058866
H    -4.982727  0.656926  -0.218170
H    -5.943765  1.184104  1.185127
H    -7.354523  -0.904269  1.013338
H    -6.376562  -1.453962  -0.367732
H    -8.419221  -0.415251  -1.086133
H    -7.136319  0.499915  -1.610650
H    -8.053819  1.013255  -0.324704
N    -1.864093  2.639465  0.450825
C    -2.011571  3.708699  -0.540797
H    -1.570531  2.903733  1.384874
H    -1.174946  4.408432  -0.448187
H    -2.953317  4.254992  -0.399090
H    -2.006788  3.264189  -1.540197
Ca    2.856745  0.564287  4.026795
