35
Energy: -36760.0520213 eV PBE+vdW (tier 2 basis)
C    -1.474929  -3.753134  1.314383
C    -0.813032  -2.487080  1.740175
O    0.175835  -2.022110  1.089116
H    -1.836612  -3.629943  0.282797
H    -2.311040  -4.050279  1.955825
H    -0.734932  -4.565232  1.289124
N    -1.285721  -1.842961  2.820656
C    -0.845277  -0.532103  3.339644
C    0.548672  -0.673580  4.013262
O    1.577105  -0.750918  3.264218
H    -2.043287  -2.301395  3.323092
H    -0.665730  0.118648  2.469631
C    -1.943677  0.072822  4.238927
C    -3.256019  0.515173  3.543815
C    -3.200782  1.918138  2.911253
C    -4.495293  2.406997  2.255373
N    -5.561296  2.855034  3.252241
H    -1.513433  0.938278  4.764435
H    -2.204748  -0.662139  5.018635
H    -4.037369  0.480022  4.318335
H    -3.560337  -0.222251  2.784342
H    -2.449385  1.945532  2.107385
H    -2.858565  2.660830  3.650897
H    -4.969390  1.637325  1.633223
H    -4.304551  3.284039  1.625915
H    -6.398662  3.200288  2.757487
H    -5.226029  3.626931  3.847812
H    -5.873565  2.095523  3.873098
N    0.646540  -0.716156  5.326483
C    1.894410  -0.852952  6.088684
H    -0.211913  -0.658253  5.869811
H    2.032102  -1.897572  6.397093
H    1.830009  -0.223041  6.981913
H    2.737457  -0.533533  5.471974
Ca    2.181445  -1.351948  1.303945
