35
Energy: -36759.7454849 eV PBE+vdW (tier 2 basis)
C    -3.270432  -1.047172  -0.009173
C    -2.486937  -1.155098  1.253281
O    -1.978932  -2.265040  1.611303
H    -2.640270  -1.379026  -0.847155
H    -3.638942  -0.036393  -0.212354
H    -4.123971  -1.738973  0.030919
N    -2.319427  -0.058233  2.012590
C    -1.509284  0.020936  3.242575
C    -2.170488  -0.820943  4.372105
O    -1.783185  -2.036444  4.482138
H    -2.773953  0.795776  1.695916
H    -0.574398  -0.525593  3.046314
C    -1.176902  1.486383  3.594744
C    -0.099683  2.197449  2.741218
C    1.365104  1.803485  3.046757
C    2.379001  2.949685  3.048121
N    2.648140  3.560057  1.674825
H    -0.866805  1.517697  4.649792
H    -2.095770  2.085760  3.540332
H    -0.234774  3.269728  2.952416
H    -0.321074  2.076161  1.669372
H    1.716941  0.995832  2.386343
H    1.433297  1.396171  4.067792
H    3.355449  2.606453  3.410392
H    2.052409  3.782206  3.684348
H    3.347134  4.316182  1.746707
H    1.804507  3.972897  1.252979
H    3.024440  2.866532  1.012167
N    -3.099950  -0.370891  5.195569
C    -3.804450  0.916678  5.266577
H    -3.382860  -1.060380  5.895636
H    -4.755218  0.743295  5.780149
H    -4.026022  1.301928  4.267294
H    -3.229574  1.650798  5.843908
Ca    -1.570451  -3.688213  3.143225
