35
Energy: -36757.6133458 eV PBE+vdW (tier 2 basis)
C    0.387390  0.209566  -0.569447
C    0.391058  0.319611  0.928118
O    1.391124  0.675779  1.553581
H    0.869683  1.088413  -1.012459
H    -0.603212  0.063867  -1.014758
H    1.012906  -0.655597  -0.838465
N    -0.736568  -0.068039  1.641988
C    -2.133999  0.236401  1.325840
C    -2.739394  -0.725697  0.289700
O    -3.505364  -0.271870  -0.668005
H    -0.538617  -0.092041  2.640714
H    -2.687079  -0.015496  2.249818
C    -2.388118  1.740407  1.047880
C    -1.699004  2.667759  2.091449
C    -0.513901  3.470840  1.511686
C    0.493655  4.043801  2.507089
N    1.355484  2.973991  3.177877
H    -3.473231  1.915845  1.063753
H    -2.032460  1.996738  0.038166
H    -1.379591  2.066431  2.956087
H    -2.440390  3.369232  2.494138
H    -0.906926  4.335830  0.957406
H    0.037239  2.881363  0.765620
H    0.019539  4.622459  3.308902
H    1.189332  4.708014  1.982573
H    2.297219  3.338609  3.375831
H    1.460618  2.109153  2.583454
H    0.966236  2.679612  4.081261
N    -2.547080  -2.022936  0.370131
C    -1.846145  -2.810009  1.399811
H    -2.976487  -2.575163  -0.373417
H    -2.222968  -3.835662  1.338252
H    -2.055758  -2.416508  2.399031
H    -0.765749  -2.809508  1.216354
Ca    -4.890060  0.324387  -2.030525
