35
Energy: -36758.5822064 eV PBE+vdW (tier 2 basis)
C    0.277531  0.675171  0.629141
C    -0.259840  0.038084  1.864343
O    0.617588  -0.356812  2.754059
H    1.029550  0.025415  0.168533
H    0.763472  1.619642  0.923644
H    -0.483031  0.902735  -0.116693
N    -1.540352  0.093198  2.257647
C    -2.666268  -0.187812  1.354086
C    -2.248017  -1.521149  0.624294
O    -1.044955  -1.814480  0.590901
H    -1.678173  -0.257512  3.205019
H    -3.522745  -0.373476  2.017016
C    -3.027590  0.953207  0.360799
C    -4.515673  1.074496  -0.035032
C    -5.401989  1.887756  0.931642
C    -6.794819  2.083907  0.330312
N    -7.676807  2.989012  1.180982
H    -2.457948  0.815922  -0.566649
H    -2.690603  1.903445  0.799191
H    -4.959827  0.081115  -0.204684
H    -4.540174  1.565972  -1.018378
H    -4.933292  2.870350  1.102908
H    -5.482496  1.392242  1.912747
H    -7.343329  1.139313  0.227368
H    -6.745688  2.560257  -0.657074
H    -8.607066  3.109375  0.751638
H    -7.268594  3.929372  1.287690
H    -7.825614  2.608290  2.126634
N    -3.220203  -2.237390  0.054523
C    -2.982237  -3.468394  -0.707409
H    -4.184233  -1.965250  0.211511
H    -3.105329  -4.351335  -0.067426
H    -1.964399  -3.449412  -1.105501
H    -3.696313  -3.521031  -1.535331
Ca    2.263220  -1.175330  3.561909
