35
Energy: -36759.0872926 eV PBE+vdW (tier 2 basis)
C    -0.523048  0.470588  -0.022991
C    -0.247141  0.135184  1.403719
O    0.942310  0.243509  1.845965
H    -0.283164  -0.383251  -0.675835
H    0.158822  1.282713  -0.307782
H    -1.553499  0.782888  -0.201283
N    -1.218860  -0.235206  2.283556
C    -2.148924  -1.370312  2.125129
C    -1.272224  -2.650667  2.305941
O    -0.027958  -2.600424  1.997038
H    -0.882330  -0.159168  3.246199
H    -2.829337  -1.300888  2.985745
C    -3.026811  -1.323248  0.841558
C    -4.329871  -2.144322  0.926255
C    -5.453311  -1.721158  -0.050167
C    -5.249763  -2.134824  -1.507692
N    -6.498867  -1.844017  -2.331758
H    -2.436899  -1.613962  -0.038348
H    -3.295329  -0.263677  0.721364
H    -4.760328  -2.023906  1.930281
H    -4.125666  -3.218012  0.802764
H    -5.605802  -0.631921  0.014707
H    -6.381379  -2.185526  0.318716
H    -5.069217  -3.212520  -1.609910
H    -4.432506  -1.596440  -2.002935
H    -6.376471  -2.121767  -3.317549
H    -6.741961  -0.841905  -2.324992
H    -7.318884  -2.356359  -1.972106
N    -1.762715  -3.767143  2.814638
C    -3.068779  -4.066263  3.412771
H    -1.086423  -4.533116  2.853670
H    -3.664041  -4.695737  2.740941
H    -3.616723  -3.150809  3.646460
H    -2.896831  -4.617301  4.344554
Ca    1.920515  -1.641331  2.161787
