35
Energy: -36758.4004469 eV PBE+vdW (tier 2 basis)
C    0.706559  -0.009776  0.880132
C    0.170295  -0.308397  2.238744
O    0.996207  -0.656132  3.190942
H    1.699721  -0.451452  0.756179
H    0.804323  1.079953  0.748239
H    0.055671  -0.384237  0.081649
N    -1.115963  -0.217387  2.521703
C    -2.225064  0.147791  1.602255
C    -3.178598  1.179551  2.287377
O    -4.351164  0.869369  2.540333
H    -1.383722  -0.460983  3.477286
H    -1.768860  0.651271  0.740287
C    -3.001724  -1.082421  1.102333
C    -3.544541  -2.054148  2.175052
C    -4.855475  -2.769369  1.766856
C    -6.145270  -2.192675  2.344957
N    -6.464422  -0.792102  1.854504
H    -2.361627  -1.633579  0.398421
H    -3.815503  -0.674662  0.486429
H    -3.711653  -1.532972  3.129467
H    -2.783571  -2.821066  2.372598
H    -4.829612  -3.807801  2.124977
H    -4.929280  -2.850974  0.670793
H    -6.098782  -2.123214  3.439166
H    -7.003288  -2.822676  2.081955
H    -6.634395  -0.780381  0.840557
H    -5.678780  -0.126221  2.074182
H    -7.318619  -0.434961  2.303605
N    -2.696255  2.402941  2.562901
C    -1.411234  2.992308  2.196645
H    -3.384866  3.023024  2.989053
H    -1.168549  2.806896  1.141847
H    -0.595248  2.635527  2.840706
H    -1.484115  4.076331  2.324900
Ca    2.611946  -1.175138  4.313128
