35
Energy: -36759.8942619 eV PBE+vdW (tier 2 basis)
C    -0.177702  -0.264479  0.106218
C    0.106838  -0.090693  1.560317
O    1.283617  0.189976  1.951772
H    -1.223147  -0.502145  -0.115871
H    0.466017  -1.066374  -0.284388
H    0.104388  0.650703  -0.433193
N    -0.909378  -0.237796  2.427854
C    -0.912192  -0.230348  3.910986
C    -0.467144  1.128180  4.497767
O    0.740926  1.520658  4.413482
H    -1.812089  -0.419457  1.996399
H    -1.973855  -0.351492  4.167724
C    -0.125329  -1.409329  4.539519
C    -0.704732  -2.807664  4.225459
C    -1.939067  -3.231416  5.058738
C    -1.661285  -4.017592  6.343935
N    -1.432728  -5.505577  6.089938
H    -0.087033  -1.241531  5.627250
H    0.914503  -1.368260  4.188491
H    0.111586  -3.535175  4.354508
H    -0.955308  -2.864907  3.156842
H    -2.639732  -3.804950  4.432480
H    -2.517993  -2.348620  5.369498
H    -2.515700  -3.973283  7.029368
H    -0.773346  -3.662008  6.881895
H    -0.636069  -5.686198  5.462841
H    -2.263515  -5.946576  5.666724
H    -1.243720  -6.006498  6.972100
N    -1.380636  1.846054  5.126432
C    -1.147758  3.134997  5.788905
H    -2.337481  1.499320  5.135546
H    -1.769656  3.183590  6.688662
H    -1.427636  3.957770  5.117877
H    -0.093955  3.221710  6.064040
Ca    2.468311  1.455408  3.163887
