35
Energy: -36759.8517113 eV PBE+vdW (tier 2 basis)
C    -1.683651  2.047176  0.247420
C    -1.310089  1.546283  1.604952
O    -0.564119  2.255976  2.353052
H    -2.236314  2.992136  0.350634
H    -2.289582  1.345463  -0.334974
H    -0.765594  2.282237  -0.309234
N    -1.799170  0.357150  1.984697
C    -1.611207  -0.519163  3.168803
C    -1.713231  0.148811  4.555104
O    -1.025239  1.160825  4.907456
H    -2.393732  -0.075204  1.279994
H    -2.495091  -1.169702  3.113223
C    -0.419527  -1.511469  3.026598
C    1.026314  -1.000423  2.932199
C    1.970205  -2.198682  2.668721
C    3.439944  -1.802076  2.538020
N    4.318954  -3.015549  2.259850
H    -0.643811  -2.102913  2.125234
H    -0.506946  -2.216682  3.867897
H    1.320553  -0.494384  3.864927
H    1.123909  -0.268953  2.115205
H    1.646746  -2.706045  1.745411
H    1.859337  -2.928962  3.486479
H    3.835589  -1.350148  3.456146
H    3.613737  -1.109177  1.705197
H    5.311653  -2.748400  2.173047
H    4.055084  -3.488879  1.382448
H    4.258530  -3.716229  3.014070
N    -2.527074  -0.446112  5.411706
C    -2.717154  -0.065095  6.815291
H    -3.091458  -1.224463  5.076464
H    -3.586335  0.599121  6.910652
H    -1.821547  0.438972  7.186619
H    -2.900287  -0.971690  7.401105
Ca    -0.263955  3.040712  4.279407
