35
Energy: -36759.2027544 eV PBE+vdW (tier 2 basis)
C    0.047305  0.238391  -0.528380
C    0.407176  0.246987  0.918488
O    1.569685  -0.106794  1.290179
H    0.966747  0.237664  -1.123595
H    -0.571858  1.097307  -0.806710
H    -0.510171  -0.678753  -0.781556
N    -0.481846  0.629221  1.877575
C    -1.847328  0.087721  2.000067
C    -1.717557  -1.473464  2.081145
O    -0.562953  -2.008091  2.193523
H    -0.024487  0.753563  2.781313
H    -2.172191  0.401152  3.005316
C    -2.886616  0.618458  0.980579
C    -2.970268  2.160440  0.896859
C    -3.790034  2.860598  2.007359
C    -5.275225  3.097999  1.716907
N    -5.520337  4.332563  0.852991
H    -3.873118  0.216612  1.261536
H    -2.676075  0.207338  -0.014400
H    -3.378624  2.407412  -0.095298
H    -1.952291  2.573247  0.896099
H    -3.319256  3.819328  2.274110
H    -3.756415  2.277678  2.940229
H    -5.835798  3.280175  2.641308
H    -5.750394  2.261492  1.188738
H    -5.056266  4.276981  -0.064734
H    -5.182587  5.189368  1.317304
H    -6.528124  4.464842  0.674763
N    -2.807001  -2.212889  2.077960
C    -2.830353  -3.676677  2.226658
H    -3.704367  -1.744533  1.985397
H    -2.389098  -3.966463  3.187483
H    -2.277550  -4.149751  1.406831
H    -3.871346  -4.007986  2.194770
Ca    1.608558  -2.050719  2.227893
