35
Energy: -36757.6732864 eV PBE+vdW (tier 2 basis)
C    0.765858  -0.449707  0.376707
C    0.396391  -0.177863  1.802062
O    1.133317  -0.433016  2.762878
H    -0.016285  -0.189721  -0.344520
H    1.007272  -1.516769  0.275454
H    1.682501  0.104193  0.132521
N    -0.844681  0.381218  2.035622
C    -1.245077  0.694674  3.412747
C    -2.762986  0.865296  3.441733
O    -3.310201  2.051403  3.478834
H    -1.399262  0.687926  1.242911
H    -1.032682  -0.212577  4.000325
C    -0.420772  1.848854  4.017256
C    -0.185292  1.860290  5.541844
C    0.185285  0.577040  6.333389
C    1.215895  -0.457711  5.851232
N    2.436651  0.095527  5.140167
H    -0.853338  2.816943  3.717448
H    0.543448  1.812872  3.499312
H    -1.074282  2.255789  6.057040
H    0.587382  2.623547  5.718806
H    -0.720845  -0.017958  6.524746
H    0.492596  0.929389  7.328205
H    0.794851  -1.168268  5.133268
H    1.576631  -1.025633  6.716183
H    2.195417  0.189839  4.129434
H    3.221861  -0.568058  5.198775
H    2.767191  0.988347  5.526454
N    -3.545494  -0.190155  3.419034
C    -3.161630  -1.610295  3.365673
H    -4.550701  -0.009465  3.445064
H    -3.946965  -2.151532  2.827498
H    -3.091149  -2.016625  4.383485
H    -2.216438  -1.735180  2.831835
Ca    -4.194375  3.882104  3.504536
