35
Energy: -36758.7170561 eV PBE+vdW (tier 2 basis)
C    -0.196105  -0.928128  0.726051
C    -0.113306  0.129632  1.769866
O    1.026976  0.286008  2.406074
H    -1.188279  -1.009815  0.275099
H    0.072069  -1.898631  1.166830
H    0.535830  -0.719487  -0.067611
N    -1.105314  0.915696  2.089790
C    -2.451052  1.083342  1.508803
C    -2.718837  2.587729  1.839909
O    -2.168543  3.028389  2.859597
H    -0.999775  1.673621  2.808029
H    -2.417024  0.885927  0.431041
C    -3.457863  0.147033  2.228147
C    -4.932559  0.272596  1.800752
C    -5.787825  -0.811746  2.485471
C    -7.253691  -0.899700  2.063180
N    -8.144985  0.152603  2.719732
H    -3.369788  0.332117  3.309565
H    -3.123645  -0.888458  2.058119
H    -5.021185  0.160414  0.709041
H    -5.300239  1.281461  2.048210
H    -5.719090  -0.729346  3.583006
H    -5.365218  -1.799904  2.247940
H    -7.686671  -1.863133  2.356816
H    -7.390278  -0.780393  0.980927
H    -8.133979  0.065864  3.746591
H    -9.125076  0.043680  2.417468
H    -7.860184  1.113120  2.486329
N    -3.517520  3.326400  1.056861
C    -4.123156  3.018683  -0.235714
H    -3.618826  4.285821  1.389588
H    -5.217627  2.983070  -0.159448
H    -3.767159  2.059582  -0.621686
H    -3.853492  3.795656  -0.960834
Ca    2.852492  0.492118  3.211564
