35
Energy: -36758.2709382 eV PBE+vdW (tier 2 basis)
C    0.699266  -0.149742  0.030476
C    0.318482  -0.183229  1.480043
O    1.141303  -0.105403  2.404897
H    -0.108840  -0.447384  -0.646869
H    1.575308  -0.789478  -0.130573
H    1.006094  0.873646  -0.233168
N    -1.024211  -0.306656  1.769281
C    -1.492860  -0.100141  3.135698
C    -2.538808  -1.168389  3.466387
O    -2.248145  -2.428704  3.321686
H    -1.680756  -0.162150  1.004664
H    -0.616240  -0.344991  3.762113
C    -1.949109  1.351241  3.422116
C    -0.924364  2.477716  3.134440
C    -0.058045  2.981277  4.306114
C    1.097669  2.139824  4.841974
N    2.226760  1.969195  3.841157
H    -2.262625  1.427470  4.476400
H    -2.837300  1.560462  2.802552
H    -1.510277  3.347643  2.810092
H    -0.311859  2.224993  2.256707
H    -0.705991  3.187312  5.172027
H    0.339181  3.970452  4.026635
H    0.805744  1.124129  5.134939
H    1.529696  2.631109  5.721883
H    1.962533  1.254864  3.118997
H    2.461446  2.859340  3.381245
H    3.083087  1.636677  4.304517
N    -3.722283  -0.820668  3.912006
C    -4.810038  -1.723027  4.304078
H    -3.898945  0.180921  3.992619
H    -4.490674  -2.369566  5.131360
H    -5.136067  -2.325344  3.446458
H    -5.655376  -1.117949  4.643260
Ca    -1.856546  -4.402584  3.103143
