35
Energy: -36758.3482048 eV PBE+vdW (tier 2 basis)
C    0.781738  -0.391963  1.952969
C    -0.096614  -1.078640  2.940172
O    0.446447  -1.633771  3.992359
H    1.739110  -0.918911  1.870929
H    0.993459  0.630000  2.308528
H    0.336847  -0.318260  0.956852
N    -1.408447  -1.127195  2.806862
C    -2.232495  -0.499687  1.734500
C    -3.574711  0.012593  2.323217
O    -3.894392  1.190704  2.129429
H    -1.915732  -1.596383  3.559519
H    -1.707498  0.410284  1.422581
C    -2.428797  -1.448498  0.523276
C    -2.848091  -0.777461  -0.801740
C    -4.215023  -0.046318  -0.842401
C    -4.075048  1.483598  -0.908183
N    -5.182461  2.184167  -0.149062
H    -3.145962  -2.241900  0.785925
H    -1.472473  -1.960912  0.340409
H    -2.855746  -1.579492  -1.550596
H    -2.050411  -0.092105  -1.128373
H    -4.824572  -0.334307  0.027263
H    -4.781446  -0.388122  -1.717439
H    -4.098132  1.853215  -1.939552
H    -3.149661  1.834048  -0.438508
H    -5.062220  1.958279  0.862724
H    -6.117366  1.889980  -0.461879
H    -5.130502  3.206229  -0.260460
N    -4.331623  -0.870555  3.005065
C    -5.624178  -0.509687  3.600126
H    -4.130999  -1.864026  2.927701
H    -5.840733  -1.196654  4.423643
H    -6.434217  -0.577109  2.861385
H    -5.568894  0.513302  3.983660
Ca    1.691287  -2.334939  5.436363
