35
Energy: -36758.5234553 eV PBE+vdW (tier 2 basis)
C    -0.715580  0.224395  0.085738
C    -0.589265  0.176819  1.576502
O    0.519727  0.293002  2.139370
H    -0.424982  1.226218  -0.260723
H    -1.718525  -0.007605  -0.287667
H    0.008624  -0.474852  -0.351729
N    -1.744262  0.023075  2.293270
C    -1.911773  -0.190185  3.741490
C    -1.285153  0.915448  4.609261
O    -2.014453  1.444488  5.567800
H    -2.602545  -0.020622  1.752360
H    -2.990752  -0.078811  3.909021
C    -1.573960  -1.638607  4.224509
C    -0.128556  -2.140758  4.077547
C    0.102949  -3.596345  4.550525
C    -0.357641  -4.653643  3.546955
N    0.074561  -6.050036  3.979332
H    -2.267979  -2.284843  3.665719
H    -1.884303  -1.708419  5.280298
H    0.546832  -1.507184  4.668741
H    0.213038  -2.043021  3.038557
H    -0.382816  -3.764465  5.525251
H    1.185199  -3.716132  4.714316
H    0.089237  -4.497772  2.556937
H    -1.447388  -4.700830  3.432940
H    -0.227325  -6.766180  3.301513
H    -0.320966  -6.309758  4.894879
H    1.100218  -6.120289  4.059892
N    -0.064153  1.297502  4.393012
C    0.641359  2.342563  5.125915
H    0.369134  0.841866  3.484504
H    1.673973  2.381069  4.767144
H    0.656238  2.125476  6.202712
H    0.183570  3.326074  4.943583
Ca    -2.961020  2.607949  6.904854
