35
Energy: -36759.79944 eV PBE+vdW (tier 2 basis)
C    -1.015771  -0.044821  -0.363593
C    -0.881772  -0.262186  1.105792
O    0.185242  -0.763702  1.582756
H    -0.190475  0.589631  -0.715971
H    -1.967924  0.407067  -0.659991
H    -0.903848  -1.013826  -0.872470
N    -1.910859  0.087132  1.895483
C    -2.128948  -0.125343  3.347404
C    -1.057785  0.582734  4.203993
O    0.128307  0.119005  4.283956
H    -2.705501  0.489077  1.403493
H    -3.081946  0.381786  3.539728
C    -2.315423  -1.617114  3.721220
C    -2.954273  -1.828480  5.108370
C    -3.112478  -3.316826  5.500110
C    -4.345654  -4.062541  4.975345
N    -5.539918  -3.974443  5.923060
H    -1.348791  -2.139418  3.673806
H    -2.943197  -2.059325  2.933499
H    -3.926474  -1.308598  5.149930
H    -2.330208  -1.350320  5.878000
H    -3.072827  -3.412415  6.596358
H    -2.235824  -3.879627  5.148145
H    -4.145812  -5.135313  4.872491
H    -4.700720  -3.691381  4.005920
H    -5.321864  -4.395668  6.839003
H    -6.352751  -4.485198  5.544400
H    -5.843251  -3.005966  6.095860
N    -1.381252  1.668499  4.885373
C    -2.656782  2.400797  4.934946
H    -0.621105  2.050257  5.451996
H    -2.482415  3.335306  5.475963
H    -3.420126  1.829657  5.477303
H    -3.008190  2.654646  3.928659
Ca    1.684140  -0.694267  3.061869
