35
Energy: -36758.6236955 eV PBE+vdW (tier 2 basis)
C    -0.488757  0.355672  -0.067397
C    0.050560  0.080191  1.291501
O    1.333809  0.278443  1.475027
H    -0.343770  1.427605  -0.277962
H    -1.546973  0.119079  -0.169219
H    0.067570  -0.222899  -0.813278
N    -0.684235  -0.143185  2.379440
C    -1.916220  -0.945177  2.438420
C    -1.543559  -2.308859  1.747815
O    -0.637742  -2.318158  0.909521
H    -0.137941  -0.168312  3.239965
H    -2.083548  -1.105158  3.512948
C    -3.196721  -0.272212  1.865639
C    -4.473764  -0.754885  2.581511
C    -5.758596  0.057234  2.304678
C    -6.398778  -0.206904  0.942961
N    -7.761361  0.469932  0.843926
H    -3.270606  -0.453282  0.784378
H    -3.089048  0.812889  2.011055
H    -4.307078  -0.701974  3.667702
H    -4.665474  -1.814202  2.350662
H    -5.553328  1.133141  2.423309
H    -6.481930  -0.210922  3.090889
H    -6.583988  -1.275479  0.775095
H    -5.809814  0.180311  0.102767
H    -8.206300  0.297227  -0.069953
H    -7.692423  1.491341  0.963803
H    -8.408092  0.122974  1.568462
N    -2.267195  -3.376175  2.109742
C    -2.056513  -4.713313  1.544508
H    -2.895431  -3.296677  2.902554
H    -1.297350  -5.263655  2.115174
H    -1.723953  -4.616518  0.507331
H    -2.999787  -5.266964  1.577058
Ca    3.332284  0.357006  1.291688
