35
Energy: -36758.6060094 eV PBE+vdW (tier 2 basis)
C    -0.719972  -0.421344  1.269101
C    0.111388  0.696423  0.745471
O    1.378465  0.459626  0.484629
H    -0.269222  -0.811835  2.192343
H    -0.730262  -1.244674  0.540510
H    -1.750739  -0.124514  1.478706
N    -0.341417  1.900089  0.524663
C    -1.691406  2.489231  0.616289
C    -1.560524  3.643785  -0.434258
O    -0.423081  4.108402  -0.593972
H    0.271576  2.655997  0.125750
H    -2.445058  1.742997  0.339484
C    -1.902421  3.053753  2.050365
C    -3.175278  3.879859  2.331071
C    -4.461265  3.063937  2.543610
C    -5.728120  3.882991  2.793739
N    -5.754749  4.565572  4.159214
H    -1.033595  3.693453  2.260903
H    -1.845069  2.210895  2.756812
H    -3.324559  4.627905  1.538014
H    -2.948043  4.461126  3.239153
H    -4.326263  2.334458  3.359472
H    -4.690299  2.460842  1.652308
H    -6.620872  3.247117  2.769497
H    -5.858741  4.686386  2.057458
H    -6.636171  5.084724  4.291518
H    -4.986684  5.240921  4.276753
H    -5.689085  3.881410  4.927092
N    -2.636525  4.097106  -1.092782
C    -3.998840  3.579040  -1.137801
H    -2.420457  4.872094  -1.720529
H    -4.342874  3.562852  -2.178236
H    -4.689491  4.209919  -0.561070
H    -4.044160  2.552697  -0.760533
Ca    3.273997  -0.015493  0.029120
