35
Energy: -36758.4304239 eV PBE+vdW (tier 2 basis)
C    -0.124993  0.455630  -0.014821
C    -0.215365  -0.164983  1.335888
O    0.912584  -0.571113  1.867257
H    -1.087989  0.720110  -0.447152
H    0.476152  1.374737  0.079447
H    0.385954  -0.225977  -0.704058
N    -1.277577  -0.116414  2.148721
C    -2.665650  -0.378012  1.725723
C    -2.569577  -1.748911  0.959294
O    -1.504084  -1.993992  0.377444
H    -1.070478  -0.452633  3.088895
H    -3.226703  -0.476971  2.663297
C    -3.301021  0.741802  0.854526
C    -4.836625  0.882655  0.867430
C    -5.453541  1.565345  2.105985
C    -6.934291  1.855434  1.854186
N    -7.580927  2.640681  2.988450
H    -3.016450  0.580319  -0.192407
H    -2.848989  1.696275  1.162249
H    -5.319134  -0.087742  0.688633
H    -5.084263  1.492331  -0.014190
H    -4.920747  2.510429  2.300495
H    -5.343118  0.940693  3.007373
H    -7.527327  0.938808  1.745573
H    -7.078497  2.464104  0.952594
H    -8.575654  2.827741  2.788997
H    -7.123779  3.553462  3.130057
H    -7.541003  2.133621  3.884281
N    -3.616871  -2.584695  0.930599
C    -4.871981  -2.568671  1.674968
H    -3.454202  -3.406133  0.347881
H    -5.006957  -3.533972  2.177964
H    -5.725722  -2.408401  1.003474
H    -4.862899  -1.788898  2.442258
Ca    2.753496  -1.358029  2.042557
