35
Energy: -36758.567173 eV PBE+vdW (tier 2 basis)
C    0.245773  -2.039163  0.764421
C    0.086936  -1.464115  2.134782
O    1.056633  -1.634421  3.003806
H    0.372398  -3.130006  0.829376
H    1.141320  -1.619080  0.284022
H    -0.616511  -1.836392  0.120858
N    -1.008930  -0.816217  2.427643
C    -1.539702  -0.216763  3.662133
C    -3.025477  -0.707121  3.613629
O    -3.546156  -0.747595  2.494902
H    -1.788782  -0.825419  1.737310
H    -0.982481  -0.581282  4.534678
C    -1.491766  1.331932  3.541703
C    -2.168108  2.064231  4.713077
C    -2.213571  3.604274  4.587602
C    -3.296535  4.106424  3.632408
N    -3.419258  5.624589  3.686387
H    -1.977310  1.589338  2.588125
H    -0.439523  1.643614  3.460077
H    -1.632886  1.831040  5.645223
H    -3.193471  1.690222  4.852069
H    -1.228680  3.991463  4.281172
H    -2.411783  4.010128  5.591867
H    -4.287832  3.717855  3.897873
H    -3.099129  3.859291  2.582371
H    -3.662356  5.950928  4.633825
H    -4.153571  5.966761  3.048443
H    -2.540177  6.091822  3.420173
N    -3.618725  -1.022103  4.772592
C    -5.009110  -1.478830  4.867220
H    -3.075844  -0.977100  5.629074
H    -5.580740  -0.815803  5.527147
H    -5.043884  -2.499094  5.267060
H    -5.446633  -1.466888  3.865593
Ca    2.783537  -2.436179  3.679231
