35
Energy: -36757.2880118 eV PBE+vdW (tier 2 basis)
C    0.154951  0.966696  0.791079
C    0.080234  0.039597  1.976323
O    1.044778  -0.459870  2.518568
H    1.183482  1.332087  0.712394
H    -0.523219  1.825634  0.881122
H    -0.071604  0.429267  -0.142767
N    -1.198128  -0.256709  2.519922
C    -2.414103  -0.375566  1.751303
C    -3.579026  0.418826  2.368038
O    -4.384926  1.048368  1.543073
H    -1.076476  -0.917266  3.285122
H    -2.242947  0.166099  0.810888
C    -2.805348  -1.843148  1.339551
C    -2.492803  -2.980301  2.342100
C    -1.042991  -3.531047  2.327175
C    -0.728438  -4.614592  1.292963
N    -1.099624  -6.017762  1.769689
H    -2.282235  -2.041629  0.392700
H    -3.877744  -1.865322  1.094897
H    -3.205704  -3.794207  2.135526
H    -2.742564  -2.671072  3.367307
H    -0.779556  -3.906893  3.328669
H    -0.316871  -2.726419  2.146795
H    0.347122  -4.659735  1.086286
H    -1.252736  -4.470959  0.339664
H    -2.100707  -6.112053  1.990530
H    -0.571939  -6.273922  2.617826
H    -0.877769  -6.725091  1.052373
N    -3.803838  0.564505  3.653852
C    -3.085918  0.034530  4.825448
H    -4.585920  1.178562  3.883631
H    -2.870199  -1.029977  4.705584
H    -3.741489  0.154580  5.692935
H    -2.159850  0.598570  4.989348
Ca    -5.537060  2.186688  0.327096
