35
Energy: -36758.9235199 eV PBE+vdW (tier 2 basis)
C    -0.387513  -1.676302  1.486215
C    0.294689  -0.394377  1.815448
O    1.570582  -0.438427  2.135352
H    0.099123  -2.139444  0.615424
H    -1.451582  -1.555460  1.268723
H    -0.277815  -2.375588  2.327101
N    -0.298009  0.768888  1.799266
C    -1.607879  1.161969  1.252216
C    -1.312212  2.632242  0.802931
O    -0.317973  3.188201  1.295358
H    0.233722  1.668575  1.946644
H    -1.832243  0.535077  0.378810
C    -2.792497  1.074015  2.246955
C    -2.826437  2.119042  3.374721
C    -4.149385  2.051163  4.165585
C    -4.228371  3.138879  5.234595
N    -5.561404  3.106779  5.972785
H    -2.821812  0.056354  2.666019
H    -3.704838  1.168089  1.638160
H    -2.713923  3.127643  2.948760
H    -1.975224  1.975845  4.057783
H    -4.256117  1.059378  4.633937
H    -4.992618  2.165188  3.464689
H    -4.146613  4.146194  4.807413
H    -3.454705  3.026914  6.004262
H    -5.609546  3.843279  6.692872
H    -5.715621  2.205057  6.447288
H    -6.355624  3.254560  5.332625
N    -2.171792  3.189754  -0.052565
C    -2.033100  4.555014  -0.569711
H    -2.910762  2.613883  -0.445790
H    -2.991762  5.079125  -0.489591
H    -1.723635  4.533205  -1.621852
H    -1.275344  5.077768  0.019218
Ca    3.548740  -0.677488  2.354232
