35
Energy: -36759.4704802 eV PBE+vdW (tier 2 basis)
C    -0.062840  -0.362823  0.268215
C    -0.193122  0.014809  1.699447
O    0.814305  -0.010410  2.475234
H    -1.003341  -0.331889  -0.288713
H    0.313212  -1.399937  0.249777
H    0.704092  0.238880  -0.238353
N    -1.402340  0.360052  2.227482
C    -2.214876  1.425847  1.636367
C    -1.577260  2.779786  2.106107
O    -0.421596  2.778017  2.650967
H    -1.377600  0.383701  3.248209
H    -2.043618  1.399787  0.548554
C    -3.734398  1.238369  1.855446
C    -4.216588  1.164948  3.314049
C    -5.753395  1.129819  3.496198
C    -6.412718  -0.187925  3.083180
N    -7.895309  -0.195020  3.434456
H    -3.998091  0.321800  1.308158
H    -4.262369  2.047641  1.325473
H    -3.859621  2.046400  3.868494
H    -3.781629  0.286424  3.816717
H    -6.210619  1.966103  2.943295
H    -5.958695  1.310922  4.562600
H    -5.977146  -1.048064  3.607429
H    -6.362913  -0.377740  2.004171
H    -8.341628  -1.084280  3.161711
H    -8.409593  0.561172  2.958152
H    -8.049204  -0.076800  4.447453
N    -2.222875  3.904523  1.877904
C    -1.708585  5.249795  2.176639
H    -3.123371  3.848153  1.408416
H    -2.526647  5.965215  2.059129
H    -0.901400  5.511613  1.481045
H    -1.337465  5.289806  3.205953
Ca    1.458889  1.885447  3.273700
