35
Energy: -36760.2105585 eV PBE+vdW (tier 2 basis)
C    -0.688381  0.842884  0.243291
C    -0.653380  0.317782  1.639886
O    0.187522  -0.581199  1.961994
H    -1.461799  1.599004  0.073488
H    -0.846297  0.001282  -0.446513
H    0.291655  1.272117  -0.009097
N    -1.523541  0.823005  2.528734
C    -1.793346  0.440348  3.935455
C    -0.575547  0.633326  4.864848
O    0.470000  -0.085743  4.755297
H    -2.123462  1.559171  2.164580
H    -2.548001  1.170895  4.258362
C    -2.425811  -0.965890  4.098837
C    -3.869790  -1.035496  3.564312
C    -4.573230  -2.371595  3.884785
C    -6.022565  -2.360656  3.394150
N    -6.756400  -3.649983  3.738386
H    -2.419233  -1.200763  5.174505
H    -1.794240  -1.720672  3.608389
H    -3.875311  -0.871419  2.475768
H    -4.453657  -0.212783  4.007789
H    -4.553284  -2.542792  4.973145
H    -4.026861  -3.205621  3.416235
H    -6.091660  -2.257235  2.304061
H    -6.606409  -1.553258  3.853796
H    -6.792029  -3.813585  4.755631
H    -6.312028  -4.475210  3.309568
H    -7.731596  -3.622214  3.402309
N    -0.686170  1.543073  5.816028
C    0.321487  1.838208  6.840767
H    -1.533273  2.107126  5.840436
H    0.895676  2.729354  6.555170
H    0.992460  0.983613  6.953379
H    -0.190065  2.034370  7.788957
Ca    1.674566  -1.141446  3.357269
