35
Energy: -36759.3804418 eV PBE+vdW (tier 2 basis)
C    -0.079221  1.478838  -0.362224
C    -0.334338  0.548804  0.770728
O    0.603371  -0.156306  1.257686
H    0.460058  0.915412  -1.139185
H    -0.987683  1.906299  -0.795125
H    0.601263  2.288295  -0.057716
N    -1.582656  0.424133  1.304664
C    -2.349593  1.592850  1.753688
C    -1.519732  2.277836  2.887902
O    -0.498360  1.670240  3.371471
H    -1.638441  -0.352847  1.966443
H    -2.423699  2.309614  0.922223
C    -3.769709  1.193343  2.219449
C    -4.847949  1.040450  1.120709
C    -5.018449  -0.357430  0.488495
C    -6.260868  -0.364041  -0.407397
N    -6.582584  -1.743103  -0.967410
H    -4.120899  1.967717  2.912192
H    -3.700492  0.281149  2.834151
H    -4.680231  1.789452  0.330799
H    -5.804569  1.316556  1.587659
H    -5.140094  -1.104133  1.290104
H    -4.127942  -0.641236  -0.093879
H    -6.150090  0.296181  -1.276707
H    -7.156793  -0.053069  0.144954
H    -7.427110  -1.711081  -1.559732
H    -6.765223  -2.428996  -0.219896
H    -5.819202  -2.116000  -1.550168
N    -1.842305  3.475353  3.334208
C    -2.908330  4.385788  2.899805
H    -1.255478  3.817374  4.098502
H    -2.500779  5.402539  2.871858
H    -3.742385  4.363189  3.613302
H    -3.267316  4.127383  1.900056
Ca    1.220483  0.371609  3.268545
