35
Energy: -36759.7492893 eV PBE+vdW (tier 2 basis)
C    -0.643999  0.510936  -0.038803
C    -0.521230  0.150438  1.403038
O    0.616185  -0.129550  1.897515
H    -1.665190  0.753931  -0.349900
H    -0.275225  -0.331685  -0.642642
H    0.012994  1.363770  -0.259690
N    -1.638001  0.133437  2.150668
C    -1.849677  -0.308731  3.550612
C    -1.037462  0.543626  4.550257
O    0.223506  0.392691  4.664187
H    -2.486843  0.389338  1.651808
H    -2.909465  -0.091734  3.729550
C    -1.629358  -1.829829  3.746074
C    -2.246654  -2.401375  5.043693
C    -3.766971  -2.683711  4.992478
C    -4.195160  -4.042654  4.427404
N    -4.144163  -5.160133  5.466125
H    -0.553195  -2.046422  3.727333
H    -2.052095  -2.330999  2.862738
H    -2.042446  -1.722563  5.885288
H    -1.696642  -3.320587  5.297482
H    -4.278104  -1.928600  4.376247
H    -4.205603  -2.557438  5.994591
H    -3.569361  -4.378336  3.590754
H    -5.236148  -4.019566  4.084544
H    -4.432298  -6.061169  5.053599
H    -4.784731  -4.972469  6.252455
H    -3.203352  -5.296084  5.862114
N    -1.661999  1.423611  5.314731
C    -3.085610  1.794196  5.344663
H    -1.052203  1.922541  5.965772
H    -3.194354  2.641698  6.027511
H    -3.702304  0.970685  5.725128
H    -3.434339  2.111456  4.355266
Ca    1.986143  0.112833  3.481919
