35
Energy: -36758.101892 eV PBE+vdW (tier 2 basis)
C    -0.232950  0.537723  -0.175261
C    -0.013622  0.178113  1.264089
O    1.092048  0.210580  1.815441
H    -0.127455  1.627439  -0.287550
H    -1.219689  0.253740  -0.558137
H    0.550077  0.080499  -0.791840
N    -1.136554  -0.202396  1.988507
C    -1.040382  -0.244309  3.442127
C    -1.759536  -1.469578  4.004017
O    -1.870819  -2.553635  3.295683
H    -2.035276  0.053439  1.583269
H    0.032280  -0.462112  3.615447
C    -1.382929  1.112987  4.141857
C    -0.268981  1.752208  4.996550
C    0.881949  2.402391  4.184130
C    2.227392  1.678255  4.305725
N    3.062196  1.886736  3.056916
H    -2.299662  1.022937  4.744940
H    -1.667420  1.818386  3.348780
H    0.133414  1.023964  5.719561
H    -0.744214  2.528266  5.609278
H    1.009289  3.444538  4.504656
H    0.590758  2.447656  3.124825
H    2.114748  0.591993  4.393634
H    2.816634  2.033672  5.158985
H    2.582380  1.412352  2.264473
H    3.177413  2.885226  2.833177
H    4.005766  1.486658  3.154480
N    -2.208386  -1.457821  5.237453
C    -2.830063  -2.580487  5.948581
H    -2.119356  -0.580369  5.747776
H    -2.143312  -3.435003  5.990939
H    -3.771791  -2.866673  5.463115
H    -3.051419  -2.260367  6.970410
Ca    -2.058956  -4.200169  2.141118
