35
Energy: -36758.5026307 eV PBE+vdW (tier 2 basis)
C    -1.166286  -0.604601  -0.300063
C    -0.636244  0.263307  0.793037
O    0.631170  0.586618  0.788153
H    -0.631084  -1.565628  -0.304167
H    -1.001933  -0.121172  -1.274132
H    -2.236140  -0.812394  -0.195273
N    -1.450337  0.677124  1.735503
C    -1.201997  1.492078  2.935676
C    -2.278792  1.004703  3.934399
O    -3.395062  0.691148  3.462681
H    -2.429022  0.356576  1.705963
H    -0.185705  1.288597  3.292672
C    -1.364107  3.013331  2.646845
C    -2.788386  3.494517  2.300530
C    -3.637718  3.958014  3.508402
C    -5.146356  3.840245  3.292574
N    -5.654331  2.438910  3.629224
H    -0.681471  3.252843  1.819326
H    -0.977227  3.560750  3.519037
H    -3.317491  2.713409  1.733569
H    -2.701557  4.339687  1.605336
H    -3.420434  5.014964  3.713551
H    -3.361216  3.430570  4.435006
H    -5.426620  4.038535  2.251153
H    -5.709152  4.532921  3.927516
H    -4.922365  1.707872  3.458582
H    -5.905940  2.376078  4.624100
H    -6.501591  2.200810  3.097126
N    -1.996586  0.984730  5.237601
C    -0.724641  1.287381  5.903102
H    -2.748942  0.626004  5.824846
H    -0.308224  2.240097  5.557160
H    0.004198  0.478298  5.761912
H    -0.917300  1.383701  6.975634
Ca    2.559726  0.594357  0.141124
