35
Energy: -36758.6982971 eV PBE+vdW (tier 2 basis)
C    -0.321459  -1.656868  1.180015
C    -0.145559  -0.440459  2.020233
O    1.010240  -0.269052  2.626006
H    -1.324095  -1.742888  0.753633
H    -0.115856  -2.552104  1.783461
H    0.410759  -1.646844  0.359364
N    -1.067068  0.468362  2.188606
C    -2.330136  0.703502  1.466747
C    -2.407079  2.266246  1.527011
O    -1.697960  2.828787  2.380239
H    -0.870851  1.372507  2.703893
H    -2.223999  0.358174  0.430572
C    -3.580194  0.035153  2.097395
C    -3.971727  0.537016  3.500178
C    -5.454650  0.335976  3.881842
C    -5.874819  -1.116095  4.098045
N    -7.317175  -1.195570  4.586451
H    -3.424823  -1.054459  2.092237
H    -4.404384  0.222911  1.392726
H    -3.788289  1.618403  3.569647
H    -3.327323  0.079401  4.266136
H    -6.093029  0.795296  3.109438
H    -5.633068  0.900091  4.810856
H    -5.270060  -1.611440  4.868226
H    -5.836357  -1.718905  3.182408
H    -7.973743  -0.782012  3.907868
H    -7.443191  -0.689853  5.476208
H    -7.613546  -2.170386  4.743845
N    -3.229392  2.922389  0.704189
C    -4.058626  2.415187  -0.387495
H    -3.226896  3.932112  0.849013
H    -5.106603  2.304777  -0.078043
H    -3.685373  1.454512  -0.756907
H    -4.019451  3.125917  -1.220020
Ca    2.882726  0.001570  3.290595
