35
Energy: -36757.702472 eV PBE+vdW (tier 2 basis)
C    0.318280  0.250386  0.834763
C    0.004033  -0.449585  2.127431
O    0.799908  -1.216471  2.668439
H    -0.546082  0.513851  0.215379
H    1.016067  -0.350866  0.244134
H    0.845334  1.184898  1.084528
N    -1.194440  -0.159846  2.794307
C    -2.497760  -0.206486  2.132194
C    -3.411818  0.910937  2.683223
O    -4.586673  0.630030  3.181670
H    -1.184505  -0.605219  3.714386
H    -2.337015  0.052394  1.073973
C    -3.150416  -1.617045  2.211877
C    -2.180890  -2.818213  2.158882
C    -1.459025  -3.112012  0.829667
C    -0.412832  -4.228887  0.957578
N    0.958934  -3.733993  1.411030
H    -3.908276  -1.701282  1.417876
H    -3.681055  -1.699496  3.173712
H    -2.776566  -3.706435  2.415507
H    -1.450295  -2.722557  2.976128
H    -0.994960  -2.218340  0.384578
H    -2.192098  -3.450474  0.083553
H    -0.249993  -4.738734  0.002003
H    -0.727863  -4.984946  1.686865
H    1.481400  -4.477632  1.894020
H    0.919209  -2.895608  2.041112
H    1.531612  -3.455219  0.603668
N    -3.036214  2.169901  2.671087
C    -1.808384  2.775426  2.134043
H    -3.693629  2.826247  3.093712
H    -0.950880  2.515564  2.764560
H    -1.947422  3.860039  2.134454
H    -1.635535  2.444763  1.104957
Ca    -6.458571  0.279245  3.882195
