35
Energy: -36758.4134214 eV PBE+vdW (tier 2 basis)
C    0.101130  -0.269086  0.023940
C    0.045902  -0.370166  1.516771
O    1.045050  -0.629046  2.208219
H    0.400111  -1.242575  -0.388242
H    0.896573  0.436373  -0.250519
H    -0.842424  0.041438  -0.437967
N    -1.171732  -0.170907  2.125727
C    -1.305578  -0.083600  3.579968
C    -1.208987  -1.498282  4.213476
O    -2.189568  -2.069083  4.862469
H    -2.003627  -0.059960  1.554332
H    -0.392114  0.419675  3.942332
C    -2.528404  0.744455  3.998321
C    -2.297949  2.267994  4.099247
C    -2.069882  3.050374  2.788491
C    -2.002458  4.547595  3.099769
N    -1.808020  5.404200  1.855395
H    -2.838158  0.415482  4.999851
H    -3.379864  0.521779  3.335130
H    -1.453995  2.451655  4.782709
H    -3.183726  2.685982  4.600592
H    -2.897190  2.853085  2.087185
H    -1.138152  2.727860  2.297979
H    -1.164743  4.791530  3.765151
H    -2.927229  4.908102  3.567590
H    -2.577868  5.284427  1.180858
H    -0.929202  5.182093  1.365700
H    -1.773119  6.406061  2.099618
N    -0.059100  -2.096644  4.066983
C    0.277509  -3.428884  4.551334
H    0.620819  -1.549041  3.441978
H    -0.363853  -4.192670  4.086072
H    0.203638  -3.474669  5.648162
H    1.313843  -3.649005  4.278251
Ca    -3.310190  -3.366201  5.925317
