35
Energy: -36759.3376697 eV PBE+vdW (tier 2 basis)
C    0.746193  0.117978  0.555552
C    0.909690  0.657544  1.932989
O    2.052681  1.016042  2.356824
H    0.966120  0.890643  -0.196405
H    -0.241880  -0.308133  0.361842
H    1.510132  -0.661662  0.412957
N    -0.156813  0.764892  2.773743
C    -1.393605  1.439741  2.368198
C    -1.026140  2.948353  2.115525
O    0.166640  3.356651  2.323979
H    0.127422  0.999292  3.727438
H    -1.720327  1.025797  1.401617
C    -2.516379  1.267866  3.415256
C    -3.246886  -0.092973  3.485055
C    -2.484278  -1.262879  4.140679
C    -3.357865  -2.309348  4.836845
N    -4.227874  -3.139029  3.895663
H    -3.282643  2.027535  3.208293
H    -2.119837  1.532630  4.409722
H    -3.594692  -0.366787  2.475868
H    -4.156844  0.105566  4.073220
H    -1.845274  -0.878995  4.951383
H    -1.797809  -1.751677  3.432512
H    -4.051393  -1.849200  5.552351
H    -2.740618  -3.035606  5.378937
H    -4.775292  -3.832863  4.428770
H    -3.664334  -3.664070  3.211369
H    -4.903586  -2.564658  3.372630
N    -1.958334  3.762050  1.667434
C    -1.767356  5.191358  1.374878
H    -2.883549  3.378392  1.486085
H    -1.265431  5.681777  2.215370
H    -2.750601  5.645679  1.226993
H    -1.173703  5.316834  0.460682
Ca    2.301144  3.148719  2.618006
