35
Energy: -36759.458209 eV PBE+vdW (tier 2 basis)
C    0.337986  -0.444844  0.704277
C    0.076543  -0.260615  2.156846
O    1.020882  -0.354843  3.002210
H    1.052727  0.303275  0.332587
H    -0.563955  -0.437429  0.086718
H    0.839422  -1.419023  0.587078
N    -1.180166  -0.011815  2.618367
C    -2.009262  1.070084  2.083305
C    -1.295035  2.418138  2.458311
O    -0.216977  2.396987  3.142786
H    -1.242775  -0.095336  3.635652
H    -2.012293  1.000886  0.984905
C    -3.449924  0.982730  2.640757
C    -4.257442  -0.276257  2.251941
C    -4.874259  -0.241571  0.841910
C    -5.674419  -1.481144  0.432422
N    -7.043323  -1.581259  1.100603
H    -4.004662  1.882065  2.335194
H    -3.390789  1.041404  3.738878
H    -5.049452  -0.370970  3.010931
H    -3.628192  -1.173006  2.363276
H    -5.497694  0.658897  0.713196
H    -4.084536  -0.157400  0.079216
H    -5.152877  -2.415876  0.674189
H    -5.879841  -1.473299  -0.644428
H    -7.549201  -2.416973  0.767920
H    -7.635361  -0.766095  0.881907
H    -6.982892  -1.656701  2.125510
N    -1.817654  3.552882  2.042939
C    -1.259890  4.888204  2.308834
H    -2.662232  3.513274  1.477080
H    -1.997664  5.635376  2.005058
H    -0.339263  5.038219  1.731246
H    -1.050722  5.001082  3.377813
Ca    1.554598  1.483974  4.000939
