35
Energy: -36758.0832426 eV PBE+vdW (tier 2 basis)
C    -0.280353  0.261620  -0.265604
C    0.071049  -0.024334  1.163604
O    1.212556  -0.285483  1.532020
H    -1.297132  0.638436  -0.417391
H    -0.121425  -0.633425  -0.883825
H    0.432451  1.011607  -0.636516
N    -0.949138  0.058766  2.135356
C    -2.223992  -0.637499  1.966633
C    -3.397223  0.332182  2.169627
O    -4.629044  -0.079945  2.086710
H    -0.539288  -0.077165  3.061494
H    -2.298870  -0.973771  0.920289
C    -2.337446  -1.883882  2.907658
C    -1.024592  -2.669263  3.121336
C    -0.387403  -3.292741  1.868491
C    1.018351  -3.867739  2.059097
N    2.065649  -2.816980  2.423973
H    -3.108566  -2.553852  2.501834
H    -2.688915  -1.554777  3.897201
H    -1.248822  -3.465660  3.846115
H    -0.304943  -2.016676  3.641041
H    -0.360189  -2.586549  1.025602
H    -1.006318  -4.133170  1.520181
H    1.360150  -4.329415  1.126219
H    1.053243  -4.632813  2.844055
H    2.995189  -3.097383  2.082745
H    2.154038  -2.701661  3.441053
H    1.843400  -1.869214  2.027679
N    -3.115301  1.583551  2.418516
C    -4.058302  2.679031  2.643777
H    -2.104719  1.774371  2.426789
H    -4.621042  2.897607  1.726219
H    -3.492704  3.572871  2.921629
H    -4.741254  2.433900  3.467247
Ca    -6.614046  -0.486229  1.963344
