35
Energy: -36758.4991219 eV PBE+vdW (tier 2 basis)
C    0.030237  0.710123  0.187157
C    -0.683863  1.284706  1.356556
O    -0.235906  2.394350  1.883012
H    -0.237558  1.289918  -0.709837
H    -0.224357  -0.337110  0.002189
H    1.113758  0.790307  0.338508
N    -1.737846  0.714627  1.904224
C    -2.579311  -0.356266  1.322894
C    -2.992764  0.108539  -0.113294
O    -3.078849  1.307586  -0.356453
H    -2.158023  1.226232  2.681515
H    -1.988541  -1.285020  1.293687
C    -3.803401  -0.505184  2.259706
C    -4.827941  -1.618170  1.965291
C    -4.335704  -3.060475  2.211552
C    -5.394292  -4.041354  2.714843
N    -6.502483  -4.335253  1.706096
H    -4.342052  0.455266  2.240482
H    -3.427575  -0.646179  3.286397
H    -5.220562  -1.502030  0.943809
H    -5.673431  -1.408570  2.639670
H    -3.573263  -3.063757  3.006487
H    -3.832454  -3.479621  1.325393
H    -5.903232  -3.663828  3.610884
H    -4.951055  -5.014858  2.956012
H    -7.186019  -4.999723  2.100352
H    -6.132932  -4.760234  0.843663
H    -7.024135  -3.487990  1.441166
N    -3.258052  -0.885590  -0.986906
C    -3.690991  -0.630809  -2.363797
H    -3.014484  -1.837344  -0.733932
H    -4.391866  -1.410893  -2.678238
H    -2.835767  -0.621623  -3.052116
H    -4.187276  0.342932  -2.401038
Ca    0.596865  4.195563  2.242849
