35
Energy: -36760.1309786 eV PBE+vdW (tier 2 basis)
C    2.298823  -0.132393  0.279188
C    1.711530  -0.708902  1.521390
O    2.462035  -1.166111  2.439719
H    2.977550  -0.860847  -0.184347
H    2.915197  0.735625  0.558769
H    1.550618  0.184001  -0.454836
N    0.374325  -0.725970  1.659776
C    -0.371756  -1.084612  2.878161
C    -0.416203  -2.624376  3.062136
O    0.658496  -3.210041  3.414534
H    -0.163029  -0.372521  0.872940
H    0.251933  -0.756976  3.724944
C    -1.688350  -0.275867  3.004189
C    -2.690954  -0.212622  1.830303
C    -3.880496  0.710536  2.184604
C    -4.873955  0.852270  1.029792
N    -6.028095  1.778534  1.389281
H    -1.378232  0.753482  3.237920
H    -2.197045  -0.634056  3.912259
H    -3.077805  -1.206589  1.552010
H    -2.205890  0.181181  0.922257
H    -3.490829  1.703462  2.460671
H    -4.397008  0.313651  3.073126
H    -5.332598  -0.105151  0.752473
H    -4.410910  1.284479  0.133816
H    -5.703155  2.729779  1.619487
H    -6.563985  1.433710  2.199950
H    -6.691456  1.867450  0.603813
N    -1.539706  -3.292662  2.890033
C    -1.714332  -4.739064  3.069040
H    -2.360516  -2.763369  2.610655
H    -1.806123  -5.227579  2.090571
H    -2.626267  -4.918621  3.648836
H    -0.853499  -5.145738  3.603393
Ca    2.765689  -2.873093  3.661147
