35
Energy: -36758.0459732 eV PBE+vdW (tier 2 basis)
C    -1.430055  -0.715609  -1.525218
C    -0.429944  -0.671667  -0.425955
O    0.745418  -1.208715  -0.660308
H    -2.427308  -0.392776  -1.229759
H    -1.487191  -1.742627  -1.911579
H    -1.088729  -0.074719  -2.352672
N    -0.618435  -0.143103  0.769028
C    -1.694341  0.658210  1.446631
C    -2.313923  -0.101068  2.659344
O    -2.349708  0.512291  3.735090
H    0.197533  -0.244422  1.377092
H    -1.109483  1.447579  1.938807
C    -2.738651  1.356920  0.549119
C    -3.341208  2.654281  1.137671
C    -4.300624  2.526853  2.349933
C    -3.762031  3.205561  3.621099
N    -4.084102  2.399216  4.861748
H    -3.550673  0.668967  0.273113
H    -2.237251  1.657637  -0.381564
H    -3.883270  3.127790  0.309661
H    -2.521219  3.349351  1.374538
H    -4.512063  1.467729  2.555217
H    -5.269816  2.971034  2.092570
H    -4.177561  4.209154  3.765112
H    -2.669612  3.282870  3.611789
H    -3.755274  2.869827  5.716130
H    -5.094154  2.237635  4.971108
H    -3.591396  1.484567  4.776646
N    -2.815359  -1.343500  2.528503
C    -2.978643  -2.185838  1.347896
H    -3.165700  -1.722034  3.407715
H    -3.709373  -2.965215  1.584823
H    -2.041898  -2.685349  1.063240
H    -3.376975  -1.619243  0.499334
Ca    2.443984  -2.002987  -1.437199
