35
Energy: -36757.7980002 eV PBE+vdW (tier 2 basis)
C    0.388285  -0.533005  0.888666
C    -0.099309  0.317061  2.007148
O    0.802722  0.825647  2.818178
H    -0.400946  -1.095190  0.389517
H    1.136620  -1.238165  1.273601
H    0.890549  0.101717  0.142128
N    -1.360145  0.614457  2.254860
C    -2.699004  0.313751  1.652938
C    -3.563829  -0.687788  2.498114
O    -4.747543  -0.394521  2.617086
H    -1.466296  1.203046  3.083869
H    -3.227680  1.259258  1.829457
C    -2.779719  0.004339  0.134847
C    -3.833122  0.846108  -0.633124
C    -5.309995  0.785966  -0.196986
C    -6.092526  -0.487633  -0.512595
N    -6.688798  -0.471459  -1.920077
H    -2.943551  -1.072655  -0.014718
H    -1.821742  0.237496  -0.345044
H    -3.726692  0.580930  -1.697748
H    -3.523345  1.900349  -0.577765
H    -5.835783  1.651394  -0.631270
H    -5.391526  0.921174  0.889554
H    -6.947473  -0.602738  0.163358
H    -5.488748  -1.401060  -0.449779
H    -7.212442  -1.336922  -2.118430
H    -5.970656  -0.372508  -2.650730
H    -7.347679  0.313466  -2.031468
N    -3.035273  -1.812044  3.039403
C    -1.764041  -2.480341  2.796983
H    -3.732982  -2.339211  3.562966
H    -1.848063  -3.510013  3.157903
H    -0.931787  -2.012830  3.343615
H    -1.524847  -2.536078  1.727646
Ca    2.415474  1.512034  3.827542
