35
Energy: -36758.7645646 eV PBE+vdW (tier 2 basis)
C    -0.514788  0.200047  -0.362831
C    -0.274818  0.479193  1.079043
O    0.969959  0.557298  1.498172
H    -0.055665  -0.762070  -0.631241
H    -0.027433  0.973316  -0.973294
H    -1.577018  0.166856  -0.617957
N    -1.224477  0.655610  1.955066
C    -2.694562  0.699487  1.847300
C    -3.037245  1.560201  3.111093
O    -2.226113  1.532418  4.045663
H    -1.012190  0.883493  2.962045
H    -2.993826  1.203066  0.917916
C    -3.259502  -0.744630  1.956310
C    -4.782428  -0.936670  2.094668
C    -5.618237  -0.833725  0.801455
C    -7.054117  -1.281330  1.082446
N    -7.919528  -1.319258  -0.171150
H    -2.794458  -1.191527  2.846801
H    -2.888499  -1.320746  1.094205
H    -5.183644  -0.256048  2.859865
H    -4.918170  -1.947781  2.506314
H    -5.175132  -1.481875  0.027714
H    -5.616709  0.193680  0.401684
H    -7.569123  -0.613686  1.784370
H    -7.084888  -2.297776  1.494769
H    -8.877786  -1.630318  0.050898
H    -7.544999  -1.972381  -0.874842
H    -7.996930  -0.394679  -0.618739
N    -4.188280  2.241459  3.108445
C    -4.629231  3.075084  4.232595
H    -4.717090  2.294353  2.244196
H    -5.707833  2.953563  4.376963
H    -4.406654  4.132230  4.040593
H    -4.101504  2.754498  5.134517
Ca    2.889689  0.725574  2.050551
