35
Energy: -36759.9745428 eV PBE+vdW (tier 2 basis)
C    -0.495057  1.390014  0.939144
C    -0.553665  -0.029065  1.396590
O    0.396852  -0.826333  1.122459
H    -0.403086  1.402282  -0.156870
H    0.415690  1.862731  1.332893
H    -1.363799  1.987617  1.233972
N    -1.631635  -0.424697  2.097579
C    -2.017228  -1.771170  2.584715
C    -1.012492  -2.328080  3.614212
O    0.152569  -2.697388  3.248951
H    -2.305777  0.312079  2.287070
H    -2.963516  -1.600736  3.111288
C    -2.262478  -2.799162  1.452453
C    -3.442726  -2.493724  0.502628
C    -4.819412  -3.029296  0.954394
C    -5.858201  -2.825588  -0.152205
N    -7.207518  -3.445125  0.187135
H    -2.399098  -3.786371  1.920008
H    -1.347906  -2.877589  0.850218
H    -3.503233  -1.412055  0.305135
H    -3.198900  -2.952772  -0.466219
H    -5.156123  -2.531724  1.878292
H    -4.729460  -4.104260  1.179625
H    -5.543952  -3.296383  -1.092338
H    -6.054732  -1.764571  -0.350395
H    -7.137343  -4.462664  0.337676
H    -7.882796  -3.299928  -0.579723
H    -7.623315  -3.035648  1.036483
N    -1.370221  -2.465369  4.879094
C    -2.629105  -2.104482  5.546566
H    -0.656361  -2.897118  5.469900
H    -2.938271  -1.086100  5.287421
H    -2.454710  -2.136187  6.626109
H    -3.422346  -2.823706  5.306857
Ca    1.723350  -2.301434  1.865883
