35
Energy: -36758.146093 eV PBE+vdW (tier 2 basis)
C    0.176213  -0.483457  -0.181868
C    0.191494  -0.255208  1.305279
O    1.091890  -0.623439  2.040198
H    -0.225405  -1.489655  -0.377379
H    1.204182  -0.465821  -0.557652
H    -0.431175  0.240474  -0.738398
N    -0.938500  0.448381  1.789190
C    -1.440426  0.490340  3.164557
C    -2.022224  1.883742  3.434657
O    -2.966611  2.036197  4.320114
H    -1.682346  0.492508  1.093893
H    -2.291642  -0.206050  3.267246
C    -0.431323  0.098530  4.287431
C    0.790162  1.013561  4.484620
C    1.939421  0.366422  5.292939
C    2.798612  -0.600133  4.476155
N    3.981894  -1.104454  5.295870
H    -0.125269  -0.928430  4.062163
H    -1.010433  0.048711  5.223218
H    0.489663  1.924031  5.024348
H    1.187787  1.338440  3.514336
H    1.531826  -0.146532  6.179592
H    2.579821  1.179063  5.669739
H    3.227393  -0.121597  3.588532
H    2.258530  -1.491081  4.139927
H    4.589263  -0.332161  5.607192
H    4.567271  -1.748098  4.742957
H    3.680398  -1.614586  6.138590
N    -1.540312  2.897213  2.764403
C    -1.899442  4.310487  2.869900
H    -0.847218  2.615137  2.059962
H    -2.714108  4.550860  2.173268
H    -2.192481  4.554366  3.895917
H    -1.025773  4.912759  2.601062
Ca    -4.633592  2.205659  5.452994
