35
Energy: -36758.5480557 eV PBE+vdW (tier 2 basis)
C    -0.392929  0.276040  -1.168083
C    0.030635  0.780440  0.167930
O    1.237980  1.287262  0.280748
H    0.340204  -0.458337  -1.530276
H    -0.402853  1.107998  -1.887947
H    -1.380103  -0.192211  -1.165045
N    -0.736600  0.751475  1.227122
C    -2.171911  0.422157  1.335189
C    -2.611123  1.311400  2.530889
O    -1.746701  1.585060  3.378964
H    -0.427477  1.154218  2.138613
H    -2.672031  0.731559  0.409503
C    -2.447291  -1.089925  1.565522
C    -2.235260  -1.700703  2.970906
C    -3.422837  -1.511834  3.941392
C    -3.613783  -2.604287  4.990852
N    -2.564968  -2.583227  6.100858
H    -1.824330  -1.640922  0.846431
H    -3.483830  -1.276942  1.249539
H    -1.300992  -1.324243  3.416077
H    -2.086469  -2.779011  2.805895
H    -4.362186  -1.527047  3.367205
H    -3.395271  -0.526886  4.430749
H    -3.570429  -3.611462  4.556895
H    -4.577541  -2.492899  5.501876
H    -2.755863  -3.318076  6.798800
H    -2.562087  -1.682130  6.600285
H    -1.614864  -2.745315  5.741326
N    -3.889565  1.703408  2.604125
C    -4.952392  1.523574  1.610602
H    -4.092026  2.304615  3.401440
H    -5.093562  0.467389  1.351687
H    -4.762799  2.106888  0.699631
H    -5.888887  1.882133  2.047152
Ca    3.036199  2.161899  0.071628
