35
Energy: -36758.6100248 eV PBE+vdW (tier 2 basis)
C    0.518909  -1.144436  1.279773
C    -0.263296  0.131441  1.340729
O    0.188125  1.205146  0.898801
H    1.538859  -0.952083  1.635365
H    0.613397  -1.448991  0.227545
H    0.077208  -1.969290  1.849181
N    -1.521331  0.071541  1.882983
C    -2.378979  1.226423  2.180991
C    -2.856992  1.938493  0.898608
O    -4.138516  2.120279  0.687467
H    -1.861079  -0.837310  2.180144
H    -3.280530  0.809768  2.648540
C    -1.749700  2.259335  3.160605
C    -1.285113  1.670505  4.504989
C    -0.797809  2.786505  5.450178
C    -0.428080  2.372706  6.874100
N    0.950061  1.724723  6.988332
H    -2.510583  3.034173  3.346069
H    -0.906224  2.760540  2.667213
H    -0.486691  0.934517  4.318383
H    -2.112356  1.123492  4.985377
H    -1.602789  3.527091  5.572689
H    0.036014  3.346592  4.995160
H    -1.137010  1.653859  7.303919
H    -0.387049  3.247416  7.533785
H    1.163940  1.489189  7.969526
H    1.692532  2.360560  6.661635
H    1.023498  0.854299  6.445086
N    -1.960492  2.362114  0.056935
C    -2.223287  3.050842  -1.201393
H    -0.955357  2.063832  0.331587
H    -1.265458  3.317889  -1.656990
H    -2.791138  3.975623  -1.028722
H    -2.762228  2.396430  -1.902023
Ca    -5.998744  2.428528  -0.013992
