35
Energy: -36758.4750957 eV PBE+vdW (tier 2 basis)
C    0.627732  0.317681  0.880899
C    0.203032  -0.426138  2.098622
O    1.146085  -1.023640  2.785479
H    -0.205786  0.652825  0.264535
H    1.280086  -0.310355  0.265518
H    1.200757  1.200492  1.209720
N    -0.988966  -0.306830  2.698512
C    -2.290671  -0.372212  2.007525
C    -2.093129  -1.374165  0.813603
O    -0.977649  -1.879024  0.627665
H    -1.003736  -0.737542  3.621666
H    -2.935066  -0.899766  2.727754
C    -3.032215  0.965033  1.748013
C    -2.479678  1.950699  0.710601
C    -3.258940  3.284176  0.612953
C    -4.631488  3.178740  -0.050766
N    -5.264445  4.555781  -0.213220
H    -3.110285  1.467245  2.724391
H    -4.066289  0.683201  1.493355
H    -2.424751  1.481277  -0.284619
H    -1.453924  2.230373  0.984410
H    -2.639181  3.984871  0.032022
H    -3.364871  3.719103  1.620047
H    -5.350857  2.590440  0.531581
H    -4.570343  2.755862  -1.061621
H    -4.680193  5.176123  -0.793766
H    -5.397468  5.025540  0.694795
H    -6.189451  4.497067  -0.665193
N    -3.176108  -1.659723  0.082640
C    -3.170852  -2.666397  -0.985166
H    -4.076702  -1.296926  0.376644
H    -3.274219  -3.677727  -0.571389
H    -2.229473  -2.602082  -1.538647
H    -4.007184  -2.467323  -1.661361
Ca    2.716664  -2.144189  3.342672
