35
Energy: -36758.4427512 eV PBE+vdW (tier 2 basis)
C    0.330223  -1.469122  -0.359418
C    0.220921  -1.286172  1.118092
O    1.149888  -1.788603  1.890099
H    0.344612  -2.542245  -0.600661
H    1.269932  -1.028776  -0.723317
H    -0.500644  -1.010670  -0.905391
N    -0.803169  -0.630465  1.611932
C    -1.181986  -0.362725  3.006540
C    -2.727165  -0.274441  2.958244
O    -3.235112  0.217778  1.924366
H    -1.534625  -0.301881  0.964570
H    -0.834434  -1.202236  3.619707
C    -0.589226  0.973165  3.567620
C    -1.412468  2.256224  3.363964
C    -1.428393  2.878123  1.950294
C    -2.654722  3.754700  1.694716
N    -3.872159  2.917455  1.299751
H    0.426014  1.094721  3.161102
H    -0.466747  0.823921  4.649230
H    -1.011986  3.007255  4.059580
H    -2.438736  2.075094  3.720975
H    -1.360893  2.119253  1.156220
H    -0.542809  3.515252  1.820214
H    -2.492015  4.469444  0.881045
H    -2.935969  4.323900  2.588826
H    -4.750072  3.345353  1.621461
H    -3.942663  2.836711  0.277374
H    -3.808618  1.937569  1.668645
N    -3.437370  -0.657165  4.016489
C    -2.967848  -1.269070  5.264397
H    -4.446460  -0.563061  3.900524
H    -3.784305  -1.225413  5.991154
H    -2.122141  -0.716174  5.688177
H    -2.701566  -2.323967  5.117037
Ca    2.821522  -2.830814  2.394951
