35
Energy: -36757.9728473 eV PBE+vdW (tier 2 basis)
C    -1.051581  0.557633  3.072176
C    -0.912643  -0.838398  2.569442
O    -0.204784  -1.707748  3.245027
H    -2.108538  0.854314  3.134702
H    -0.560518  1.269148  2.389248
H    -0.597125  0.663025  4.060746
N    -1.498145  -1.221872  1.449885
C    -2.252334  -0.344026  0.525076
C    -3.733857  0.016871  0.864384
O    -4.183397  0.945208  0.204062
H    -1.375994  -2.199782  1.183342
H    -1.763650  0.636778  0.588713
C    -2.102692  -0.796977  -0.947398
C    -2.968313  -1.955168  -1.484485
C    -4.472054  -1.696087  -1.731677
C    -4.865181  -0.553418  -2.666119
N    -4.660531  -0.886639  -4.143156
H    -1.042448  -1.040036  -1.112362
H    -2.276643  0.112548  -1.537744
H    -2.900732  -2.835668  -0.824680
H    -2.490964  -2.294102  -2.417974
H    -4.986530  -1.481215  -0.786486
H    -4.930596  -2.633156  -2.086566
H    -4.313592  0.374550  -2.474408
H    -5.933129  -0.327546  -2.567296
H    -4.958044  -0.101865  -4.742116
H    -5.216042  -1.708418  -4.423412
H    -3.677760  -1.087365  -4.372331
N    -4.452383  -0.620424  1.822951
C    -4.216468  -1.875512  2.528855
H    -5.369997  -0.194881  1.950301
H    -3.572182  -1.749429  3.411460
H    -3.797540  -2.645938  1.868986
H    -5.181932  -2.251677  2.882280
Ca    1.086826  -2.587652  4.537646
