35
Energy: -36758.5597711 eV PBE+vdW (tier 2 basis)
C    0.015879  -1.125057  0.601876
C    -0.015904  -0.378014  1.889201
O    1.024078  -0.395768  2.678208
H    -0.492801  -0.582320  -0.204075
H    -0.501126  -2.091910  0.723025
H    1.046864  -1.329997  0.298905
N    -1.089782  0.295774  2.266673
C    -2.413108  0.313857  1.589254
C    -2.523710  1.270004  0.371628
O    -3.355163  0.976798  -0.498864
H    -1.041398  0.755329  3.178765
H    -2.579307  -0.687039  1.170022
C    -3.501752  0.583622  2.658456
C    -4.951082  0.497600  2.134280
C    -5.525720  1.830454  1.609171
C    -6.656533  1.698685  0.595624
N    -6.174159  1.067344  -0.714347
H    -3.327789  1.567799  3.124631
H    -3.367998  -0.172291  3.445945
H    -5.585819  0.140752  2.955617
H    -4.996139  -0.291896  1.368568
H    -4.741104  2.465735  1.172544
H    -5.930405  2.409331  2.451626
H    -7.057829  2.684588  0.337574
H    -7.485928  1.082481  0.962056
H    -6.420942  0.072345  -0.771560
H    -6.603310  1.524461  -1.528426
H    -5.131618  1.129903  -0.796868
N    -1.747470  2.362298  0.333198
C    -1.816029  3.358877  -0.740826
H    -1.140738  2.563668  1.120766
H    -2.561957  4.131609  -0.512994
H    -2.087343  2.860030  -1.675789
H    -0.836426  3.833180  -0.852627
Ca    2.772852  -0.787527  3.643307
