35
Energy: -36759.9936937 eV PBE+vdW (tier 2 basis)
C    0.925396  2.723302  0.861483
C    0.611120  1.833235  2.016961
O    1.492210  1.032953  2.463757
H    1.231575  2.098965  0.009368
H    1.790557  3.353582  1.111500
H    0.092707  3.365667  0.556928
N    -0.616319  1.907991  2.560451
C    -1.238886  1.094579  3.632913
C    -0.514026  1.240684  4.990152
O    0.649825  0.758160  5.172435
H    -1.219640  2.615731  2.149518
H    -2.232654  1.545616  3.758132
C    -1.421022  -0.397375  3.254413
C    -2.452048  -0.685790  2.138556
C    -3.922822  -0.633430  2.594573
C    -4.975451  -0.885442  1.511214
N    -5.118525  -2.352849  1.115743
H    -1.702886  -0.942018  4.168759
H    -0.448115  -0.802455  2.946035
H    -2.211777  -1.687608  1.750079
H    -2.296237  0.002863  1.292916
H    -4.167650  0.366022  2.986535
H    -4.089205  -1.321083  3.440269
H    -4.761522  -0.342669  0.581777
H    -5.970358  -0.584408  1.859738
H    -5.382010  -2.940429  1.920843
H    -4.256299  -2.744332  0.712350
H    -5.859892  -2.466519  0.406730
N    -1.169022  1.842528  5.966549
C    -0.678918  2.028388  7.337506
H    -2.084539  2.234599  5.757035
H    -0.263181  3.037945  7.453355
H    0.088636  1.282709  7.557337
H    -1.519299  1.908506  8.029122
Ca    2.486276  0.311385  4.187968
