35
Energy: -36757.6942081 eV PBE+vdW (tier 2 basis)
C    1.221817  0.751588  0.331370
C    0.787578  0.735059  1.771100
O    1.549796  0.793413  2.725327
H    0.438811  1.075926  -0.364336
H    1.538738  -0.263582  0.048165
H    2.100209  1.397019  0.225661
N    -0.601868  0.663775  1.977756
C    -1.114202  0.267671  3.289623
C    -2.614860  0.012653  3.256370
O    -3.048057  -1.053010  3.887201
H    -1.124073  0.333533  1.168888
H    -0.688264  -0.714652  3.564297
C    -0.737762  1.186990  4.511886
C    -0.922336  2.715640  4.454590
C    0.078162  3.544852  3.621299
C    1.535588  3.571743  4.085272
N    1.779426  4.563507  5.222256
H    0.304791  0.936600  4.735359
H    -1.327937  0.809698  5.362275
H    -0.903179  3.058204  5.502775
H    -1.935435  2.977255  4.118452
H    -0.298498  4.578245  3.550147
H    0.099448  3.186306  2.585509
H    2.196718  3.897927  3.274636
H    1.898309  2.598088  4.432775
H    1.547620  5.526960  4.938549
H    2.771082  4.562002  5.504634
H    1.224911  4.348919  6.061989
N    -3.512477  0.773199  2.670721
C    -3.374608  2.024798  1.910304
H    -4.475501  0.441450  2.759203
H    -3.967148  2.802290  2.407905
H    -3.780019  1.869412  0.902257
H    -2.327924  2.322074  1.848175
Ca    -3.554328  -2.812874  4.754155
