35
Energy: -36758.1266182 eV PBE+vdW (tier 2 basis)
C    1.034171  0.263295  1.060274
C    0.381580  0.290490  2.412787
O    1.009655  0.214699  3.468522
H    1.941801  0.877588  1.076794
H    0.387563  0.596843  0.240795
H    1.355817  -0.769072  0.853888
N    -1.008306  0.421467  2.394604
C    -1.920813  0.096143  3.498649
C    -3.296829  0.682577  3.195143
O    -4.361538  0.094134  3.655468
H    -1.390715  0.212560  1.472924
H    -2.071189  -0.997295  3.545568
C    -1.498528  0.518399  4.946789
C    -1.262715  2.004077  5.292168
C    0.143573  2.594886  5.067270
C    1.228774  1.959621  5.955967
N    2.514986  1.739554  5.188957
H    -0.625388  -0.094427  5.195472
H    -2.309189  0.142254  5.589655
H    -1.511789  2.120176  6.357705
H    -1.985900  2.651597  4.772835
H    0.093807  3.671398  5.277462
H    0.426175  2.504822  4.011200
H    0.941692  0.966955  6.320941
H    1.467597  2.581060  6.826081
H    3.235179  1.294280  5.774279
H    2.911531  2.621666  4.838544
H    2.301178  1.112765  4.378030
N    -3.390512  1.790832  2.501926
C    -4.617644  2.515670  2.155685
H    -2.496575  2.171764  2.181533
H    -4.341286  3.423602  1.612807
H    -5.163055  2.801432  3.063503
H    -5.253337  1.902318  1.504317
Ca    -6.010507  -0.927947  4.259518
