35
Energy: -36759.7333744 eV PBE+vdW (tier 2 basis)
C    -0.066087  -1.036701  0.397730
C    -0.110675  -0.505416  1.786236
O    0.913078  0.034132  2.317083
H    -1.007243  -1.493252  0.074569
H    0.743360  -1.775657  0.314472
H    0.189481  -0.215167  -0.288097
N    -1.251607  -0.589174  2.495961
C    -1.383566  0.026245  3.824244
C    -0.440483  -0.675746  4.841762
O    0.575813  0.005430  5.221123
H    -2.063548  -1.001019  2.043518
H    -0.905461  1.012156  3.735244
C    -2.834486  0.383617  4.245369
C    -3.898103  -0.698554  4.494062
C    -5.252717  -0.153022  5.012875
C    -6.117321  0.556830  3.969762
N    -7.483493  0.909291  4.545717
H    -3.178316  1.088981  3.472212
H    -2.723966  0.985657  5.160672
H    -3.548052  -1.388649  5.270129
H    -4.077414  -1.308657  3.593806
H    -5.071023  0.517767  5.867973
H    -5.813732  -1.014568  5.406870
H    -6.316524  -0.078250  3.097129
H    -5.689211  1.504348  3.620875
H    -8.076100  1.384766  3.847913
H    -7.408877  1.537346  5.360183
H    -7.995188  0.069066  4.856036
N    -0.579974  -1.913604  5.284816
C    -1.497799  -2.988710  4.904085
H    0.135786  -2.179643  5.965680
H    -2.078017  -2.717831  4.021339
H    -2.169524  -3.230398  5.736710
H    -0.904417  -3.881618  4.671817
Ca    2.148710  0.708148  3.929181
