35
Energy: -36758.5797212 eV PBE+vdW (tier 2 basis)
C    0.237397  -1.765206  0.913001
C    -0.282528  -0.416683  1.292668
O    0.222851  0.640509  0.697862
H    0.079589  -1.938924  -0.161272
H    -0.249786  -2.573056  1.468532
H    1.318152  -1.818713  1.111352
N    -1.213204  -0.328717  2.204142
C    -1.830619  0.809436  2.895780
C    -1.906783  0.258685  4.361157
O    -1.889224  -0.971627  4.496826
H    -1.435726  -1.175634  2.786984
H    -1.180692  1.690623  2.820235
C    -3.248740  1.150265  2.354180
C    -4.270495  0.003173  2.459445
C    -5.706993  0.340344  1.998901
C    -6.531277  1.082979  3.050054
N    -7.991121  1.196412  2.625620
H    -3.584592  2.033574  2.918573
H    -3.152649  1.473504  1.306149
H    -4.302887  -0.387965  3.487376
H    -3.930079  -0.838197  1.839755
H    -6.208479  -0.613189  1.771249
H    -5.685177  0.915222  1.059156
H    -6.541571  0.550445  4.009442
H    -6.189846  2.110345  3.225652
H    -8.417192  0.267098  2.490567
H    -8.554768  1.689767  3.334155
H    -8.095646  1.710510  1.738640
N    -2.033354  1.150979  5.348768
C    -2.124400  0.778696  6.765134
H    -1.970966  2.139724  5.125810
H    -2.972004  1.293600  7.230793
H    -1.202793  1.055679  7.291297
H    -2.266157  -0.302932  6.833050
Ca    1.572638  1.640313  -0.422797
