35
Energy: -36759.807484 eV PBE+vdW (tier 2 basis)
C    0.665982  2.425284  1.786404
C    0.071674  1.321147  2.595887
O    0.565742  1.025156  3.728040
H    1.729957  2.205269  1.616663
H    0.630607  3.359394  2.364949
H    0.171601  2.585526  0.822704
N    -0.988798  0.664939  2.090008
C    -1.725967  -0.510150  2.612614
C    -2.403510  -0.224375  3.968993
O    -1.704943  -0.075819  5.026048
H    -1.320702  1.022466  1.198273
H    -2.526610  -0.668161  1.880923
C    -0.871763  -1.800732  2.697204
C    -0.465239  -2.457775  1.358706
C    -1.605808  -3.194485  0.619497
C    -1.202308  -4.424936  -0.196414
N    -0.425292  -4.118018  -1.474296
H    -1.433643  -2.533489  3.297084
H    0.041597  -1.580378  3.266004
H    0.321013  -3.184650  1.614769
H    0.016827  -1.712768  0.706032
H    -2.198279  -2.510747  -0.009215
H    -2.315182  -3.597872  1.359563
H    -2.089727  -4.979406  -0.524364
H    -0.567798  -5.108874  0.381578
H    -0.968468  -3.528695  -2.122082
H    -0.203201  -4.990658  -1.979037
H    0.469367  -3.643271  -1.290630
N    -3.721739  -0.178917  4.050432
C    -4.737701  -0.305110  2.995265
H    -4.075987  -0.047505  5.000463
H    -4.858306  -1.351496  2.687639
H    -4.496353  0.326831  2.133784
H    -5.690264  0.041371  3.406996
Ca    0.161322  0.623776  5.771729
