35
Energy: -36760.0502792 eV PBE+vdW (tier 2 basis)
C    -0.105334  0.651987  -0.010601
C    -0.378484  0.171570  1.374855
O    0.369207  -0.712671  1.903076
H    -0.801088  1.422912  -0.357355
H    -0.151629  -0.208325  -0.694734
H    0.920863  1.041020  -0.067657
N    -1.421296  0.698527  2.035082
C    -2.021899  0.340870  3.343488
C    -1.040474  0.521841  4.523108
O    -0.043657  -0.253545  4.687234
H    -1.933556  1.410418  1.519094
H    -2.810599  1.094854  3.474295
C    -2.721569  -1.042519  3.327142
C    -3.630122  -1.259303  4.552066
C    -4.493080  -2.543908  4.538171
C    -5.752825  -2.438574  3.675570
N    -6.659066  -3.648598  3.866763
H    -1.972123  -1.844523  3.257592
H    -3.301477  -1.077777  2.393310
H    -4.291232  -0.386958  4.683071
H    -3.012485  -1.301934  5.460889
H    -4.794992  -2.742667  5.578073
H    -3.886566  -3.406246  4.218938
H    -5.541276  -2.390879  2.600470
H    -6.361478  -1.567057  3.948186
H    -6.962330  -3.745770  4.847884
H    -6.192461  -4.529339  3.603726
H    -7.512730  -3.573111  3.292351
N    -1.302805  1.494165  5.378485
C    -0.520209  1.813367  6.577663
H    -2.097158  2.099580  5.181443
H    -1.205341  2.140470  7.366510
H    0.184624  2.627013  6.360937
H    0.026121  0.926454  6.907525
Ca    1.472524  -1.294343  3.598350
