35
Energy: -36759.4040934 eV PBE+vdW (tier 2 basis)
C    -1.095497  -1.057672  0.653947
C    -0.079613  -0.073625  1.107764
O    1.103122  -0.094581  0.639949
H    -1.201280  -1.048377  -0.439226
H    -2.070576  -0.945468  1.135142
H    -0.700797  -2.056689  0.906491
N    -0.372937  0.853792  2.060197
C    -1.524734  1.753767  1.970434
C    -1.279200  2.663460  0.720096
O    -0.149909  2.637327  0.125432
H    0.464005  1.309381  2.430323
H    -2.427753  1.153849  1.782143
C    -1.671604  2.523218  3.314064
C    -3.071410  3.054010  3.680965
C    -3.039033  3.732210  5.068150
C    -4.330253  4.394326  5.554635
N    -5.318877  3.428444  6.203993
H    -0.945035  3.350873  3.339441
H    -1.360000  1.811085  4.092574
H    -3.791246  2.219062  3.662231
H    -3.420717  3.795955  2.944797
H    -2.293352  4.541235  5.046150
H    -2.669105  3.028509  5.832085
H    -4.881153  4.898265  4.750565
H    -4.110496  5.137502  6.330075
H    -6.155990  3.932899  6.535534
H    -4.906014  2.962237  7.025756
H    -5.645114  2.694310  5.561000
N    -2.257006  3.438452  0.293497
C    -2.172777  4.348003  -0.859198
H    -3.154956  3.372765  0.765860
H    -3.023065  5.034097  -0.821081
H    -2.215447  3.780458  -1.797491
H    -1.242117  4.922420  -0.815423
Ca    1.693788  1.644543  -0.486335
