35
Energy: -36760.0622741 eV PBE+vdW (tier 2 basis)
C    0.921529  2.836677  1.015562
C    0.585241  1.911110  2.136820
O    1.388005  0.977510  2.455900
H    0.150889  3.587986  0.814580
H    1.094933  2.242493  0.106719
H    1.868896  3.348238  1.237810
N    -0.574724  2.098967  2.788028
C    -1.211334  1.300192  3.862910
C    -0.367070  1.246635  5.155585
O    0.735407  0.611263  5.204231
H    -1.116150  2.898708  2.469503
H    -2.118554  1.870735  4.105745
C    -1.658279  -0.114512  3.415713
C    -2.856161  -0.113542  2.443405
C    -3.250237  -1.543858  2.024093
C    -4.334108  -1.676199  0.951918
N    -5.757418  -1.502574  1.477014
H    -1.922603  -0.678315  4.323686
H    -0.807976  -0.641869  2.959040
H    -2.606581  0.468986  1.542745
H    -3.703565  0.401007  2.926976
H    -3.520122  -2.149230  2.905177
H    -2.369352  -2.044794  1.594226
H    -4.315403  -2.678871  0.508873
H    -4.219205  -0.945103  0.141746
H    -5.925805  -0.569422  1.876602
H    -5.980753  -2.199018  2.203535
H    -6.443217  -1.632390  0.716780
N    -0.862607  1.845034  6.223714
C    -0.251473  1.859201  7.557809
H    -1.734084  2.360776  6.120606
H    0.434987  1.015154  7.656482
H    -1.045553  1.779479  8.307574
H    0.290189  2.801737  7.711646
Ca    2.424259  0.036810  4.043246
