35
Energy: -36758.1422703 eV PBE+vdW (tier 2 basis)
C    -0.519020  -0.820606  0.072896
C    -0.344676  -0.338589  1.483230
O    0.746401  -0.351174  2.068902
H    0.284122  -0.408609  -0.550259
H    -1.489028  -0.572489  -0.371858
H    -0.403749  -1.914563  0.059643
N    -1.479010  0.142500  2.098188
C    -1.707994  0.446574  3.512277
C    -1.918786  1.942204  3.797025
O    -2.844893  2.252988  4.673789
H    -2.324650  0.080397  1.537989
H    -2.701260  0.023015  3.725883
C    -0.760671  -0.233407  4.552865
C    0.578847  0.434804  4.903702
C    1.584245  -0.510266  5.594594
C    2.095288  -1.720567  4.811484
N    2.851699  -1.351539  3.548343
H    -0.616312  -1.251924  4.169297
H    -1.347157  -0.355764  5.475779
H    0.406399  1.274760  5.593622
H    1.039691  0.862871  4.007178
H    1.142978  -0.922995  6.514971
H    2.444799  0.085785  5.935384
H    1.293843  -2.396058  4.488475
H    2.784229  -2.300775  5.436497
H    3.305266  -2.180565  3.140864
H    3.595519  -0.666332  3.736637
H    2.193965  -0.959107  2.832599
N    -1.264776  2.922171  3.222261
C    -0.176040  2.901302  2.233572
H    -1.568260  3.858981  3.494693
H    -0.592612  3.015094  1.224433
H    0.401144  1.978059  2.301729
H    0.475895  3.755576  2.445158
Ca    -4.372030  2.740674  5.919308
