35
Energy: -36758.425221 eV PBE+vdW (tier 2 basis)
C    0.215952  -2.145003  1.945259
C    -0.462005  -0.931697  2.495909
O    -0.136759  -0.417716  3.582644
H    0.176007  -2.950483  2.689798
H    1.279995  -1.910187  1.800178
H    -0.205256  -2.498656  0.998016
N    -1.481757  -0.375395  1.760476
C    -2.041441  0.936646  2.089283
C    -2.989484  0.806494  3.306291
O    -4.275039  1.024056  3.259263
H    -1.801656  -0.848612  0.920812
H    -1.200762  1.538962  2.476304
C    -2.626221  1.642729  0.859304
C    -1.544340  2.029451  -0.173642
C    -2.137467  2.732903  -1.408151
C    -1.196629  2.930609  -2.596292
N    -0.159130  4.032641  -2.392031
H    -3.148114  2.550186  1.197440
H    -3.389520  1.005941  0.383592
H    -1.003791  1.127367  -0.499212
H    -0.799778  2.671425  0.325996
H    -2.597768  3.695448  -1.130624
H    -2.963122  2.124630  -1.809203
H    -0.627504  2.023272  -2.835238
H    -1.757585  3.226269  -3.490706
H    0.429530  4.139094  -3.232521
H    0.473529  3.839545  -1.603722
H    -0.604923  4.945515  -2.219207
N    -2.413510  0.448624  4.423246
C    -3.124362  0.233185  5.670804
H    -1.366493  0.181680  4.294791
H    -2.413700  -0.067674  6.447861
H    -3.860764  -0.585791  5.576449
H    -3.601069  1.166531  6.019100
Ca    -6.098006  1.042767  4.156825
