35
Energy: -36758.6844822 eV PBE+vdW (tier 2 basis)
C    0.504911  -1.837330  0.915960
C    0.208183  -0.477705  1.443948
O    1.214236  0.267283  1.843407
H    -0.392738  -2.410271  0.670394
H    1.088907  -2.398821  1.658497
H    1.125311  -1.752465  0.011586
N    -0.998126  0.019719  1.526179
C    -2.297161  -0.498492  1.056567
C    -3.053341  0.828452  0.741142
O    -2.800104  1.801328  1.462020
H    -1.159265  0.988399  1.879212
H    -2.150249  -1.109571  0.156013
C    -2.992163  -1.323432  2.173065
C    -4.400152  -1.853716  1.813556
C    -5.583992  -0.946044  2.220598
C    -6.127588  -1.145176  3.635495
N    -7.041213  -2.364506  3.744798
H    -3.028608  -0.704259  3.082539
H    -2.333599  -2.172822  2.403150
H    -4.506584  -2.848797  2.273778
H    -4.459172  -2.053190  0.734083
H    -6.410285  -1.054439  1.500548
H    -5.295958  0.112370  2.154856
H    -6.743079  -0.294674  3.950933
H    -5.337147  -1.291717  4.382550
H    -7.388091  -2.486135  4.708186
H    -6.565319  -3.238279  3.479602
H    -7.867192  -2.267860  3.135544
N    -3.935089  0.806858  -0.267043
C    -4.724322  1.973491  -0.673047
H    -3.986353  -0.022323  -0.850947
H    -4.367020  2.359571  -1.635614
H    -4.616899  2.750205  0.088617
H    -5.779344  1.693833  -0.771938
Ca    2.888806  1.285778  2.283392
