35
Energy: -36758.7604121 eV PBE+vdW (tier 2 basis)
C    0.892189  -0.746305  2.719237
C    0.292198  0.553724  2.313254
O    0.971194  1.653294  2.551713
H    1.108034  -0.727971  3.796933
H    0.248723  -1.603530  2.506060
H    1.850423  -0.887281  2.198661
N    -0.871385  0.664120  1.728152
C    -1.822024  -0.354766  1.242654
C    -2.505410  0.410564  0.068897
O    -2.631034  1.633953  0.191035
H    -1.245101  1.596015  1.441714
H    -1.273861  -1.238172  0.888506
C    -2.816548  -0.731950  2.372850
C    -3.955436  -1.710712  1.994877
C    -5.273058  -1.020984  1.596461
C    -6.419954  -1.948254  1.197940
N    -7.052700  -2.679625  2.380478
H    -3.241795  0.200085  2.774341
H    -2.222596  -1.174542  3.184558
H    -4.117585  -2.355925  2.872204
H    -3.630407  -2.389760  1.190414
H    -5.111801  -0.372150  0.723509
H    -5.607111  -0.342983  2.399081
H    -6.106064  -2.731437  0.496084
H    -7.238885  -1.383168  0.737577
H    -7.837087  -3.272178  2.068671
H    -7.430457  -2.017982  3.074409
H    -6.385234  -3.293729  2.866850
N    -2.931104  -0.317400  -0.974003
C    -3.573943  0.276651  -2.150743
H    -2.656970  -1.293506  -1.028596
H    -4.369804  -0.385771  -2.507298
H    -2.845430  0.423767  -2.958202
H    -3.994706  1.246361  -1.870939
Ca    2.191688  3.209016  2.901941
