35
Energy: -36758.1095754 eV PBE+vdW (tier 2 basis)
C    -0.251935  1.037445  0.162900
C    -0.070204  0.283049  1.435173
O    1.134845  0.061967  1.896256
H    -0.978159  1.853740  0.282107
H    -0.641055  0.375277  -0.627312
H    0.697584  1.456863  -0.179895
N    -1.106535  -0.169848  2.114768
C    -2.524161  -0.113182  1.683824
C    -3.331754  1.196848  1.927324
O    -4.394908  1.251249  1.316271
H    -0.900886  -0.662176  2.985348
H    -2.501980  -0.173670  0.588374
C    -3.303077  -1.356154  2.183771
C    -3.952454  -1.324213  3.583824
C    -5.307111  -0.593948  3.752629
C    -6.389570  -1.094078  2.799281
N    -7.727186  -0.428981  3.091068
H    -2.618893  -2.216261  2.130534
H    -4.058858  -1.562836  1.416009
H    -3.260130  -0.902604  4.330012
H    -4.092217  -2.370843  3.890921
H    -5.189667  0.490829  3.625093
H    -5.628949  -0.760730  4.792629
H    -6.561168  -2.174312  2.889638
H    -6.166450  -0.850600  1.753813
H    -8.464779  -0.777605  2.460911
H    -7.674722  0.592298  2.963977
H    -8.041140  -0.605767  4.056770
N    -2.900364  2.197397  2.733434
C    -1.810782  2.261946  3.702096
H    -3.529932  2.998419  2.709492
H    -0.841306  2.484090  3.232782
H    -1.736120  1.344157  4.298718
H    -2.028519  3.076577  4.400158
Ca    3.137353  -0.171669  2.108531
