35
Energy: -36758.5470432 eV PBE+vdW (tier 2 basis)
C    0.155963  -0.472455  -0.300025
C    0.091926  -0.424184  1.187654
O    1.202717  -0.514869  1.872641
H    -0.776258  -0.815070  -0.758720
H    0.967177  -1.136816  -0.618407
H    0.379639  0.533493  -0.690791
N    -1.041640  -0.275460  1.843291
C    -2.413961  -0.136074  1.291802
C    -3.157811  0.858559  2.225788
O    -3.510562  0.447193  3.349097
H    -0.991723  -0.281455  2.866237
H    -2.331093  0.262003  0.275246
C    -3.161964  -1.479874  1.310303
C    -4.612415  -1.352421  0.784312
C    -5.652162  -2.237225  1.505731
C    -6.446338  -1.581487  2.632421
N    -5.636057  -1.285879  3.885934
H    -3.144448  -1.850868  2.344817
H    -2.603799  -2.212474  0.710958
H    -4.618153  -1.605871  -0.283067
H    -4.950972  -0.304274  0.829884
H    -5.197688  -3.179753  1.850853
H    -6.414869  -2.545700  0.776575
H    -7.271301  -2.230795  2.949276
H    -6.875870  -0.621903  2.317336
H    -4.825855  -0.636851  3.702831
H    -6.230943  -0.846108  4.601378
H    -5.268925  -2.153003  4.298214
N    -3.388197  2.102610  1.797974
C    -3.045290  2.714800  0.509470
H    -3.886780  2.686358  2.469918
H    -3.373360  3.757796  0.534516
H    -3.562606  2.221940  -0.323481
H    -1.961753  2.712648  0.336419
Ca    3.116698  -0.668156  2.531601
