35
Energy: -36758.0195354 eV PBE+vdW (tier 2 basis)
C    0.266150  0.666897  0.372176
C    -0.043332  0.263214  1.767902
O    0.970346  0.118297  2.595308
H    0.880900  1.577548  0.385418
H    -0.618321  0.849460  -0.236471
H    0.865177  -0.124024  -0.103503
N    -1.246275  0.030919  2.252538
C    -2.656275  0.024800  1.755498
C    -3.280228  -1.416313  1.836327
O    -4.325479  -1.516087  2.462298
H    -1.225620  -0.242472  3.238145
H    -3.191063  0.534385  2.568139
C    -3.010701  0.759999  0.451945
C    -4.545358  0.816559  0.265017
C    -4.955882  1.655830  -0.957056
C    -6.404450  1.493632  -1.412686
N    -7.425582  2.075008  -0.437281
H    -2.575347  0.266434  -0.427999
H    -2.608800  1.784253  0.495305
H    -4.998662  1.214828  1.187121
H    -4.932532  -0.207154  0.154040
H    -4.357878  1.355659  -1.831779
H    -4.727374  2.722634  -0.801086
H    -6.683493  0.440411  -1.543261
H    -6.576992  2.015197  -2.361489
H    -8.382773  1.971235  -0.806714
H    -7.269416  3.081048  -0.279052
H    -7.403094  1.605593  0.478585
N    -2.687632  -2.457918  1.200095
C    -1.511279  -2.499796  0.343681
H    -3.196193  -3.331231  1.330355
H    -1.549620  -3.418930  -0.249441
H    -0.572607  -2.520325  0.919258
H    -1.488345  -1.664377  -0.366409
Ca    2.700862  0.050896  3.633391
