35
Energy: -36758.4436677 eV PBE+vdW (tier 2 basis)
C    0.748289  -0.441593  2.716205
C    -0.179661  0.713092  2.822483
O    0.314210  1.892434  3.107089
H    1.338011  -0.517750  3.641038
H    1.456248  -0.258051  1.894148
H    0.238789  -1.393650  2.545678
N    -1.484890  0.620351  2.648164
C    -2.343602  -0.532252  2.229486
C    -2.197813  -1.777949  3.160414
O    -1.624226  -2.798976  2.739246
H    -1.989975  1.502071  2.747132
H    -3.361545  -0.138144  2.357731
C    -2.152600  -0.934228  0.761441
C    -3.364397  -1.752255  0.253008
C    -3.040210  -2.813425  -0.824434
C    -3.027657  -4.260389  -0.342797
N    -1.862867  -4.584037  0.580889
H    -1.220054  -1.508008  0.671762
H    -2.032810  -0.030360  0.149057
H    -4.106875  -1.051291  -0.148806
H    -3.869129  -2.248703  1.097356
H    -2.102619  -2.574586  -1.351146
H    -3.814506  -2.782327  -1.603417
H    -2.955213  -4.957106  -1.186410
H    -3.938178  -4.503827  0.219319
H    -0.970961  -4.542334  0.071597
H    -1.948743  -5.539900  0.952194
H    -1.800266  -3.923543  1.396591
N    -2.722372  -1.706655  4.389944
C    -3.490036  -0.617953  4.996924
H    -2.613146  -2.560247  4.937182
H    -3.842256  -0.955701  5.975741
H    -4.374148  -0.361782  4.398301
H    -2.873888  0.276762  5.156784
Ca    1.423268  3.543408  3.515105
