35
Energy: -36759.2417146 eV PBE+vdW (tier 2 basis)
C    -1.009462  0.991125  0.473670
C    -0.819750  0.334195  1.800284
O    0.209753  0.613867  2.492740
H    -0.544731  0.390200  -0.324645
H    -0.489476  1.956358  0.492226
H    -2.062182  1.144454  0.223656
N    -1.726594  -0.537956  2.322225
C    -2.228093  -1.741916  1.634644
C    -0.996657  -2.680269  1.407350
O    0.188377  -2.211779  1.546046
H    -1.534413  -0.714281  3.310348
H    -2.865010  -2.243817  2.380046
C    -3.096412  -1.516903  0.375109
C    -4.455803  -0.846078  0.666438
C    -5.336697  -0.792011  -0.599605
C    -6.831516  -0.537352  -0.399162
N    -7.195381  0.917132  -0.109702
H    -3.287577  -2.504827  -0.065459
H    -2.537851  -0.966379  -0.392236
H    -4.295667  0.159501  1.087241
H    -4.975860  -1.426673  1.445643
H    -5.297212  -1.771890  -1.100544
H    -4.928130  -0.082498  -1.337507
H    -7.249359  -1.122777  0.429625
H    -7.386872  -0.793632  -1.309227
H    -8.218028  1.022666  -0.018885
H    -6.897053  1.541966  -0.873164
H    -6.779257  1.266478  0.764033
N    -1.161092  -3.957185  1.120066
C    -2.388312  -4.754938  1.014917
H    -0.289931  -4.472191  0.975392
H    -3.211523  -4.288686  1.563587
H    -2.193239  -5.737979  1.457590
H    -2.665952  -4.896327  -0.037549
Ca    1.703682  -0.939988  2.428128
