35
Energy: -36758.5394791 eV PBE+vdW (tier 2 basis)
C    -0.243561  0.599308  -0.756417
C    -0.407684  0.138238  0.653690
O    0.646222  -0.260298  1.318050
H    -1.188504  0.911938  -1.212446
H    0.176039  -0.214133  -1.366558
H    0.457489  1.445660  -0.794750
N    -1.602563  0.137020  1.197579
C    -2.045496  -0.314371  2.524289
C    -3.499514  -0.796587  2.289748
O    -4.191347  -0.156323  1.467534
H    -2.405571  0.409480  0.613289
H    -1.388951  -1.136441  2.836564
C    -2.017526  0.812219  3.609297
C    -3.277823  1.679214  3.764224
C    -3.547183  2.748024  2.682934
C    -5.019148  3.150638  2.594049
N    -5.824718  2.149368  1.765338
H    -1.132114  1.441405  3.432471
H    -1.844294  0.304426  4.568358
H    -3.196768  2.191237  4.733595
H    -4.148188  1.013867  3.879117
H    -3.202774  2.434252  1.685926
H    -2.976253  3.657416  2.915745
H    -5.155252  4.128197  2.119386
H    -5.485557  3.191892  3.585683
H    -5.386826  1.196046  1.772718
H    -6.797438  2.080129  2.091250
H    -5.864893  2.440912  0.780418
N    -3.927249  -1.826400  3.014146
C    -5.287694  -2.371338  2.957421
H    -3.276354  -2.273408  3.654195
H    -5.235417  -3.464821  2.979254
H    -5.762242  -2.051084  2.026129
H    -5.877392  -2.027415  3.816865
Ca    2.587882  -0.756529  1.663081
