35
Energy: -36759.140344 eV PBE+vdW (tier 2 basis)
C    0.195378  0.510438  0.382734
C    -0.169060  0.312482  1.813931
O    0.707246  0.533511  2.710879
H    -0.665295  0.612784  -0.278759
H    0.846306  -0.302079  0.025680
H    0.800095  1.427842  0.332105
N    -1.425240  -0.026325  2.225105
C    -2.170690  -1.243661  1.844194
C    -1.481166  -2.406098  2.626455
O    -0.227218  -2.322931  2.882916
H    -1.540531  0.178025  3.220587
H    -3.179800  -1.104355  2.256628
C    -2.311516  -1.471969  0.315409
C    -3.354425  -2.531234  -0.088490
C    -3.584995  -2.677785  -1.613039
C    -4.501143  -1.610852  -2.216822
N    -4.846289  -1.934808  -3.665230
H    -1.339147  -1.741413  -0.119929
H    -2.594367  -0.492795  -0.097151
H    -4.318786  -2.323960  0.400574
H    -3.031041  -3.518075  0.268449
H    -4.043303  -3.665466  -1.775558
H    -2.619008  -2.693636  -2.142275
H    -4.053658  -0.609691  -2.233672
H    -5.461651  -1.550973  -1.689381
H    -5.469547  -1.220290  -4.071960
H    -5.331544  -2.841388  -3.747372
H    -4.007988  -1.983849  -4.263285
N    -2.162587  -3.445737  3.074362
C    -3.602203  -3.729890  3.080190
H    -1.585238  -4.143444  3.549720
H    -3.830938  -4.550026  2.389217
H    -4.182574  -2.845594  2.808713
H    -3.885430  -4.038477  4.093365
Ca    1.465300  -1.223168  3.689019
