35
Energy: -36759.4320985 eV PBE+vdW (tier 2 basis)
C    -0.221534  0.207442  0.352448
C    -0.385038  0.336736  1.830140
O    0.596262  0.737822  2.533911
H    -1.144027  0.416043  -0.195271
H    0.119391  -0.807038  0.089946
H    0.562705  0.903593  0.032399
N    -1.559159  0.066992  2.463431
C    -2.317432  -1.189935  2.332714
C    -1.401228  -2.330493  2.886384
O    -0.154522  -2.102326  3.077756
H    -1.544831  0.410787  3.425555
H    -3.150096  -1.087937  3.046530
C    -2.944709  -1.480507  0.948280
C    -3.983206  -0.420763  0.532079
C    -4.710773  -0.777896  -0.781498
C    -5.766518  0.273285  -1.130434
N    -6.519998  -0.071576  -2.408289
H    -3.437358  -2.459929  1.014719
H    -2.166765  -1.598182  0.183081
H    -3.499602  0.562931  0.431855
H    -4.725884  -0.311004  1.338402
H    -5.191782  -1.763984  -0.678863
H    -3.981547  -0.861317  -1.603372
H    -5.326604  1.264164  -1.299070
H    -6.530472  0.365619  -0.348227
H    -7.226634  0.647689  -2.627325
H    -7.017994  -0.971010  -2.331939
H    -5.891839  -0.136866  -3.222992
N    -1.901447  -3.509388  3.203443
C    -3.289725  -3.984308  3.189172
H    -1.210459  -4.183250  3.540051
H    -3.439934  -4.619608  4.068967
H    -3.482365  -4.583554  2.290111
H    -3.993739  -3.149156  3.245269
Ca    1.552509  -0.871139  3.599395
