35
Energy: -36758.2945591 eV PBE+vdW (tier 2 basis)
C    0.423473  -0.074482  0.044400
C    0.142595  -0.180201  1.516278
O    0.995597  -0.504733  2.352829
H    -0.474754  0.026046  -0.574753
H    0.994266  -0.954418  -0.276243
H    1.063634  0.801475  -0.138482
N    -1.139611  0.131686  1.915223
C    -1.510334  0.198831  3.330117
C    -2.934264  -0.353484  3.446981
O    -3.149864  -1.629037  3.305515
H    -1.748922  0.569913  1.228788
H    -0.859729  -0.538007  3.830523
C    -1.300151  1.567333  4.024827
C    0.174330  1.899269  4.357565
C    0.969506  2.592258  3.236160
C    2.485608  2.572921  3.407326
N    3.060195  1.154704  3.372752
H    -1.841996  1.541286  4.982966
H    -1.739430  2.380088  3.421839
H    0.660476  0.965629  4.679119
H    0.177146  2.554838  5.239006
H    0.683435  3.653409  3.189422
H    0.722112  2.185359  2.246478
H    2.809825  3.021501  4.354006
H    2.968657  3.122845  2.592153
H    2.449420  0.500404  2.825198
H    3.146126  0.759222  4.316658
H    4.004517  1.149992  2.966029
N    -3.938826  0.458643  3.676017
C    -5.353150  0.091992  3.806578
H    -3.703590  1.443832  3.800441
H    -5.940927  1.009714  3.897163
H    -5.509490  -0.511655  4.710285
H    -5.690880  -0.452001  2.916011
Ca    -3.508938  -3.620339  3.190689
