35
Energy: -36757.5173217 eV PBE+vdW (tier 2 basis)
C    0.002306  1.625583  0.735049
C    0.447977  0.205361  1.005263
O    1.601753  -0.122606  1.180849
H    -0.606884  2.020594  1.564179
H    -0.573571  1.702268  -0.198708
H    0.896052  2.249968  0.648290
N    -0.541938  -0.795997  1.037611
C    -1.967544  -0.639031  1.065790
C    -2.496033  -0.090845  2.411633
O    -3.448491  0.811699  2.366183
H    -0.140078  -1.717468  1.187783
H    -2.244169  0.165096  0.364887
C    -2.709429  -1.906185  0.542344
C    -2.425346  -3.242241  1.252227
C    -3.023471  -4.488063  0.552468
C    -2.205971  -4.971932  -0.647434
N    -2.737725  -6.294807  -1.184573
H    -2.422556  -1.963277  -0.517924
H    -3.792335  -1.710777  0.558280
H    -2.843948  -3.216097  2.268563
H    -1.342886  -3.408329  1.370370
H    -4.062775  -4.287085  0.247652
H    -3.066619  -5.295366  1.299648
H    -1.158724  -5.160669  -0.378926
H    -2.224642  -4.276411  -1.495177
H    -2.181078  -6.624055  -1.988311
H    -3.715634  -6.219688  -1.501667
H    -2.705389  -7.037076  -0.469217
N    -1.997934  -0.388408  3.590788
C    -0.909612  -1.307039  3.974537
H    -2.409239  0.126113  4.370438
H    -0.972349  -1.448378  5.057476
H    0.066168  -0.872466  3.723939
H    -1.024224  -2.278592  3.490508
Ca    -4.702597  2.396523  2.262376
