35
Energy: -36758.7428773 eV PBE+vdW (tier 2 basis)
C    -0.233747  1.180208  0.695130
C    0.156981  0.375138  1.884777
O    1.229264  0.735906  2.553607
H    -1.091683  0.768602  0.157768
H    0.616664  1.246122  0.002269
H    -0.476694  2.205851  1.010030
N    -0.512405  -0.666232  2.304811
C    -1.795173  -1.235284  1.851217
C    -2.328174  -1.874892  3.169645
O    -1.485007  -2.319363  3.958171
H    -0.219050  -1.192615  3.156774
H    -2.449528  -0.430134  1.490982
C    -1.572588  -2.297847  0.743047
C    -2.875907  -2.890578  0.154166
C    -3.294000  -4.297820  0.639389
C    -2.547524  -5.411817  -0.094430
N    -3.105960  -6.786838  0.253510
H    -0.919830  -3.083067  1.153483
H    -1.001304  -1.814989  -0.061900
H    -2.787893  -2.907885  -0.941342
H    -3.716003  -2.208812  0.346915
H    -4.372631  -4.411648  0.448528
H    -3.151978  -4.393675  1.727255
H    -1.478686  -5.449685  0.149790
H    -2.650209  -5.317908  -1.182917
H    -2.609736  -7.534345  -0.254654
H    -4.103927  -6.861722  0.005066
H    -3.025072  -6.994158  1.259461
N    -3.656924  -1.922246  3.335850
C    -4.298647  -2.485397  4.527282
H    -4.247361  -1.427975  2.673985
H    -5.141801  -3.118515  4.229588
H    -4.669268  -1.684150  5.178818
H    -3.561845  -3.079189  5.074625
Ca    2.815561  1.537341  3.487883
