35
Energy: -36758.0320966 eV PBE+vdW (tier 2 basis)
C    0.129963  0.038629  -0.190121
C    0.188140  0.157774  1.289712
O    1.320531  0.567151  1.820856
H    0.325604  1.022230  -0.641468
H    -0.824156  -0.332847  -0.561744
H    0.928969  -0.638249  -0.525219
N    -0.797761  -0.113809  2.120774
C    -2.213297  -0.585338  2.028930
C    -2.416026  -2.013577  2.649011
O    -3.354228  -2.130389  3.425767
H    -0.536458  0.025720  3.099625
H    -2.713209  0.049128  2.773264
C    -2.980489  -0.418259  0.702595
C    -4.505036  -0.480267  0.955519
C    -5.325465  -0.431311  -0.343485
C    -6.828972  -0.237157  -0.158506
N    -7.529030  -1.443969  0.462748
H    -2.696290  -1.194118  -0.023338
H    -2.739692  0.559596  0.258703
H    -4.786048  0.367099  1.600803
H    -4.731276  -1.390368  1.531549
H    -5.137083  -1.323252  -0.963291
H    -5.006396  0.424299  -0.958820
H    -7.325878  -0.074519  -1.122108
H    -7.061380  0.612417  0.496017
H    -8.542658  -1.274844  0.547603
H    -7.177450  -1.657609  1.406592
H    -7.410189  -2.289263  -0.114134
N    -1.609795  -3.046920  2.298901
C    -0.587761  -3.144695  1.266537
H    -1.858803  -3.908066  2.783277
H    -0.420946  -4.204302  1.048924
H    0.376839  -2.722334  1.587247
H    -0.904108  -2.673198  0.327816
Ca    3.136917  1.289415  2.329834
