35
Energy: -36759.306209 eV PBE+vdW (tier 2 basis)
C    -0.471799  -0.011134  0.038690
C    -0.652519  -0.117073  1.510888
O    0.248026  -0.636607  2.240351
H    -0.278210  -1.028640  -0.338249
H    0.427360  0.570989  -0.208052
H    -1.338948  0.397755  -0.486511
N    -1.795143  0.321846  2.110352
C    -2.314429  1.679154  1.904569
C    -1.206726  2.671205  2.385330
O    -0.214936  2.216557  3.058344
H    -1.850247  0.028656  3.088261
H    -2.483209  1.843051  0.830292
C    -3.625612  1.871461  2.703748
C    -4.848662  1.031372  2.274476
C    -5.527627  1.476711  0.961123
C    -7.039538  1.253520  0.879173
N    -7.461912  -0.210597  0.789743
H    -3.898075  2.935368  2.680157
H    -3.406837  1.654069  3.761591
H    -5.568322  1.128668  3.102292
H    -4.574354  -0.034276  2.233734
H    -5.036862  1.037697  0.078066
H    -5.421794  2.567056  0.844519
H    -7.455425  1.731178  -0.015986
H    -7.559556  1.660050  1.756007
H    -8.489153  -0.285674  0.722196
H    -7.176233  -0.755956  1.614837
H    -7.072633  -0.673204  -0.044633
N    -1.274363  3.958020  2.106231
C    -2.264362  4.697259  1.316321
H    -0.519690  4.520404  2.505942
H    -2.958098  5.231469  1.978459
H    -2.819313  4.026849  0.654598
H    -1.734425  5.432199  0.700217
Ca    1.249474  0.718447  3.601432
