35
Energy: -36758.0623627 eV PBE+vdW (tier 2 basis)
C    -0.095579  -0.386384  0.055076
C    -0.169575  -0.328043  1.551978
O    0.809428  -0.463675  2.297211
H    0.539261  0.435440  -0.304073
H    -1.068584  -0.319430  -0.443764
H    0.396366  -1.322370  -0.239848
N    -1.409371  -0.101304  2.102585
C    -1.591381  -0.017523  3.557842
C    -3.072680  -0.187409  3.882270
O    -3.456654  -1.224924  4.581911
H    -2.199431  -0.021301  1.471982
H    -1.087594  -0.892042  3.994795
C    -0.983187  1.275099  4.220279
C    -0.099276  1.040882  5.459198
C    1.265263  0.364559  5.229405
C    2.258738  1.234370  4.444045
N    3.124836  0.385806  3.536778
H    -1.786478  1.963540  4.514092
H    -0.426927  1.797812  3.430991
H    -0.653867  0.449881  6.205272
H    0.053738  2.018735  5.939948
H    1.119328  -0.584720  4.695654
H    1.698666  0.115001  6.207043
H    2.925031  1.802593  5.102672
H    1.758093  1.945792  3.777113
H    3.647697  -0.328542  4.060792
H    2.498921  -0.088360  2.844618
H    3.815638  0.955047  3.029061
N    -3.991547  0.674200  3.504207
C    -3.868532  1.926135  2.740465
H    -4.945708  0.454583  3.797131
H    -4.548569  1.878295  1.880535
H    -2.845799  2.081637  2.394558
H    -4.172637  2.764000  3.381268
Ca    -4.110474  -2.861009  5.593648
