35
Energy: -36758.5945027 eV PBE+vdW (tier 2 basis)
C    -0.558566  0.503796  -0.095359
C    -0.376618  0.526180  1.390356
O    0.738504  0.707252  1.916156
H    -0.302358  1.493768  -0.497925
H    -1.569567  0.235209  -0.419722
H    0.165016  -0.199569  -0.527811
N    -1.496378  0.357631  2.165033
C    -1.506205  0.154643  3.620523
C    -1.055291  1.421394  4.377178
O    -1.828041  1.952320  5.294568
H    -2.385785  0.264118  1.685675
H    -2.558772  -0.001726  3.889727
C    -0.677295  -1.074834  4.097910
C    -1.032427  -2.403299  3.404531
C    -0.044354  -3.513350  3.816174
C    -0.066667  -4.800241  2.993795
N    -1.237705  -5.725710  3.318630
H    -0.817873  -1.166750  5.186238
H    0.389091  -0.867444  3.936413
H    -0.980215  -2.267642  2.313595
H    -2.072979  -2.682754  3.640100
H    -0.138194  -3.750635  4.888653
H    0.981223  -3.130258  3.698780
H    0.831995  -5.398137  3.186486
H    -0.123974  -4.609020  1.914777
H    -1.189921  -6.587737  2.754184
H    -2.149883  -5.289561  3.128962
H    -1.227064  -6.012401  4.308329
N    0.106501  1.929426  4.088704
C    0.691499  3.119569  4.693845
H    0.583559  1.433241  3.245857
H    1.692549  3.265183  4.277576
H    0.788094  2.997221  5.781920
H    0.094684  4.013739  4.459733
Ca    -2.761444  3.144570  6.618993
