35
Energy: -36758.5129077 eV PBE+vdW (tier 2 basis)
C    -0.020720  -1.266372  2.637922
C    0.130084  -0.260201  1.552421
O    1.319487  -0.072727  1.043350
H    0.819597  -1.178849  3.338236
H    -0.003812  -2.273666  2.195341
H    -0.952959  -1.162578  3.199763
N    -0.869738  0.484300  1.118375
C    -2.294881  0.165332  1.317923
C    -2.523698  -1.254478  0.678300
O    -1.638249  -1.733970  -0.031613
H    -0.644318  1.105356  0.341672
H    -2.475402  0.116071  2.400896
C    -3.215492  1.266948  0.745442
C    -3.292882  1.361324  -0.791099
C    -4.570224  2.039481  -1.335058
C    -4.684086  3.531987  -1.029658
N    -5.916732  4.131378  -1.697165
H    -2.920397  2.226744  1.196749
H    -4.217468  1.053321  1.142733
H    -3.275611  0.350830  -1.223654
H    -2.410863  1.877687  -1.203639
H    -5.453129  1.511766  -0.938919
H    -4.582188  1.894971  -2.426735
H    -3.828347  4.100432  -1.415581
H    -4.790798  3.747084  0.040606
H    -6.002126  5.140093  -1.501317
H    -6.785211  3.682358  -1.370335
H    -5.885143  4.020242  -2.721804
N    -3.684493  -1.882721  0.944210
C    -4.770955  -1.516996  1.850426
H    -3.771885  -2.775973  0.461010
H    -5.577900  -0.982268  1.330356
H    -4.409818  -0.906965  2.686037
H    -5.193438  -2.433237  2.276492
Ca    3.220265  -0.418174  0.467471
