35
Energy: -36758.4657416 eV PBE+vdW (tier 2 basis)
C    -0.070734  0.525230  -0.407125
C    0.125884  -0.551649  0.602503
O    1.248015  -1.217812  0.579044
H    0.725496  1.274555  -0.323824
H    -1.034086  1.033739  -0.322952
H    -0.012618  0.068223  -1.407321
N    -0.854796  -0.988063  1.391500
C    -1.841342  -0.070424  1.980355
C    -0.989994  1.136099  2.550219
O    0.243132  1.072212  2.463796
H    -0.583445  -1.763057  1.997931
H    -2.498813  0.310328  1.184241
C    -2.681629  -0.814487  3.037445
C    -3.700029  -1.817227  2.459757
C    -4.414515  -2.663922  3.537633
C    -5.631525  -2.044931  4.229354
N    -6.926443  -2.281102  3.454261
H    -3.193666  -0.064603  3.653858
H    -1.994452  -1.330876  3.728724
H    -3.187689  -2.510899  1.777542
H    -4.427670  -1.279124  1.828363
H    -3.700133  -2.914388  4.335614
H    -4.701451  -3.639098  3.113592
H    -5.552211  -0.958866  4.362504
H    -5.802790  -2.495207  5.213969
H    -7.732648  -1.850526  3.932085
H    -7.129088  -3.288536  3.369342
H    -6.892739  -1.894474  2.500830
N    -1.629289  2.192915  3.070226
C    -3.057060  2.494378  3.127681
H    -0.998961  2.903928  3.439356
H    -3.188673  3.574406  3.000435
H    -3.494805  2.210698  4.095043
H    -3.600138  2.001261  2.313882
Ca    3.241519  -1.500286  0.557759
