35
Energy: -36758.2142232 eV PBE+vdW (tier 2 basis)
C    -0.949276  0.840672  -0.247038
C    -0.759655  0.617194  1.220712
O    0.293613  0.190028  1.719007
H    -0.222944  1.587759  -0.595975
H    -1.957390  1.169914  -0.520533
H    -0.715139  -0.091751  -0.778714
N    -1.829232  0.893271  2.042157
C    -1.706855  0.768120  3.490905
C    -2.918395  -0.006914  4.017848
O    -3.806834  0.569785  4.784989
H    -2.643492  1.346895  1.637220
H    -0.831643  0.109737  3.625257
C    -1.439960  2.100787  4.216236
C    -0.164498  2.860205  3.773799
C    1.149876  2.590151  4.536727
C    1.942039  1.299934  4.324653
N    2.519220  1.167488  2.928574
H    -1.392341  1.908733  5.300647
H    -2.301195  2.766126  4.043305
H    -0.372017  3.928175  3.922339
H    -0.027708  2.762055  2.687106
H    0.958641  2.645752  5.619612
H    1.825204  3.438182  4.339492
H    2.790112  1.279447  5.019420
H    1.355418  0.388161  4.489062
H    2.958467  2.042378  2.612207
H    1.762792  0.881887  2.256595
H    3.245690  0.439175  2.898505
N    -3.093841  -1.269870  3.698491
C    -2.251579  -2.135696  2.861933
H    -3.947395  -1.706023  4.051491
H    -2.324297  -3.156360  3.251489
H    -1.207492  -1.812471  2.886074
H    -2.617892  -2.120735  1.827004
Ca    -5.164650  1.429720  6.023134
