35
Energy: -36758.628164 eV PBE+vdW (tier 2 basis)
C    -0.455992  0.330258  -0.164264
C    -0.358082  0.361143  1.329109
O    0.741150  0.501374  1.906650
H    0.261585  -0.405530  -0.549739
H    -0.139989  1.306183  -0.558723
H    -1.456079  0.095749  -0.543605
N    -1.526977  0.250266  2.030065
C    -1.718026  0.110914  3.483418
C    -1.100096  1.253348  4.306806
O    -1.849986  1.836324  5.217390
H    -2.374334  0.169769  1.476212
H    -2.798333  0.238898  3.628835
C    -1.402655  -1.312323  4.046855
C    -0.014347  -1.921518  3.793365
C    0.053841  -3.390512  4.264870
C    1.404302  -4.018404  3.922776
N    1.467793  -5.486493  4.326184
H    -2.166613  -1.969376  3.603900
H    -1.617067  -1.292857  5.128107
H    0.769289  -1.336017  4.296892
H    0.216486  -1.885914  2.720468
H    -0.752089  -3.964401  3.778938
H    -0.121146  -3.448486  5.351266
H    2.237137  -3.527189  4.441106
H    1.608645  -3.995401  2.845035
H    2.382691  -5.899675  4.089636
H    0.748018  -6.046627  3.845895
H    1.329029  -5.613629  5.339355
N    0.129776  1.612453  4.103464
C    0.828719  2.688230  4.797781
H    0.574594  1.111491  3.226079
H    0.805145  2.534432  5.884907
H    0.391520  3.665371  4.545623
H    1.872138  2.691528  4.469909
Ca    -2.890399  3.030849  6.451346
