35
Energy: -36760.0928932 eV PBE+vdW (tier 2 basis)
C    0.468704  -0.426703  -0.021010
C    -0.042587  0.276989  1.191037
O    0.270774  -0.140292  2.350285
H    0.137958  0.018691  -0.964915
H    0.141499  -1.476130  0.017806
H    1.567444  -0.442486  0.002484
N    -0.832627  1.350728  1.016615
C    -1.559507  2.173196  2.014720
C    -0.602072  2.904321  2.982988
O    0.052042  2.265416  3.868532
H    -0.978608  1.617133  0.046466
H    -2.053732  2.945565  1.409446
C    -2.644658  1.388066  2.790996
C    -3.834232  0.866083  1.953328
C    -5.008216  1.854511  1.776954
C    -6.188872  1.162030  1.090396
N    -7.419554  2.054492  0.997903
H    -3.009900  2.034895  3.603203
H    -2.167320  0.529413  3.281372
H    -4.215399  -0.030215  2.463311
H    -3.483428  0.514748  0.970351
H    -5.322406  2.218302  2.768550
H    -4.701725  2.736153  1.191072
H    -6.510361  0.269664  1.642259
H    -5.955939  0.861876  0.061159
H    -8.200005  1.559558  0.538516
H    -7.241724  2.909973  0.451499
H    -7.754323  2.346788  1.928186
N    -0.522630  4.219220  2.885595
C    0.287990  5.091835  3.743265
H    -1.045639  4.674829  2.141057
H    -0.264499  6.020319  3.920501
H    1.236966  5.330933  3.245597
H    0.483190  4.592169  4.695001
Ca    0.971396  0.384930  4.276474
