35
Energy: -36758.2568744 eV PBE+vdW (tier 2 basis)
C    -1.045975  -3.311308  0.243628
C    -0.890402  -2.673728  1.586974
O    0.127411  -2.816854  2.287799
H    -2.011156  -3.111706  -0.234141
H    -0.899863  -4.394975  0.339740
H    -0.240071  -2.946890  -0.408833
N    -1.927405  -1.895121  2.052643
C    -1.750102  -1.052326  3.234961
C    -1.875003  -1.948714  4.493733
O    -2.910095  -1.938932  5.292477
H    -2.766744  -1.790283  1.490293
H    -0.690006  -0.746974  3.226740
C    -2.640389  0.197334  3.204562
C    -2.096122  1.383491  4.030476
C    -0.987695  2.239309  3.369056
C    -1.538161  3.267845  2.379199
N    -0.445211  4.202887  1.875204
H    -3.654990  -0.052709  3.545839
H    -2.750667  0.489003  2.149750
H    -1.699837  1.015752  4.988774
H    -2.935817  2.040151  4.300461
H    -0.242566  1.597501  2.871263
H    -0.451941  2.771269  4.170175
H    -2.291050  3.916040  2.845102
H    -1.981267  2.814967  1.483835
H    -0.823119  4.900342  1.215739
H    0.305554  3.695099  1.384620
H    -0.005347  4.724460  2.648509
N    -0.881634  -2.773961  4.684439
C    -0.803279  -3.771402  5.741845
H    -0.205041  -2.799038  3.847135
H    -1.576210  -4.546560  5.614733
H    -0.883317  -3.297265  6.731632
H    0.171440  -4.266169  5.689535
Ca    -4.213957  -2.557531  6.706487
