35
Energy: -36757.7083797 eV PBE+vdW (tier 2 basis)
C    -2.186863  1.207378  0.006557
C    -1.916830  0.274269  1.159402
O    -1.108511  0.563774  2.038444
H    -1.314889  1.164383  -0.663479
H    -2.236942  2.239674  0.369569
H    -3.085655  0.992320  -0.579055
N    -2.495451  -1.001369  1.175297
C    -3.904324  -1.345705  0.924045
C    -4.263314  -1.195415  -0.557643
O    -3.532531  -1.805810  -1.442155
H    -2.108902  -1.535714  1.955281
H    -3.942456  -2.443775  1.037159
C    -4.915098  -0.783443  1.971076
C    -4.704475  0.659406  2.480918
C    -3.804804  0.729238  3.736055
C    -3.206216  2.122154  3.989119
N    -1.777718  2.010787  4.489317
H    -4.868746  -1.469039  2.829874
H    -5.942024  -0.926340  1.599406
H    -5.685815  1.090112  2.721107
H    -4.296818  1.302060  1.685446
H    -2.978732  0.012348  3.631580
H    -4.379325  0.402498  4.613464
H    -3.143769  2.716138  3.069230
H    -3.767115  2.703424  4.729243
H    -1.360492  2.937694  4.656369
H    -1.207692  1.516071  3.772871
H    -1.717823  1.488383  5.374632
N    -5.328361  -0.530669  -0.932559
C    -5.837548  -0.394176  -2.302784
H    -5.868078  -0.087137  -0.190124
H    -6.687820  0.292949  -2.287358
H    -6.179654  -1.366497  -2.679914
H    -5.061462  0.017196  -2.959089
Ca    -2.347968  -2.944372  -2.631596
