35
Energy: -36759.8396237 eV PBE+vdW (tier 2 basis)
C    0.659933  1.552062  3.589009
C    -0.093132  0.373422  3.071378
O    0.496020  -0.497078  2.356188
H    1.522181  1.205063  4.175569
H    0.056985  2.228704  4.203197
H    1.068614  2.110147  2.733560
N    -1.395712  0.264078  3.384374
C    -2.413411  -0.710159  2.920463
C    -2.046391  -2.154508  3.328880
O    -1.137587  -2.796686  2.706305
H    -1.755710  1.010687  3.973984
H    -3.314240  -0.433405  3.481469
C    -2.733518  -0.584102  1.411502
C    -4.013838  -1.340664  0.978319
C    -5.329763  -0.524711  0.932547
C    -5.497162  0.253392  -0.375242
N    -6.880186  0.883247  -0.488900
H    -1.876096  -0.943889  0.828310
H    -2.812321  0.490029  1.190533
H    -4.180909  -2.202274  1.641634
H    -3.842209  -1.787888  -0.010596
H    -5.398613  0.160152  1.793379
H    -6.166448  -1.233450  1.029796
H    -5.400322  -0.404525  -1.248106
H    -4.780871  1.077124  -0.484415
H    -7.626217  0.171527  -0.458640
H    -6.986072  1.393157  -1.379713
H    -7.068547  1.555352  0.269398
N    -2.697501  -2.739416  4.319995
C    -3.752611  -2.201888  5.192888
H    -2.409732  -3.703257  4.501217
H    -4.687213  -2.051389  4.638562
H    -3.434628  -1.269192  5.672252
H    -3.940109  -2.937885  5.979973
Ca    0.825594  -2.530382  1.899815
