35
Energy: -36758.4159543 eV PBE+vdW (tier 2 basis)
C    0.632735  0.613869  0.408330
C    0.268601  -0.019171  1.712302
O    1.178831  -0.087119  2.654882
H    1.466663  0.064400  -0.053071
H    0.956996  1.651538  0.574039
H    -0.200052  0.624019  -0.302489
N    -0.940603  -0.489508  1.873128
C    -1.613409  -1.223844  2.957305
C    -2.435710  -2.273522  2.148745
O    -2.944767  -1.877784  1.095128
H    -1.582365  -0.487534  1.055675
H    -0.870718  -1.677045  3.626210
C    -2.553358  -0.250278  3.727171
C    -3.580245  -0.918495  4.670999
C    -4.931217  -1.305270  4.024317
C    -5.972372  -0.191752  3.904946
N    -6.737206  0.042272  5.206482
H    -3.072688  0.367786  2.979051
H    -1.915385  0.434298  4.302671
H    -3.744792  -0.234394  5.518585
H    -3.141359  -1.816089  5.129699
H    -5.374538  -2.156585  4.564436
H    -4.775834  -1.674159  3.001378
H    -6.738987  -0.442621  3.162701
H    -5.538668  0.778313  3.630861
H    -7.255710  -0.802172  5.490634
H    -7.428216  0.800497  5.101820
H    -6.117994  0.299400  5.987591
N    -2.556149  -3.502779  2.669508
C    -3.311436  -4.579934  2.022097
H    -2.047916  -3.726589  3.519122
H    -2.638006  -5.399535  1.744720
H    -3.782258  -4.180079  1.120097
H    -4.080012  -4.964890  2.702652
Ca    3.046515  0.104463  3.408987
