35
Energy: -36758.4049002 eV PBE+vdW (tier 2 basis)
C    1.166365  -1.880800  0.763858
C    0.724063  -1.790721  2.188088
O    1.413682  -2.431707  3.103042
H    0.523028  -1.308276  0.087823
H    1.156677  -2.930816  0.435930
H    2.194582  -1.503406  0.666233
N    -0.335572  -1.085364  2.481814
C    -1.076628  -0.870915  3.731659
C    -2.536786  -0.738732  3.203082
O    -2.675616  -0.334602  2.041239
H    -0.921244  -0.693443  1.708710
H    -0.949260  -1.738624  4.390352
C    -0.616827  0.418480  4.473417
C    -0.689231  1.742537  3.677716
C    -2.005632  2.557769  3.733655
C    -2.040057  3.532372  4.910479
N    -3.236443  4.473460  4.822138
H    0.423791  0.253317  4.786512
H    -1.197346  0.481311  5.405709
H    -0.466143  1.551376  2.620001
H    0.134348  2.384016  4.022967
H    -2.883302  1.895382  3.760591
H    -2.083126  3.130723  2.797077
H    -1.155823  4.182038  4.925278
H    -2.117649  3.034812  5.885262
H    -4.131983  3.964407  4.831067
H    -3.212553  5.030504  3.954653
H    -3.253140  5.138004  5.610439
N    -3.558967  -1.007713  4.030883
C    -3.512061  -1.645406  5.347819
H    -4.472243  -0.932147  3.584107
H    -2.773620  -1.167826  6.002397
H    -3.299681  -2.721014  5.273998
H    -4.491891  -1.529324  5.820630
Ca    2.814950  -3.716419  3.791772
