35
Energy: -36758.5677289 eV PBE+vdW (tier 2 basis)
C    0.698408  0.384658  2.754110
C    -0.348819  -0.584101  3.178168
O    -0.025596  -1.499714  4.065966
H    1.575079  -0.162734  2.380885
H    1.029482  0.971879  3.622975
H    0.353703  1.071849  1.977233
N    -1.572686  -0.579020  2.726475
C    -2.306918  0.358895  1.855893
C    -3.752350  0.198854  2.443402
O    -4.012874  -0.904563  2.947827
H    -2.299312  -1.248685  3.091113
H    -1.910946  1.373579  1.978588
C    -2.234282  -0.122415  0.379419
C    -3.147391  0.617044  -0.617435
C    -3.188981  -0.061663  -2.008575
C    -2.178192  0.406076  -3.056243
N    -2.674285  1.620753  -3.839361
H    -2.510442  -1.187999  0.376899
H    -1.181844  -0.068864  0.058529
H    -2.850866  1.676150  -0.699195
H    -4.172639  0.621354  -0.225707
H    -4.203298  0.019944  -2.429893
H    -3.035903  -1.143974  -1.889238
H    -2.000217  -0.366267  -3.813521
H    -1.210099  0.695638  -2.628824
H    -3.542913  1.401305  -4.349914
H    -1.981076  1.925997  -4.539085
H    -2.872372  2.427356  -3.231388
N    -4.633945  1.203732  2.379810
C    -4.465931  2.585672  1.940089
H    -5.541091  0.961876  2.780691
H    -4.747041  3.267987  2.751443
H    -5.104626  2.796674  1.072790
H    -3.426022  2.789199  1.669935
Ca    0.508962  -2.777088  5.516867
