35
Energy: -36758.6027336 eV PBE+vdW (tier 2 basis)
C    -1.396303  -1.941329  0.138423
C    -0.761149  -1.333946  1.340294
O    0.331785  -1.892960  1.811134
H    -0.687722  -1.919921  -0.702415
H    -2.316056  -1.436390  -0.166975
H    -1.625856  -2.997175  0.340586
N    -1.225740  -0.275461  1.949849
C    -2.283809  0.670281  1.549932
C    -1.772830  1.990107  2.207882
O    -1.001583  1.875405  3.172541
H    -0.717542  0.166798  2.755685
H    -2.299415  0.753403  0.456085
C    -3.699197  0.277997  2.051752
C    -3.930897  0.341741  3.571693
C    -5.325777  -0.173195  3.991559
C    -6.498538  0.802353  3.874491
N    -6.626879  1.708296  5.097555
H    -3.913138  -0.740463  1.691807
H    -4.409529  0.931920  1.524389
H    -3.758034  1.366859  3.938719
H    -3.179988  -0.274505  4.085832
H    -5.284755  -0.560682  5.021817
H    -5.592049  -1.048681  3.381058
H    -7.455157  0.270926  3.810791
H    -6.424581  1.471958  3.008667
H    -7.415814  2.364579  4.996149
H    -5.779612  2.268990  5.262870
H    -6.800842  1.156477  5.950844
N    -2.217105  3.163833  1.739267
C    -2.945321  3.429480  0.495179
H    -1.813720  3.968866  2.217496
H    -3.811716  2.768282  0.381913
H    -2.294876  3.334532  -0.384911
H    -3.318894  4.457136  0.530641
Ca    2.083657  -2.776406  2.240044
