35
Energy: -36757.4599808 eV PBE+vdW (tier 2 basis)
C    -0.350244  -0.092440  -0.469458
C    -0.002739  0.208977  0.971289
O    1.120118  0.491990  1.343000
H    0.517401  0.148452  -1.090159
H    -1.212879  0.486789  -0.828661
H    -0.569637  -1.163723  -0.590174
N    -1.011197  0.094261  1.941141
C    -2.445097  0.307453  1.801834
C    -3.097781  -0.842957  1.017373
O    -3.843061  -0.622032  -0.034864
H    -0.634933  0.225408  2.877774
H    -2.850536  0.175723  2.821543
C    -2.856521  1.725805  1.347270
C    -2.270032  2.875123  2.212842
C    -0.896997  3.412793  1.755786
C    -0.492221  4.780991  2.307751
N    0.039623  4.743054  3.738857
H    -3.953848  1.790328  1.399192
H    -2.573105  1.888393  0.295992
H    -2.246427  2.558050  3.268822
H    -2.993846  3.702116  2.169604
H    -0.921400  3.556918  0.664421
H    -0.083694  2.691429  1.928027
H    0.323479  5.208988  1.713265
H    -1.323218  5.497887  2.314352
H    0.333181  5.684326  4.042771
H    0.864692  4.130199  3.818499
H    -0.663124  4.415705  4.415462
N    -2.921895  -2.088036  1.403110
C    -2.189198  -2.599606  2.571731
H    -3.358444  -2.800498  0.817838
H    -2.400250  -1.991455  3.457801
H    -1.110624  -2.604187  2.374589
H    -2.532504  -3.621770  2.756396
Ca    -5.100275  -0.428028  -1.608320
