35
Energy: -36758.3784564 eV PBE+vdW (tier 2 basis)
C    0.233695  1.407234  0.982480
C    0.075666  0.219818  1.861497
O    1.155845  -0.326126  2.365106
H    0.849297  2.156966  1.498397
H    -0.711271  1.868355  0.689663
H    0.775925  1.109511  0.072067
N    -1.082028  -0.340355  2.156387
C    -2.500346  -0.006365  1.808756
C    -2.723261  0.567587  0.376633
O    -3.230808  1.689161  0.217944
H    -1.006457  -1.143402  2.784304
H    -2.989229  -0.993283  1.815541
C    -3.195216  0.836932  2.891953
C    -2.625536  2.238476  3.197028
C    -3.701536  3.253409  3.652584
C    -4.232996  4.195012  2.575032
N    -4.970583  3.489269  1.450530
H    -3.236128  0.246685  3.819003
H    -4.242128  0.895939  2.560882
H    -2.101841  2.651330  2.324092
H    -1.875080  2.149874  3.993711
H    -3.276997  3.916901  4.418782
H    -4.534303  2.737458  4.156052
H    -3.420357  4.753545  2.093325
H    -4.933376  4.920773  3.005258
H    -5.812877  3.012200  1.797448
H    -4.352028  2.782407  0.973349
H    -5.284078  4.165999  0.741491
N    -2.377903  -0.228180  -0.644304
C    -2.615073  0.128122  -2.048702
H    -2.102304  -1.185929  -0.448256
H    -2.371444  1.183272  -2.206276
H    -3.666293  -0.037157  -2.318439
H    -1.979839  -0.496458  -2.683132
Ca    3.003387  -0.934716  2.950695
