35
Energy: -36758.469614 eV PBE+vdW (tier 2 basis)
C    0.158966  -1.342645  1.376911
C    -0.492624  -0.004061  1.543165
O    0.081602  1.054605  1.227847
H    0.311056  -1.530506  0.304621
H    -0.408078  -2.175423  1.806798
H    1.160747  -1.306236  1.824177
N    -1.765419  0.015490  2.052314
C    -2.525058  1.217646  2.419759
C    -2.885668  2.086616  1.195857
O    -4.130027  2.441005  0.986135
H    -2.221674  -0.877190  2.209616
H    -3.479084  0.848473  2.817985
C    -1.865069  2.119885  3.502402
C    -1.486597  1.453147  4.845264
C    -0.104544  0.759069  4.874449
C    0.675712  0.883309  6.181840
N    0.069001  0.105894  7.348797
H    -2.588948  2.922255  3.710644
H    -0.977759  2.611085  3.081468
H    -2.282933  0.761644  5.163410
H    -1.484709  2.270178  5.584091
H    0.554619  1.225080  4.125912
H    -0.175186  -0.299264  4.580207
H    0.743541  1.924508  6.522278
H    1.694422  0.492987  6.070801
H    0.642330  0.218244  8.199005
H    0.019354  -0.903706  7.150010
H    -0.880947  0.426849  7.581241
N    -1.925314  2.477485  0.409596
C    -2.074809  3.306518  -0.781256
H    -0.966207  2.064377  0.680329
H    -1.084218  3.473116  -1.213985
H    -2.505078  4.284495  -0.523778
H    -2.695465  2.801538  -1.535511
Ca    -5.915785  3.087006  0.316856
