35
Energy: -36757.8290557 eV PBE+vdW (tier 2 basis)
C    -0.335491  0.377458  -0.295654
C    -0.099697  -0.235430  1.052917
O    0.912198  -0.901945  1.335565
H    -1.124989  1.137186  -0.306839
H    -0.624280  -0.413692  -1.004264
H    0.598999  0.815730  -0.665744
N    -1.057410  -0.002347  2.002748
C    -1.172408  -0.643372  3.307671
C    -0.129619  -0.271417  4.371538
O    -0.283522  -0.848986  5.543602
H    -1.857898  0.553732  1.715448
H    -2.067651  -0.169812  3.751119
C    -1.556790  -2.165426  3.257360
C    -0.795150  -3.140210  2.346308
C    0.637278  -3.494265  2.772008
C    1.459006  -4.242442  1.721478
N    1.731952  -3.393083  0.479083
H    -2.608262  -2.177844  2.939783
H    -1.560293  -2.548449  4.290175
H    -0.826321  -2.750700  1.319516
H    -1.396669  -4.061380  2.314400
H    0.608044  -4.157406  3.650440
H    1.192867  -2.593442  3.069290
H    0.963346  -5.158877  1.380077
H    2.436521  -4.522480  2.128108
H    2.695681  -3.522095  0.145883
H    1.572169  -2.368323  0.675605
H    1.117621  -3.657322  -0.300290
N    0.805323  0.647477  4.294326
C    1.222850  1.588358  3.236644
H    1.336069  0.748777  5.160486
H    1.865026  2.334859  3.712276
H    0.356313  2.090623  2.801249
H    1.793695  1.059733  2.466529
Ca    -0.756362  -1.480744  7.410121
