35
Energy: -36758.3383638 eV PBE+vdW (tier 2 basis)
C    0.084388  -0.782280  0.199315
C    0.028522  -0.253822  1.597538
O    1.073184  0.026562  2.245556
H    0.568010  -1.770250  0.207806
H    0.717535  -0.123940  -0.409638
H    -0.896334  -0.886982  -0.276374
N    -1.198788  -0.069753  2.144347
C    -1.549513  0.250749  3.538483
C    -1.054915  1.616493  4.027754
O    -1.870265  2.333358  4.757507
H    -1.989328  -0.288211  1.543923
H    -2.638493  0.385317  3.508664
C    -1.317458  -0.918076  4.564409
C    -0.060755  -1.797895  4.462457
C    1.228499  -1.283174  5.128138
C    2.464507  -2.102420  4.750720
N    3.068431  -1.648927  3.419739
H    -2.184454  -1.579816  4.435736
H    -1.413025  -0.502153  5.580306
H    0.109432  -2.061641  3.408782
H    -0.321431  -2.752104  4.943910
H    1.123038  -1.353374  6.220225
H    1.417589  -0.220649  4.915462
H    2.222486  -3.166511  4.642251
H    3.261876  -2.016537  5.496376
H    3.485099  -2.435324  2.904182
H    2.361306  -1.172656  2.810489
H    3.823861  -0.969214  3.575010
N    0.138053  2.045005  3.726389
C    0.711141  3.338073  4.098491
H    0.699932  1.355412  3.156598
H    0.077947  4.159441  3.738665
H    0.838641  3.410554  5.186714
H    1.691538  3.431235  3.623578
Ca    -3.159611  3.527479  5.764913
