35
Energy: -36758.611729 eV PBE+vdW (tier 2 basis)
C    -3.252904  2.550630  1.305717
C    -2.309425  1.888410  2.259891
O    -1.084477  1.820623  2.039231
H    -3.138245  2.083475  0.318217
H    -2.957582  3.601775  1.185406
H    -4.304277  2.501522  1.608413
N    -2.842840  1.362258  3.410121
C    -2.127955  0.496807  4.359087
C    -1.034647  1.279113  5.112046
O    -1.063369  1.349958  6.422356
H    -3.840133  1.478851  3.557355
H    -2.869554  0.210429  5.116229
C    -1.560044  -0.802571  3.707702
C    -2.669680  -1.664711  3.077928
C    -2.213494  -2.686758  2.014164
C    -1.477948  -3.905521  2.566733
N    -1.230499  -4.931636  1.466412
H    -1.015551  -1.358775  4.486114
H    -0.823355  -0.517275  2.944180
H    -3.380194  -1.002460  2.564212
H    -3.249389  -2.176189  3.862107
H    -1.587258  -2.179989  1.262242
H    -3.118601  -3.030563  1.488779
H    -2.062633  -4.426668  3.335441
H    -0.490911  -3.665009  2.980239
H    -2.115565  -5.257413  1.049160
H    -0.660099  -4.542609  0.700964
H    -0.737717  -5.763534  1.824081
N    -0.101274  1.858464  4.416341
C    0.995851  2.657253  4.949784
H    -0.294635  1.814670  3.346986
H    1.671035  2.911732  4.127708
H    1.563483  2.090041  5.699820
H    0.622179  3.596061  5.384504
Ca    -0.971213  1.833444  8.371414
