35
Energy: -36759.7181903 eV PBE+vdW (tier 2 basis)
C    -0.281042  0.662643  -0.648494
C    0.133307  0.532891  0.773999
O    1.362950  0.561347  1.097697
H    0.026410  1.632979  -1.064381
H    -1.350390  0.507229  -0.814295
H    0.279325  -0.095928  -1.218163
N    -0.788259  0.354774  1.759914
C    -1.937980  1.246827  1.918861
C    -1.373119  2.621297  2.428263
O    -0.111550  2.784030  2.547579
H    -0.359380  0.089762  2.649322
H    -2.363946  1.437257  0.921122
C    -3.022338  0.624445  2.825442
C    -3.685882  -0.624744  2.215707
C    -4.797277  -1.203655  3.116905
C    -5.451300  -2.428227  2.474904
N    -6.563080  -3.002158  3.343279
H    -3.795058  1.382619  3.021613
H    -2.580147  0.389412  3.807333
H    -2.922987  -1.395935  2.030670
H    -4.112276  -0.364892  1.233686
H    -4.374482  -1.478943  4.096442
H    -5.561540  -0.431574  3.301702
H    -4.737361  -3.246938  2.320671
H    -5.916914  -2.190553  1.510212
H    -6.994031  -3.826933  2.897824
H    -7.316789  -2.318066  3.506710
H    -6.216061  -3.302840  4.266216
N    -2.213624  3.599292  2.692152
C    -1.827489  4.947135  3.137446
H    -3.206759  3.427761  2.554064
H    -2.734329  5.488712  3.418578
H    -1.324944  5.486791  2.325242
H    -1.163121  4.880136  4.005580
Ca    1.975802  2.274980  2.256331
