35
Energy: -36758.4380336 eV PBE+vdW (tier 2 basis)
C    -0.117470  1.562704  -0.077694
C    0.057937  0.557237  1.002747
O    1.267686  0.263814  1.413326
H    -1.015427  1.393499  -0.683037
H    0.764844  1.589818  -0.725139
H    -0.247761  2.559978  0.375497
N    -0.967034  -0.034199  1.590879
C    -2.397797  0.183761  1.273213
C    -2.881816  1.622517  1.674338
O    -3.229407  2.354397  0.756419
H    -0.744283  -0.676123  2.353456
H    -2.472257  0.216482  0.179689
C    -3.279262  -0.977968  1.767235
C    -4.755061  -0.734335  1.395216
C    -5.673429  -1.930711  1.709542
C    -7.113054  -1.621333  1.300083
N    -8.050488  -2.790207  1.574659
H    -3.182310  -1.116917  2.854073
H    -2.923383  -1.904738  1.290478
H    -4.821635  -0.497771  0.321886
H    -5.124527  0.157814  1.923910
H    -5.632899  -2.164523  2.785686
H    -5.317438  -2.823512  1.170506
H    -7.200657  -1.411889  0.226597
H    -7.526975  -0.767764  1.851327
H    -7.770296  -3.635575  1.056226
H    -9.016950  -2.566243  1.293085
H    -8.073829  -3.036681  2.574932
N    -2.877675  2.011045  2.974537
C    -2.636330  1.244819  4.190820
H    -3.233299  2.958455  3.094617
H    -1.743375  0.612113  4.108669
H    -3.494561  0.619222  4.474989
H    -2.451781  1.948354  5.009012
Ca    3.275806  0.167839  1.611008
