35
Energy: -36758.4149676 eV PBE+vdW (tier 2 basis)
C    0.172873  1.455650  1.257582
C    0.177335  0.310611  2.208817
O    1.323555  -0.001215  2.762489
H    -0.788519  1.607361  0.767584
H    0.932580  1.300842  0.483812
H    0.429935  2.366265  1.822664
N    -0.912738  -0.269552  2.710827
C    -2.134170  -0.576229  1.951116
C    -1.621061  -1.333846  0.672214
O    -0.468665  -1.111187  0.281854
H    -0.714497  -0.931998  3.459830
H    -2.669514  -1.289827  2.587103
C    -3.089996  0.644742  1.699782
C    -3.493714  0.936043  0.242937
C    -4.352047  2.207320  0.049003
C    -5.803591  2.055029  0.504710
N    -6.634369  3.272111  0.114886
H    -2.612068  1.534788  2.131901
H    -3.984831  0.471773  2.312916
H    -4.027713  0.079101  -0.192079
H    -2.594777  1.060279  -0.378557
H    -4.342456  2.445857  -1.026064
H    -3.885266  3.061693  0.565438
H    -5.909700  1.958541  1.591925
H    -6.293967  1.195879  0.029604
H    -6.640368  3.415660  -0.906215
H    -6.272256  4.137485  0.541771
H    -7.615943  3.171140  0.414458
N    -2.451396  -2.194716  0.067079
C    -3.762872  -2.680864  0.492875
H    -2.039179  -2.654309  -0.744561
H    -3.681676  -3.668358  0.966701
H    -4.416499  -2.770388  -0.382372
H    -4.235021  -1.990232  1.198316
Ca    3.250485  -0.427673  3.137763
