35
Energy: -36758.5222469 eV PBE+vdW (tier 2 basis)
C    -0.722416  0.872409  0.412977
C    -0.202534  0.403559  1.721436
O    0.949195  0.872569  2.142967
H    0.050267  0.720052  -0.354170
H    -0.916561  1.954185  0.470222
H    -1.626367  0.341621  0.098590
N    -0.823412  -0.462720  2.499951
C    -2.157872  -1.137698  2.377994
C    -2.225649  -2.033690  1.101277
O    -2.685303  -1.572747  0.053494
H    -0.326143  -0.678477  3.364654
H    -2.188078  -1.780554  3.269019
C    -3.325831  -0.139842  2.452040
C    -4.676477  -0.757336  2.873058
C    -5.455640  -1.644858  1.878659
C    -5.932921  -0.895314  0.638075
N    -6.931712  -1.728277  -0.156100
H    -3.410977  0.383905  1.490294
H    -3.071798  0.616558  3.208044
H    -5.327846  0.078008  3.169763
H    -4.532429  -1.343878  3.792713
H    -6.328881  -2.030216  2.429093
H    -4.866562  -2.523739  1.576118
H    -5.111232  -0.669134  -0.052018
H    -6.457875  0.033599  0.895077
H    -7.266685  -1.223752  -0.989936
H    -7.759651  -1.967474  0.409781
H    -6.516197  -2.613423  -0.479788
N    -1.761039  -3.287537  1.255267
C    -1.727204  -4.276868  0.177534
H    -1.471719  -3.594461  2.178954
H    -0.755701  -4.783419  0.172436
H    -1.877646  -3.762910  -0.775543
H    -2.514541  -5.029247  0.315533
Ca    2.713428  1.812416  2.434421
