35
Energy: -36758.0241378 eV PBE+vdW (tier 2 basis)
C    1.830673  3.934248  1.319844
C    1.124866  2.755753  1.921890
O    1.664958  1.662141  2.092045
H    2.818521  4.042028  1.784259
H    1.284704  4.880296  1.405376
H    2.008133  3.722919  0.254492
N    -0.200330  2.975241  2.296022
C    -1.183503  1.916098  2.560565
C    -2.433581  2.540156  3.173798
O    -3.597702  2.007412  2.945394
H    -0.587852  3.806588  1.851256
H    -1.514631  1.466185  1.607570
C    -0.718735  0.711794  3.452359
C    -0.256182  0.955920  4.902936
C    1.141152  1.541499  5.205132
C    2.342642  0.594886  5.267167
N    2.792685  0.025504  3.927992
H    0.029504  0.177685  2.859482
H    -1.592194  0.041874  3.492915
H    -0.343978  -0.012255  5.420893
H    -0.993113  1.593521  5.416348
H    1.096342  1.954188  6.224335
H    1.376907  2.399487  4.562979
H    2.159363  -0.258982  5.931027
H    3.205906  1.141928  5.663252
H    2.310896  -0.852171  3.701348
H    3.798832  -0.187273  3.939863
H    2.590217  0.698214  3.146969
N    -2.318419  3.589885  3.950753
C    -3.398388  4.293277  4.651194
H    -1.362865  3.935813  4.067909
H    -2.957727  5.096737  5.247671
H    -3.929917  3.607981  5.322905
H    -4.094812  4.739772  3.929868
Ca    -5.425886  1.268266  2.445851
