35
Energy: -36758.2975728 eV PBE+vdW (tier 2 basis)
C    0.398155  -0.938496  0.417551
C    0.078744  0.166821  1.369028
O    1.016517  0.999013  1.719520
H    0.739016  -0.515394  -0.539488
H    1.211827  -1.558712  0.821459
H    -0.458067  -1.589911  0.211161
N    -1.153149  0.280757  1.833005
C    -1.762052  1.294941  2.723022
C    -1.524550  1.059320  4.236547
O    -1.447935  2.067695  4.959229
H    -1.809679  -0.406694  1.457915
H    -1.286551  2.258961  2.505804
C    -3.280544  1.319489  2.387011
C    -4.264214  1.982710  3.371783
C    -4.472282  3.507508  3.312904
C    -3.422530  4.440613  3.907622
N    -3.174175  4.167224  5.378643
H    -3.598548  0.265700  2.307423
H    -3.402595  1.754828  1.383822
H    -4.064080  1.640063  4.399258
H    -5.243093  1.544987  3.131632
H    -5.436471  3.728288  3.797801
H    -4.611581  3.823503  2.267750
H    -3.755715  5.481562  3.822302
H    -2.440571  4.355775  3.426653
H    -4.054042  4.033366  5.894980
H    -2.576503  3.308351  5.459847
H    -2.675785  4.946593  5.827124
N    -1.466315  -0.197506  4.690520
C    -1.364078  -0.548891  6.111924
H    -1.603555  -0.963122  4.037614
H    -0.732453  -1.436326  6.220527
H    -2.356448  -0.765846  6.527956
H    -0.920495  0.289248  6.655669
Ca    2.898577  1.789196  1.745565
