35
Energy: -36759.8628902 eV PBE+vdW (tier 2 basis)
C    -1.088612  0.104688  0.025334
C    -0.897783  -0.084619  1.493340
O    0.164677  -0.625580  1.934228
H    -2.050287  0.554266  -0.242802
H    -0.990248  -0.870179  -0.473649
H    -0.279341  0.736762  -0.367634
N    -1.874515  0.328991  2.319632
C    -1.981783  0.211308  3.793892
C    -0.870245  0.995788  4.528353
O    0.341501  0.605414  4.496200
H    -2.652168  0.796474  1.860959
H    -2.930659  0.711848  4.030675
C    -2.064999  -1.250849  4.314052
C    -3.470412  -1.887486  4.396877
C    -4.174130  -2.201245  3.061907
C    -5.218828  -3.319812  3.113295
N    -6.469994  -2.986565  3.921964
H    -1.653163  -1.261141  5.333547
H    -1.404122  -1.889274  3.710266
H    -4.107517  -1.253975  5.035917
H    -3.331456  -2.828122  4.952918
H    -3.434757  -2.564392  2.330835
H    -4.617202  -1.298441  2.611188
H    -4.811195  -4.234720  3.561935
H    -5.579223  -3.564818  2.107134
H    -6.263303  -2.800106  4.913288
H    -7.133987  -3.776614  3.899290
H    -6.968239  -2.167348  3.544451
N    -1.234540  2.052671  5.231122
C    -0.344992  2.889096  6.045569
H    -2.213450  2.330011  5.203470
H    -0.101681  3.812555  5.504024
H    0.570594  2.338369  6.272146
H    -0.861229  3.147573  6.976296
Ca    1.764288  -0.451529  3.317980
