35
Energy: -36757.4958178 eV PBE+vdW (tier 2 basis)
C    1.087494  0.054040  0.651077
C    0.138502  -0.332667  1.758741
O    0.486996  -0.465840  2.912842
H    1.925549  0.624443  1.063292
H    0.629471  0.611822  -0.174522
H    1.509387  -0.875527  0.235934
N    -1.202345  -0.721880  1.398204
C    -2.213186  0.179279  0.831272
C    -2.190594  0.137503  -0.700875
O    -2.929463  0.935656  -1.419831
H    -1.585475  -1.223241  2.202650
H    -3.175226  -0.330759  1.032036
C    -2.365778  1.551399  1.547632
C    -1.172639  2.530826  1.581516
C    -1.053036  3.342947  2.894133
C    -0.405734  2.546234  4.029324
N    -0.230705  3.397697  5.280199
H    -2.646593  1.271857  2.573670
H    -3.255345  2.061644  1.149117
H    -1.258153  3.246311  0.752996
H    -0.221152  2.013678  1.414457
H    -2.045421  3.710449  3.201647
H    -0.439537  4.233228  2.687517
H    -0.991273  1.672583  4.340078
H    0.598102  2.192345  3.764544
H    0.218868  2.858979  6.036253
H    -1.130663  3.742902  5.644960
H    0.362103  4.222094  5.101134
N    -1.492384  -0.818210  -1.256544
C    -1.408341  -1.149851  -2.675704
H    -1.014465  -1.407995  -0.559156
H    -0.570820  -1.837687  -2.825234
H    -1.219879  -0.247141  -3.270582
H    -2.326137  -1.652799  -3.012323
Ca    -4.184900  1.781164  -2.765390
