35
Energy: -36759.5423026 eV PBE+vdW (tier 2 basis)
C    -0.034376  -0.373989  0.253148
C    0.002587  -0.104454  1.713681
O    1.103145  -0.108773  2.351638
H    0.369577  -1.391627  0.113479
H    0.643057  0.291907  -0.298002
H    -1.038057  -0.347475  -0.180230
N    -1.146534  0.113313  2.415462
C    -2.089586  1.162916  2.019963
C    -1.506575  2.508290  2.570093
O    -0.287560  2.557871  2.951033
H    -0.991654  0.060609  3.423411
H    -2.014942  1.265405  0.925225
C    -3.566216  0.824890  2.321122
C    -3.959926  0.507000  3.774296
C    -5.449600  0.102778  3.860898
C    -5.868543  -0.286118  5.278890
N    -7.331302  -0.707557  5.337134
H    -3.803388  -0.039427  1.683360
H    -4.197147  1.639014  1.929146
H    -3.771778  1.373228  4.428516
H    -3.346450  -0.324406  4.156238
H    -5.629686  -0.744399  3.179644
H    -6.076427  0.936234  3.505170
H    -5.766331  0.544620  5.988219
H    -5.295581  -1.140132  5.661306
H    -7.963913  0.049254  5.037085
H    -7.606099  -0.969900  6.296323
H    -7.521666  -1.522106  4.734174
N    -2.266668  3.583518  2.570972
C    -1.821646  4.932150  2.952940
H    -3.217844  3.490586  2.222834
H    -2.701255  5.576511  3.029593
H    -1.145188  5.339501  2.191073
H    -1.310748  4.899250  3.920783
Ca    1.718314  1.767501  3.215359
