35
Energy: -36758.353366 eV PBE+vdW (tier 2 basis)
C    1.571940  0.632858  1.164948
C    0.652269  -0.446388  1.649021
O    0.990163  -1.633806  1.771368
H    1.089895  1.609464  1.048766
H    2.411933  0.735186  1.865994
H    2.002268  0.324828  0.202573
N    -0.636051  -0.073421  1.960703
C    -1.584058  -1.038455  2.510197
C    -2.932654  -0.857915  1.813922
O    -3.984530  -0.453282  2.477088
H    -0.861417  0.917365  1.962443
H    -1.191723  -2.016842  2.178704
C    -1.648054  -1.050847  4.049900
C    -0.311496  -1.446802  4.709303
C    0.035405  -2.948952  4.638638
C    1.518630  -3.255877  4.877343
N    2.317932  -3.265186  3.581237
H    -2.433432  -1.757010  4.366961
H    -1.934236  -0.050332  4.411216
H    -0.354580  -1.149954  5.766120
H    0.492106  -0.835621  4.274064
H    -0.270741  -3.396294  3.679545
H    -0.536548  -3.487833  5.406256
H    1.663184  -4.240830  5.334161
H    1.987602  -2.512707  5.533605
H    2.216310  -4.167789  3.098685
H    3.323030  -3.137474  3.758667
H    1.989519  -2.531739  2.903419
N    -3.058912  -1.103139  0.528687
C    -2.041633  -1.576115  -0.420276
H    -3.979115  -0.919404  0.125344
H    -2.544908  -2.183694  -1.179311
H    -1.285924  -2.183513  0.085408
H    -1.560413  -0.718750  -0.908566
Ca    -5.631843  0.092494  3.524656
