35
Energy: -36758.4050868 eV PBE+vdW (tier 2 basis)
C    0.699038  0.354873  2.668074
C    -0.318661  -0.727541  2.562104
O    -0.028110  -1.929754  2.985165
H    0.252841  1.340304  2.842721
H    1.272299  0.412862  1.727383
H    1.405086  0.136453  3.475567
N    -1.508445  -0.512747  2.031641
C    -1.970573  0.734690  1.372507
C    -2.487514  1.861575  2.304953
O    -2.220086  3.021436  1.952675
H    -2.140657  -1.314319  1.995806
H    -1.089651  1.181931  0.896932
C    -2.984570  0.395813  0.253497
C    -3.316068  1.604725  -0.648958
C    -4.546352  2.444227  -0.234828
C    -4.484352  3.890342  -0.722517
N    -3.617771  4.754043  0.195540
H    -3.906152  -0.030721  0.680161
H    -2.527876  -0.389704  -0.365785
H    -3.488411  1.228193  -1.665409
H    -2.418989  2.238681  -0.726130
H    -4.711995  2.434933  0.853651
H    -5.452242  1.996198  -0.665187
H    -5.473604  4.359274  -0.749920
H    -4.052451  3.960331  -1.727887
H    -3.114576  5.483710  -0.324910
H    -2.929661  4.176313  0.733707
H    -4.197280  5.235347  0.894585
N    -3.221314  1.595819  3.399962
C    -3.751870  0.328281  3.897488
H    -3.472168  2.432515  3.925409
H    -4.582820  0.550145  4.574553
H    -3.002987  -0.239803  4.466203
H    -4.159784  -0.286315  3.085752
Ca    0.875728  -3.632506  3.630206
