35
Energy: -36758.1059027 eV PBE+vdW (tier 2 basis)
C    -0.036742  0.076126  0.154152
C    -0.171930  -0.105590  1.636111
O    0.745782  -0.518200  2.357364
H    0.202092  -0.897749  -0.295585
H    0.814367  0.735835  -0.060119
H    -0.931300  0.481448  -0.331475
N    -1.395037  0.211935  2.191700
C    -1.609435  0.083769  3.621180
C    -2.975232  -0.497300  3.948271
O    -4.050527  -0.154945  3.284641
H    -2.045589  0.740835  1.622155
H    -0.863327  -0.661438  3.935661
C    -1.355451  1.369497  4.477519
C    0.138152  1.623130  4.784152
C    0.917859  2.390049  3.698688
C    2.437625  2.259572  3.764713
N    2.918137  0.834585  3.487535
H    -1.886141  1.260654  5.435336
H    -1.812296  2.235603  3.974711
H    0.605174  0.649101  4.998718
H    0.196805  2.192181  5.722292
H    0.702206  3.464642  3.789809
H    0.587164  2.113570  2.688990
H    2.845465  2.548763  4.740713
H    2.904558  2.895887  3.004873
H    3.835045  0.839299  3.022368
H    2.234992  0.303364  2.890415
H    3.034683  0.296910  4.354579
N    -3.095441  -1.334065  4.955132
C    -2.033496  -1.866516  5.828150
H    -4.041111  -1.644711  5.178798
H    -2.480416  -2.633965  6.466147
H    -1.622132  -1.074033  6.464882
H    -1.238974  -2.327419  5.229911
Ca    -5.874598  0.161267  2.437269
