35
Energy: -36759.818548 eV PBE+vdW (tier 2 basis)
C    -0.661277  -1.255085  -0.524153
C    -0.372677  -0.853407  0.880016
O    0.821379  -0.627756  1.261054
H    -0.341273  -0.439318  -1.190727
H    -1.718208  -1.471682  -0.710544
H    -0.056061  -2.132192  -0.790844
N    -1.393579  -0.719146  1.741070
C    -1.326635  -0.165040  3.113219
C    -0.628214  -1.195492  4.035114
O    0.644420  -1.193122  4.096894
H    -2.322714  -0.923188  1.376719
H    -0.643529  0.698047  3.081311
C    -2.741646  0.328895  3.492970
C    -2.899911  1.385119  4.610926
C    -2.828451  0.901315  6.074499
C    -3.695538  1.684501  7.065040
N    -3.268819  3.133868  7.282197
H    -3.418457  -0.521365  3.685293
H    -3.134708  0.798840  2.579011
H    -3.896759  1.820369  4.438032
H    -2.183689  2.203163  4.433645
H    -1.791051  0.845509  6.439750
H    -3.223754  -0.123676  6.149467
H    -3.671985  1.221004  8.058503
H    -4.741349  1.731193  6.735096
H    -3.891089  3.592506  7.966441
H    -3.313518  3.692933  6.418536
H    -2.311010  3.204485  7.655008
N    -1.351594  -2.075056  4.702107
C    -0.817920  -3.153243  5.543930
H    -2.360371  -2.047866  4.573056
H    -1.526851  -3.352372  6.353455
H    0.144707  -2.849209  5.962961
H    -0.691577  -4.069492  4.951970
Ca    2.299163  -0.924522  2.734277
