35
Energy: -36757.9843357 eV PBE+vdW (tier 2 basis)
C    -1.060160  0.538432  -0.133213
C    -0.814516  0.867898  1.313466
O    0.196017  1.435874  1.721953
H    -0.468817  -0.350752  -0.397414
H    -0.695925  1.363794  -0.754706
H    -2.109604  0.332821  -0.374051
N    -1.825512  0.486940  2.187514
C    -1.767954  0.426127  3.643329
C    -2.631228  1.499249  4.328424
O    -3.355551  1.116160  5.357841
H    -2.603744  -0.013370  1.768064
H    -2.297467  -0.502031  3.906209
C    -0.351412  0.264454  4.295209
C    0.459399  1.517847  4.670421
C    1.966952  1.244229  4.877474
C    2.742835  1.143429  3.563192
N    4.238570  0.997390  3.820464
H    0.200631  -0.373980  3.593874
H    -0.492014  -0.344314  5.201001
H    0.072591  1.939676  5.609598
H    0.357306  2.288990  3.900068
H    2.110033  0.328952  5.474970
H    2.380450  2.073680  5.471830
H    2.625961  2.041534  2.945812
H    2.455572  0.281124  2.951374
H    4.614452  1.800358  4.346287
H    4.765998  0.938942  2.936661
H    4.456759  0.149158  4.363255
N    -2.729864  2.749535  3.948834
C    -2.069043  3.476594  2.855220
H    -3.393352  3.309506  4.487183
H    -2.745178  3.524998  1.991544
H    -1.130639  2.996730  2.568550
H    -1.872584  4.494786  3.208098
Ca    -4.614328  0.473685  6.801809
