35
Energy: -36757.7157854 eV PBE+vdW (tier 2 basis)
C    0.309108  0.129042  0.862001
C    0.313004  -0.323286  2.294335
O    1.322446  -0.772594  2.839158
H    -0.661854  0.086568  0.356363
H    1.037846  -0.458082  0.293760
H    0.662636  1.171425  0.834309
N    -0.831043  -0.181573  3.081263
C    -2.220173  -0.400175  2.674747
C    -3.098769  0.707849  3.301931
O    -4.042076  0.420088  4.160145
H    -0.626632  -0.460932  4.041955
H    -2.285029  -0.247305  1.585711
C    -2.701901  -1.827852  3.015694
C    -2.243653  -2.978581  2.084910
C    -0.747343  -3.289130  1.870439
C    0.041670  -3.687264  3.121619
N    1.532795  -3.557683  2.881189
H    -3.802039  -1.841592  2.969756
H    -2.434406  -2.041255  4.064161
H    -2.675305  -2.807966  1.087562
H    -2.739950  -3.887327  2.456549
H    -0.253208  -2.447336  1.369379
H    -0.700277  -4.116645  1.146931
H    -0.158830  -4.723553  3.418030
H    -0.161925  -3.040596  3.983137
H    2.080186  -3.927852  3.670752
H    1.765326  -2.541159  2.773909
H    1.835369  -4.065346  2.038092
N    -2.906524  1.971965  2.999423
C    -1.947032  2.565396  2.057745
H    -3.492642  2.640712  3.500391
H    -2.262189  3.594993  1.865791
H    -1.945723  2.017276  1.110709
H    -0.941915  2.569174  2.496067
Ca    -5.645157  0.095127  5.364581
