35
Energy: -36758.6078757 eV PBE+vdW (tier 2 basis)
C    0.193668  0.292734  0.896208
C    -0.232004  0.019614  2.296185
O    0.699414  -0.165250  3.204299
H    0.882878  -0.495697  0.563377
H    0.745119  1.243940  0.859221
H    -0.640948  0.346485  0.192907
N    -1.483626  -0.038997  2.672616
C    -2.728470  0.213299  1.917119
C    -3.669389  0.738380  3.040450
O    -3.572596  0.179993  4.140577
H    -1.732811  -0.231276  3.662476
H    -2.538828  0.960144  1.137448
C    -3.255267  -1.112162  1.304679
C    -4.554436  -0.994172  0.476347
C    -5.894349  -1.242203  1.209246
C    -6.231176  -2.729463  1.312416
N    -7.631194  -2.950043  1.873396
H    -3.365981  -1.839485  2.123071
H    -2.459458  -1.501044  0.653667
H    -4.482112  -1.694963  -0.367658
H    -4.603440  -0.004997  0.002476
H    -6.688624  -0.739834  0.635497
H    -5.888604  -0.783922  2.209962
H    -5.551457  -3.280937  1.973652
H    -6.226565  -3.215050  0.328404
H    -7.861164  -3.953642  1.928383
H    -8.348505  -2.506190  1.280436
H    -7.733462  -2.559509  2.821256
N    -4.539598  1.726034  2.772186
C    -4.603020  2.605319  1.600457
H    -5.084574  2.008207  3.586184
H    -5.505535  3.217620  1.685193
H    -4.678944  2.038360  0.666418
H    -3.739700  3.282585  1.550707
Ca    2.297376  -0.307680  4.414682
