35
Energy: -36759.0245029 eV PBE+vdW (tier 2 basis)
C    0.294830  -0.439887  1.202807
C    -1.144761  -0.758300  1.394380
O    -1.687657  -1.656947  0.675653
H    0.693071  0.246715  1.950305
H    0.493107  -0.077600  0.184930
H    0.834146  -1.397607  1.289931
N    -1.895738  -0.192130  2.379394
C    -2.181729  1.239564  2.585529
C    -3.103863  1.681549  1.406494
O    -3.222014  0.931094  0.376082
H    -2.729417  -0.755488  2.559887
H    -2.822562  1.245122  3.480558
C    -0.992745  2.187575  2.938502
C    -0.289612  2.975642  1.818323
C    0.595154  4.142639  2.321667
C    1.878511  3.717784  3.038643
N    2.737100  4.926303  3.391462
H    -0.287251  1.575846  3.518748
H    -1.395800  2.911873  3.660034
H    -1.042399  3.433157  1.159507
H    0.308410  2.319515  1.170929
H    -0.000328  4.791608  2.984377
H    0.862696  4.752080  1.444636
H    2.509888  3.077291  2.409703
H    1.692425  3.199989  3.987559
H    3.012140  5.459506  2.552371
H    2.245059  5.579909  4.019294
H    3.606592  4.643864  3.869801
N    -3.809797  2.794304  1.490988
C    -3.910377  3.748945  2.601228
H    -4.389266  2.993957  0.673490
H    -4.890286  4.232975  2.543030
H    -3.136088  4.522688  2.524298
H    -3.840431  3.238681  3.567662
Ca    -3.267232  -0.992915  -0.631274
