15
Energy: -13931.4598052 eV PBE+vdW (tier 2 basis)
N    -0.275194  0.968648  0.877809
C    -0.030253  -0.278664  1.601844
C    1.442622  -0.286458  2.218483
O    2.027615  0.828858  2.199040
H    -2.131781  -1.186446  2.072684
H    0.494852  1.580039  1.193352
H    -0.661011  -0.362689  2.521094
C    -0.241135  -1.522277  0.729396
C    -1.661187  -1.889135  0.369239
O    -2.603018  -1.637128  1.341937
O    -2.018676  -2.408606  -0.668048
H    0.204485  -2.370153  1.280907
H    0.315230  -1.410040  -0.209140
O    1.820774  -1.391202  2.677457
H    -1.160323  1.397254  1.144945
