15
Energy: -13931.4286864 eV PBE+vdW (tier 2 basis)
N    0.651218  -0.579570  -0.204647
C    0.187033  -0.065027  1.085928
C    1.353010  0.384284  1.923316
O    2.471193  -0.103835  1.939161
H    -0.191780  -1.048689  -0.578855
H    1.350900  -1.303909  -0.022085
H    -0.458635  0.805528  0.895620
C    -0.633654  -1.078703  1.935182
C    -1.901771  -1.682498  1.213475
O    -2.028371  -1.451273  -0.024173
O    -2.641623  -2.349856  1.973803
H    -0.976962  -0.610517  2.869518
H    0.017604  -1.921891  2.220330
O    1.027332  1.416999  2.775626
H    1.829506  1.541957  3.317802
