15
Energy: -13932.0866451 eV PBE+vdW (tier 2 basis)
N    0.972950  -0.861987  -0.449404
C    0.232807  -0.182559  0.640699
C    1.177143  0.622079  1.576823
O    1.280152  1.844932  1.422772
H    1.538919  -1.206699  2.417166
H    1.557551  -1.592460  -0.033036
H    -0.404167  0.576422  0.163134
C    -0.687853  -1.190136  1.350897
C    -0.048923  -2.495296  1.888069
O    1.162896  -2.397746  2.361275
O    -0.708744  -3.539245  1.853760
H    -1.486002  -1.493701  0.660958
H    -1.172831  -0.688426  2.204950
O    1.858946  -0.067252  2.455924
H    1.619157  -0.188927  -0.866987
