15
Energy: -13932.021781 eV PBE+vdW (tier 2 basis)
N    0.610119  -0.337122  -0.266843
C    -0.080544  0.417202  0.803883
C    0.844757  0.498247  2.046050
O    1.400890  1.557413  2.337173
H    0.733496  -1.302160  0.052599
H    -0.017407  -0.400918  -1.072737
H    -0.173832  1.454304  0.452970
C    -1.500272  -0.109129  1.139361
C    -1.635819  -1.642784  1.306445
O    -0.677241  -2.236626  1.955373
O    -2.624148  -2.210864  0.823891
H    -2.196636  0.186493  0.341270
H    -1.861564  0.369115  2.066595
O    0.970091  -0.612938  2.733173
H    0.201111  -1.406233  2.368798
