15
Energy: -13931.803579 eV PBE+vdW (tier 2 basis)
N    0.383846  -0.196246  -0.073002
C    0.074474  -0.045779  1.366002
C    1.403201  0.109519  2.127261
O    1.513355  0.486388  3.280961
H    -0.393316  -0.819168  -0.438289
H    0.303230  0.706018  -0.542651
H    -0.542128  0.842208  1.585444
C    -0.673428  -1.298995  1.875888
C    -1.971542  -1.654110  1.069448
O    -1.847480  -1.643768  -0.202883
O    -2.984523  -1.944246  1.738867
H    -0.924596  -1.161290  2.932931
H    0.006096  -2.165821  1.802202
O    2.452529  -0.253375  1.362353
H    1.966069  -0.433307  0.473006
