15
Energy: -13931.9555423 eV PBE+vdW (tier 2 basis)
N    0.442678  -0.587988  0.021719
C    0.248891  -0.211445  1.451943
C    1.246468  0.945385  1.845138
O    2.203737  1.101488  1.027867
H    0.044563  -2.088944  0.177280
H    1.391276  -0.199058  -0.161130
H    -0.782139  0.138060  1.607618
C    0.504225  -1.440881  2.349027
C    -0.239134  -2.721838  1.968174
O    -0.325667  -2.955014  0.649783
O    -0.691780  -3.502141  2.793579
H    0.270264  -1.193876  3.389215
H    1.582980  -1.676178  2.310105
O    0.996562  1.546708  2.913659
H    -0.194923  -0.038277  -0.554976
