15
Energy: -13931.3962416 eV PBE+vdW (tier 2 basis)
N    1.286727  -1.477134  0.313770
C    0.450797  -0.483470  1.005223
C    1.255889  0.449543  1.870914
O    1.038153  1.635863  2.060520
H    1.733688  -2.066681  1.021272
H    0.574694  -2.071727  -0.145624
H    -0.020611  0.143685  0.235848
C    -0.683169  -1.090142  1.875135
C    -1.664237  -2.053031  1.097791
O    -2.614820  -2.474719  1.796842
O    -1.390760  -2.299862  -0.113168
H    -1.290593  -0.290377  2.325146
H    -0.244850  -1.664051  2.708344
O    2.282786  -0.183356  2.535943
H    2.667306  0.515459  3.098044
