15
Energy: -13931.1043012 eV PBE+vdW (tier 2 basis)
N    1.131615  -2.015296  1.045231
C    0.413390  -0.736927  1.093811
C    1.250202  0.465698  1.482062
O    1.119781  1.609484  1.074574
H    1.969235  -1.932821  0.467957
H    1.445003  -2.266187  1.984205
H    -0.020393  -0.536201  0.101094
C    -0.787445  -0.836961  2.047552
C    -2.030581  -1.597655  1.422114
O    -2.742906  -2.182819  2.277833
O    -2.178925  -1.478434  0.181238
H    -1.145270  0.174793  2.295761
H    -0.490134  -1.319956  2.991216
O    2.226567  0.177613  2.422603
H    2.624861  1.047670  2.613749
