15
Energy: -13931.1187473 eV PBE+vdW (tier 2 basis)
N    1.950759  -1.337378  0.542821
C    0.557392  -0.847716  0.750607
C    0.642750  0.390215  1.644544
O    0.712520  1.545363  1.266261
H    2.295986  -1.673267  1.446318
H    1.898991  -2.169421  -0.049771
H    0.204250  -0.466088  -0.217341
C    -0.428558  -1.884793  1.283966
C    -1.799608  -1.241839  1.659114
O    -1.718128  0.000316  1.914352
O    -2.805056  -1.988638  1.687601
H    -0.016699  -2.354496  2.193595
H    -0.579876  -2.688729  0.546555
O    0.984211  0.042559  2.941052
H    1.053065  0.899911  3.398327
