15
Energy: -13932.1769323 eV PBE+vdW (tier 2 basis)
N    -0.618927  1.754931  2.031640
C    -0.233654  0.330679  2.015165
C    1.187556  0.129949  1.394284
O    1.865104  1.137268  1.127456
H    -1.206478  1.934046  1.213325
H    0.259478  2.254285  1.831259
H    -0.148122  -0.011273  3.064024
C    -1.332316  -0.511682  1.337919
C    -1.395720  -2.013527  1.677490
O    -0.248593  -2.647442  1.752431
O    -2.487972  -2.558677  1.843301
H    -1.234297  -0.423097  0.240908
H    -2.312375  -0.097142  1.609556
O    1.567460  -1.092938  1.233568
H    0.610857  -1.939381  1.523674
