15
Energy: -13931.1741539 eV PBE+vdW (tier 2 basis)
N    1.041741  -0.938356  -0.215068
C    0.370176  -0.427727  0.982644
C    1.323972  0.225475  1.958555
O    2.535419  0.061425  2.024286
H    1.409783  -0.156249  -0.759211
H    1.859342  -1.479896  0.075879
H    -0.410548  0.292066  0.675296
C    -0.422855  -1.543792  1.689419
C    -1.896759  -1.706375  1.132947
O    -2.384044  -0.702459  0.551929
O    -2.412176  -2.822944  1.393878
H    -0.528165  -1.322765  2.762737
H    0.110130  -2.501976  1.604304
O    0.688500  1.062207  2.845750
H    1.396486  1.359365  3.448655
