15
Energy: -13931.034381 eV PBE+vdW (tier 2 basis)
N    1.898822  -1.570365  0.649166
C    0.589928  -0.898471  0.884619
C    0.899275  0.433750  1.549649
O    0.709213  1.541730  1.094076
H    2.234891  -1.935473  1.544203
H    1.710754  -2.393945  0.073101
H    0.147421  -0.651389  -0.089304
C    -0.452669  -1.705094  1.669206
C    -1.932389  -1.166485  1.517378
O    -2.604673  -1.114934  2.578604
O    -2.263345  -0.886773  0.333679
H    -0.179348  -1.782042  2.731039
H    -0.454775  -2.723139  1.242110
O    1.470009  0.267316  2.791001
H    1.608885  1.176315  3.117475
