15
Energy: -13931.6782244 eV PBE+vdW (tier 2 basis)
N    -0.770658  0.486073  2.408419
C    0.187603  -0.478308  1.810164
C    1.598557  0.117773  1.895934
O    1.650924  1.178853  2.741817
H    -1.057952  1.131562  1.664616
H    -1.608291  -0.105311  2.560660
H    0.193839  -1.346329  2.493089
C    -0.246718  -0.991069  0.441032
C    -1.660006  -1.687677  0.469653
O    -2.062035  -2.113568  -0.636416
O    -2.242307  -1.740510  1.600284
H    0.486877  -1.706764  0.045053
H    -0.285581  -0.159905  -0.284019
O    2.585698  -0.304883  1.326365
H    0.683051  1.253062  3.027349
