15
Energy: -13932.1648558 eV PBE+vdW (tier 2 basis)
N    0.016629  -0.241911  -0.007550
C    0.191976  -0.053578  1.441273
C    1.716944  0.099357  1.758061
O    2.499949  0.278821  0.807229
H    0.926613  0.016176  -0.413690
H    -0.680071  0.407995  -0.369605
H    -0.273198  0.892046  1.783084
C    -0.482622  -1.212206  2.218485
C    -0.851667  -0.944482  3.684630
O    -1.955254  -1.266986  4.125092
O    0.075499  -0.367942  4.425397
H    0.175396  -2.096749  2.180981
H    -1.408806  -1.485146  1.699820
O    2.042498  0.042647  3.000757
H    0.975114  -0.176043  3.807036
