15
Energy: -13931.8623071 eV PBE+vdW (tier 2 basis)
N    0.071239  -0.383977  -0.089947
C    0.018010  0.025766  1.336287
C    1.433315  0.642728  1.710745
O    2.184652  0.863642  0.713915
H    0.210549  -1.884728  0.154976
H    0.957214  0.077530  -0.396281
H    -0.689419  0.861064  1.472263
C    -0.419081  -1.112517  2.281205
C    -0.024009  -2.556511  1.944383
O    0.271286  -2.810907  0.666594
O    -0.040637  -3.435420  2.794548
H    -1.518889  -1.138774  2.374755
H    -0.025977  -0.882814  3.279462
O    1.619717  0.878719  2.923337
H    -0.714970  -0.021802  -0.627241
