15
Energy: -13931.3291602 eV PBE+vdW (tier 2 basis)
N    0.913835  -1.389040  0.283266
C    0.264859  -0.285042  0.994537
C    1.234370  0.613971  1.728382
O    1.072085  1.810485  1.926107
H    1.389325  -1.027298  -0.545846
H    0.103225  -1.947096  -0.046810
H    -0.308794  0.394161  0.334922
C    -0.735205  -0.861158  2.026433
C    -1.905785  -1.724157  1.414054
O    -2.839093  -1.953772  2.216978
O    -1.778051  -2.106490  0.212309
H    -1.189001  -0.044244  2.602717
H    -0.186710  -1.502880  2.734125
O    2.338411  -0.027378  2.228954
H    2.804529  0.675939  2.720872
