27
Energy: -569904.74655 eV PBE+vdW (tier 2 basis)
N    0.888857  0.588606  0.719752
C    -0.150201  0.068415  1.642391
C    0.159391  -1.356157  2.175708
O    1.364740  -1.812950  2.248734
H    0.757969  0.275014  -0.247540
H    0.928481  1.612053  0.718556
H    -0.111278  0.714398  2.534319
C    -1.582804  0.166753  1.035737
C    -2.019337  -0.999040  0.119690
C    -3.221242  -1.775965  0.722867
N    -3.361874  -3.132975  0.201973
C    -2.847482  -4.290064  0.704818
N    -2.698960  -5.452400  0.220237
N    -2.404726  -4.213170  2.142412
H    -1.654667  1.127765  0.509659
H    -2.269510  0.260795  1.888115
H    -1.195146  -1.709054  -0.042219
H    -2.297600  -0.624440  -0.873457
H    -4.158158  -1.242817  0.512625
H    -3.123520  -1.815530  1.813225
H    -3.734072  -3.223060  -0.741728
H    -2.987847  -5.576056  -0.754502
H    -2.018310  -5.148868  2.340520
H    -3.199597  -4.054871  2.779269
O    -0.790374  -2.043180  2.579975
H    -1.673316  -3.475285  2.336210
Hg    2.920291  -0.419559  1.491146
