27
Energy: -569906.711705 eV PBE+vdW (tier 2 basis)
N    -0.811701  1.212374  0.625939
C    -0.223637  0.510562  1.830027
C    1.307214  0.509188  1.706960
O    1.860812  0.521201  0.614172
H    -0.615321  2.220077  0.674529
H    -1.834165  1.114383  0.632497
H    -0.509689  1.114468  2.706046
C    -0.794130  -0.919288  2.067594
C    -0.797882  -2.041866  0.997507
C    0.498710  -2.785821  0.581936
N    1.243115  -2.160374  -0.525205
C    0.888416  -2.196215  -1.843401
N    0.762944  -1.017731  -2.483711
N    0.674548  -3.366450  -2.444310
H    -1.841119  -0.776696  2.376044
H    -0.290199  -1.295769  2.971142
H    -1.347937  -1.732600  0.090963
H    -1.453613  -2.808808  1.437166
H    0.222839  -3.805468  0.287966
H    1.194593  -2.891206  1.424051
H    1.846689  -1.378740  -0.272830
H    0.721572  -0.988178  -3.502018
H    0.239679  -3.427593  -3.360068
H    1.079329  -4.218150  -2.065306
O    2.027819  0.421004  2.809455
H    1.512645  0.489160  3.637370
Hg    0.020295  0.383480  -1.186016
