27
Energy: -569906.784442 eV PBE+vdW (tier 2 basis)
N    -2.322844  0.180487  1.513126
C    -1.370632  -0.653205  2.265362
C    -0.438784  0.322427  2.997777
O    -0.072040  1.389589  2.460883
H    -2.922586  -0.390650  0.914862
H    -2.942974  0.710000  2.133661
H    -1.884451  -1.296701  2.998450
C    -0.482245  -1.523182  1.319807
C    -1.169453  -2.196189  0.113821
C    -1.338631  -1.384789  -1.188244
N    -0.071370  -0.922435  -1.787639
C    0.177645  0.317203  -2.280939
N    -0.338635  1.419745  -1.707930
N    0.965931  0.427554  -3.359134
H    -0.022954  -2.301459  1.943550
H    0.368988  -0.921509  0.951461
H    -2.159317  -2.592923  0.389959
H    -0.577839  -3.091859  -0.125640
H    -1.984753  -0.506490  -1.077903
H    -1.842795  -2.032093  -1.921263
H    0.516921  -1.657829  -2.173216
H    -0.239088  2.285831  -2.233009
H    1.093295  -0.343371  -4.007719
H    1.404533  1.308754  -3.606681
O    0.037553  0.055151  4.180898
H    -0.326267  -0.763989  4.575148
Hg    -0.607205  1.516929  0.330553
