27
Energy: -569905.130261 eV PBE+vdW (tier 2 basis)
N    0.902598  -0.980088  0.802601
C    0.349373  0.071925  1.644635
C    1.440494  0.511680  2.646575
O    1.597922  -0.019744  3.737993
H    0.309517  -1.244897  0.015312
H    1.868250  -0.856252  0.496985
H    0.084717  0.958355  1.034164
C    -0.965487  -0.368923  2.372155
C    -1.214346  -1.876994  2.531554
C    -0.038034  -2.767366  2.965788
N    0.572358  -2.412344  4.215264
C    0.748752  -3.181692  5.307883
N    0.815880  -2.549079  6.501982
N    0.745295  -4.517825  5.257882
H    -1.813285  0.040231  1.809260
H    -0.986136  0.135835  3.347008
H    -1.555483  -2.304708  1.578097
H    -2.044445  -2.013057  3.241128
H    0.746646  -2.580255  2.172011
H    -0.325930  -3.824394  2.940745
H    0.939001  -1.422278  4.221533
H    0.790958  -1.527859  6.413050
H    0.552301  -5.059487  6.093328
H    0.794115  -5.022839  4.381003
O    2.255013  1.497348  2.292411
H    2.013360  1.912249  1.442110
Hg    2.457491  -2.969978  7.925267
