27
Energy: -569906.066678 eV PBE+vdW (tier 2 basis)
N    1.125352  -0.648010  0.357338
C    -0.046004  -0.039765  1.102463
C    0.584393  0.606943  2.373373
O    -0.046528  1.693394  2.762771
H    1.616425  0.049158  -0.220973
H    0.860505  -1.433504  -0.252144
H    -0.516087  0.708678  0.456498
C    -1.051935  -1.168031  1.516710
C    -1.739390  -0.832363  2.851260
C    -2.779159  -1.786852  3.457133
N    -2.727713  -1.797422  4.946654
C    -2.334468  -0.823306  5.795284
N    -2.546846  0.514284  5.581705
N    -1.738973  -1.158176  6.945269
H    -0.498094  -2.112494  1.635108
H    -1.780181  -1.304300  0.706029
H    -2.192903  0.162726  2.744763
H    -0.920870  -0.783237  3.586492
H    -2.579278  -2.825379  3.162732
H    -3.796942  -1.550914  3.117330
H    -2.866430  -2.716130  5.363661
H    -3.349959  0.671810  4.966937
H    -1.747711  -0.494330  7.714486
H    -1.399929  -2.096101  7.134272
O    1.509034  0.017676  2.910737
H    1.790945  -0.971319  1.093182
Hg    -0.974088  1.523786  4.631722
