27
Energy: -569905.902305 eV PBE+vdW (tier 2 basis)
N    1.602978  0.791309  0.970119
C    1.276353  -0.126305  2.044743
C    2.499883  -1.033202  2.374886
O    3.156594  -1.572772  1.500377
H    0.730728  1.093480  0.509100
H    -5.037265  -0.227275  2.553606
H    1.156914  0.565995  2.908203
C    -0.002466  -0.987473  1.848442
C    -0.512659  -1.793112  3.059643
C    -1.394627  -1.042212  4.066717
N    -2.751495  -0.841358  3.536212
C    -3.710045  -0.099224  4.124106
N    -4.891502  0.057992  3.514592
N    -3.476173  0.511100  5.291701
H    0.208835  -1.688428  1.025426
H    -0.792353  -0.312897  1.481905
H    0.324049  -2.239832  3.615011
H    -1.073094  -2.664697  2.687922
H    -0.973044  -0.054228  4.310969
H    -1.438032  -1.631139  4.997247
H    -3.068181  -1.512167  2.841646
H    -5.692128  0.440641  4.004995
H    -4.143497  1.170480  5.677047
H    -2.730053  0.210356  5.906372
O    2.777908  -1.283427  3.646715
H    2.275957  -0.711312  4.257033
Hg    2.608677  -0.271398  -0.606428
