27
Energy: -569906.739071 eV PBE+vdW (tier 2 basis)
N    1.609109  -0.367712  2.491540
C    0.363119  0.066843  3.221704
C    0.776364  0.216099  4.699125
O    1.691181  -0.462364  5.144726
H    1.431495  -0.419735  1.481867
H    2.376802  0.300764  2.634405
H    0.054251  1.033612  2.797130
C    -0.777560  -0.983482  3.042989
C    -0.859604  -2.122529  4.101061
C    -1.199450  -3.532058  3.602739
N    -0.218908  -4.236886  2.708335
C    0.886733  -4.925993  3.149849
N    1.873060  -4.268962  3.778049
N    0.984540  -6.232793  2.896429
H    -0.688195  -1.392711  2.023297
H    -1.726855  -0.433785  3.039890
H    -1.656532  -1.870831  4.815979
H    0.031372  -2.173115  4.744655
H    -2.126829  -3.504056  3.017558
H    -1.397154  -4.162657  4.480974
H    -0.698300  -4.731342  1.958830
H    2.595654  -4.814886  4.244294
H    0.162831  -6.795947  2.696428
H    1.870070  -6.727546  2.964439
O    0.089385  1.025955  5.484016
H    -0.568463  1.574784  5.014278
Hg    2.090051  -2.297765  3.297919
