27
Energy: -569907.206901 eV PBE+vdW (tier 2 basis)
N    1.113217  -0.996587  1.279397
C    0.491939  -0.113154  2.336768
C    1.257838  -0.388331  3.633760
O    1.739974  -1.486842  3.879418
H    0.676849  -0.810859  0.368354
H    2.117739  -0.802270  1.174544
H    0.663930  0.929811  2.039010
C    -1.046943  -0.385607  2.455319
C    -1.640653  -0.945092  3.769592
C    -1.426257  -2.408214  4.199997
N    -2.044208  -3.422261  3.312859
C    -1.480150  -4.598805  2.937552
N    -0.171841  -4.665887  2.627436
N    -2.250188  -5.689751  2.850319
H    -1.353689  -1.018342  1.603764
H    -1.545990  0.574614  2.275146
H    -2.724536  -0.766868  3.705659
H    -1.315921  -0.321337  4.615880
H    -1.879115  -2.522724  5.196378
H    -0.369470  -2.667242  4.332739
H    -3.062194  -3.424722  3.314538
H    0.245363  -5.589139  2.537289
H    -3.126155  -5.764808  3.358414
H    -1.955178  -6.507113  2.325537
O    1.295773  0.671228  4.420373
H    1.779223  0.467270  5.251099
Hg    0.734223  -2.999185  1.907982
