27
Energy: -569906.095041 eV PBE+vdW (tier 2 basis)
N    1.516619  -0.295151  0.774681
C    0.776443  0.175963  1.923176
C    1.624979  0.495193  3.212567
O    2.553395  -0.212807  3.554767
H    -5.012367  -4.261721  3.248076
H    2.049310  0.495074  0.375287
H    0.341723  1.142412  1.595279
C    -0.337594  -0.839588  2.283670
C    -1.376905  -0.343746  3.300420
C    -2.490579  -1.349928  3.617670
N    -3.419644  -1.531430  2.493097
C    -4.319081  -2.528746  2.394654
N    -4.447913  -3.429043  3.375405
N    -5.068258  -2.636808  1.289428
H    0.141649  -1.756697  2.664425
H    -0.814060  -1.109134  1.331249
H    -1.833477  0.602097  2.961232
H    -0.898980  -0.118107  4.264742
H    -3.038121  -0.993294  4.504721
H    -2.049025  -2.328057  3.859791
H    -3.581570  -0.725012  1.896818
H    -4.107529  -3.248227  4.311612
H    -5.879370  -3.243977  1.258942
H    -4.857878  -2.109956  0.450483
O    1.254992  1.517300  3.969517
H    0.549122  2.053294  3.560532
Hg    3.148200  -1.557759  1.426285
