27
Energy: -569906.745312 eV PBE+vdW (tier 2 basis)
N    0.632990  1.011484  0.908513
C    0.353346  0.111842  2.086877
C    0.873955  -1.295364  1.748839
O    0.992530  -1.675407  0.593863
H    0.241545  1.946668  1.071520
H    1.644732  1.128791  0.774966
H    0.932252  0.507485  2.936679
C    -1.148118  0.116550  2.506430
C    -2.293193  -0.000977  1.468470
C    -2.836719  -1.352637  0.956093
N    -2.013547  -2.279228  0.127053
C    -1.900672  -2.259542  -1.232595
N    -1.573283  -1.113409  -1.857820
N    -2.080607  -3.391835  -1.917715
H    -1.306152  1.066175  3.037864
H    -1.267336  -0.660341  3.276332
H    -2.168071  0.711848  0.634955
H    -3.169133  0.422512  1.986263
H    -3.758743  -1.127506  0.402004
H    -3.134993  -1.954317  1.823629
H    -1.929632  -3.210601  0.524867
H    -1.660130  -1.081812  -2.871893
H    -1.736970  -3.499846  -2.867745
H    -2.615848  -4.165399  -1.534157
O    1.141972  -2.119378  2.750177
H    1.107805  -1.702323  3.633082
Hg    -0.264830  0.040263  -0.797294
