27
Energy: -569905.328565 eV PBE+vdW (tier 2 basis)
N    -0.617077  1.559570  2.236489
C    -0.086660  0.252763  2.281640
C    1.077389  0.031894  1.230657
O    1.383243  -1.069393  0.823873
H    -0.117706  2.337716  2.659183
H    -1.316455  1.807999  1.540896
H    0.452192  0.144337  3.242545
C    -1.170535  -0.848224  2.127294
C    -1.074049  -1.989196  3.154972
C    0.174908  -2.883489  3.131051
N    0.390497  -3.590912  1.865794
C    0.224263  -4.901726  1.655036
N    -0.453685  -5.660377  2.556584
N    0.815457  -5.479109  0.590874
H    -1.157162  -1.240952  1.102296
H    -2.147352  -0.368361  2.268665
H    -1.983042  -2.612699  3.007483
H    -1.168400  -1.588330  4.175978
H    0.115739  -3.629069  3.932639
H    1.082739  -2.294808  3.322417
H    0.831018  -3.032250  1.133089
H    -0.406694  -6.660844  2.341585
H    0.539533  -6.401283  0.270547
H    1.617500  -5.056959  0.131021
O    1.668315  1.173096  0.912021
H    2.415326  1.008786  0.295972
Hg    -2.574109  -5.244993  3.007634
