27
Energy: -569904.902045 eV PBE+vdW (tier 2 basis)
N    0.945939  1.258476  1.695442
C    0.038866  0.187254  2.179552
C    0.717400  -1.212716  2.174102
O    1.984835  -1.344913  2.403332
H    0.979165  1.314952  0.671460
H    0.686627  2.181393  2.056098
H    -0.149712  0.407679  3.243377
C    -1.308839  0.194096  1.408103
C    -2.517141  -0.389992  2.198275
C    -3.278161  -1.518093  1.508098
N    -2.566775  -2.853768  1.637887
C    -2.945279  -3.664560  2.863216
N    -3.913221  -3.211747  3.539170
N    -2.163251  -4.761357  2.981321
H    -1.170481  -0.323776  0.447666
H    -1.537535  1.238173  1.159284
H    -3.247253  0.413124  2.360616
H    -2.223101  -0.713448  3.207176
H    -3.404169  -1.336740  0.433674
H    -4.263309  -1.656330  1.967017
H    -2.760337  -3.433785  0.810200
H    -4.200249  -3.774605  4.344152
H    -2.339242  -5.421489  3.732556
H    -1.304218  -4.891381  2.455852
O    0.032138  -2.230468  2.010896
H    -1.526591  -2.661817  1.673252
Hg    3.106618  0.552347  2.436583
