27
Energy: -569905.483815 eV PBE+vdW (tier 2 basis)
N    0.239133  1.254510  -0.601005
C    -0.066825  0.536905  0.701959
C    1.246311  0.717452  1.499412
O    2.193437  1.294988  0.997758
H    -0.364033  2.066538  -0.773486
H    1.241677  1.580939  -0.452804
H    -0.861704  1.097156  1.214082
C    -0.470526  -0.930084  0.514598
C    -1.864460  -1.141261  -0.098669
C    -2.242823  -2.628410  -0.117422
N    -3.585217  -2.813786  -0.667220
C    -4.069571  -4.019832  -1.075173
N    -5.378079  -4.105805  -1.463016
N    -3.358162  -5.141983  -1.107612
H    -0.437788  -1.382144  1.516265
H    0.304750  -1.448186  -0.074309
H    -1.919349  -0.749290  -1.127018
H    -2.606548  -0.584142  0.496406
H    -2.174403  -3.040651  0.904008
H    -1.541677  -3.190387  -0.753155
H    -4.284630  -2.124407  -0.407425
H    -5.756144  -3.342494  -2.031565
H    0.200183  0.637663  -1.420320
H    -2.550743  -5.267074  -0.497079
O    1.175177  0.196463  2.711797
H    2.017629  0.350708  3.191312
Hg    -5.164537  -6.232850  -2.019444
