27
Energy: -569904.720418 eV PBE+vdW (tier 2 basis)
N    0.709388  0.021023  -1.041504
C    0.099427  0.172944  0.252339
C    1.272748  0.254795  1.316855
O    1.032453  0.348941  2.523199
H    0.600312  -0.880272  -1.499501
H    0.570502  0.789802  -1.693697
H    -0.351293  1.175737  0.327607
C    -0.969528  -0.857781  0.658895
C    -0.526290  -2.330681  0.659368
C    -1.602734  -3.299009  1.163209
N    -2.732373  -3.425915  0.251568
C    -3.954696  -3.952685  0.562709
N    -4.993006  -3.934158  -0.264701
N    -4.183791  -4.473625  1.785085
H    -1.823208  -0.707666  -0.018677
H    -1.315896  -0.579561  1.665234
H    0.343278  -2.466513  1.319737
H    -0.196905  -2.660340  -0.340049
H    -1.989245  -2.965012  2.141423
H    -1.146963  -4.294516  1.321675
H    -2.582247  -3.227337  -0.734069
H    -4.760596  -3.591544  -1.205998
H    -5.131171  -4.791880  1.974774
H    -3.456678  -4.709489  2.450090
O    2.473850  0.260937  0.818615
H    2.335704  0.170748  -0.178270
Hg    2.851770  0.887333  4.118931
