27
Energy: -569904.842156 eV PBE+vdW (tier 2 basis)
N    -0.214048  0.594915  -0.495191
C    0.040090  0.155584  0.899914
C    1.353043  -0.659094  1.054459
O    2.381315  -0.431676  0.297058
H    -0.637564  -0.135581  -1.076941
H    -0.814141  1.423959  -0.537319
H    0.224774  1.077016  1.477108
C    -1.169849  -0.565736  1.542811
C    -1.494984  -1.987355  1.016847
C    -1.627896  -3.045828  2.109796
N    -0.285611  -3.426067  2.721164
C    0.376783  -4.644386  2.106249
N    -0.146705  -5.059150  1.031396
N    1.428007  -5.062085  2.846226
H    -2.042165  0.091151  1.427661
H    -0.972631  -0.578392  2.623356
H    -0.762236  -2.342126  0.275305
H    -2.458839  -1.978490  0.491290
H    -2.052682  -3.969880  1.706329
H    -2.252151  -2.690405  2.939045
H    -0.404850  -3.591953  3.728850
H    0.290400  -5.889725  0.623624
H    1.966075  -5.865942  2.537389
H    1.811422  -4.540079  3.627740
O    1.455043  -1.493337  1.961870
H    0.383582  -2.612225  2.594135
Hg    1.994506  0.994143  -1.331796
