27
Energy: -569906.53708 eV PBE+vdW (tier 2 basis)
N    0.801898  0.184044  0.392250
C    0.507856  -0.090259  1.762503
C    1.602015  -0.849267  2.523850
O    1.921337  -0.661505  3.747266
H    0.684906  -0.605554  -0.240650
H    1.687740  0.653452  0.217050
H    0.433226  0.883131  2.291432
C    -0.859071  -0.835732  1.863751
C    -1.587325  -0.850621  3.216104
C    -2.168405  0.515461  3.644673
N    -2.635955  0.546679  5.036846
C    -2.019608  1.097697  6.097244
N    -0.699215  1.393450  6.091291
N    -2.741909  1.383586  7.189241
H    -0.720952  -1.869916  1.517576
H    -1.488678  -0.340104  1.109193
H    -0.950504  -1.276149  4.016338
H    -2.413738  -1.572553  3.145839
H    -3.027751  0.764043  3.007611
H    -1.461786  1.347799  3.508512
H    -3.570357  0.184190  5.207335
H    -0.369733  1.999599  6.839211
H    -2.303006  1.542183  8.090054
H    -3.750493  1.493715  7.146108
O    2.282902  -1.714941  1.838507
H    2.981630  -2.155622  2.373469
Hg    0.677261  0.428480  4.982944
