27
Energy: -569904.583235 eV PBE+vdW (tier 2 basis)
N    0.316973  -1.988920  0.105496
C    0.753121  -0.812095  0.881132
C    2.197016  -1.013384  1.400258
O    2.680238  -2.112139  1.628936
H    -0.663418  -1.876378  -0.168036
H    0.851318  -2.054521  -0.766044
H    0.793217  0.076484  0.224593
C    -0.234253  -0.479490  2.034779
C    -0.853935  -1.655837  2.802919
C    0.121993  -2.494838  3.673125
N    -0.130237  -3.941914  3.601880
C    0.162266  -4.732003  2.564775
N    -0.309931  -5.958259  2.401141
N    0.994614  -4.275620  1.502420
H    -1.065684  0.088505  1.590539
H    0.253199  0.222012  2.727580
H    -1.370995  -2.328534  2.103684
H    -1.646724  -1.249126  3.443679
H    0.031275  -2.227845  4.731772
H    1.168019  -2.332674  3.393421
H    -0.743185  -4.333221  4.316241
H    -0.900234  -6.409686  3.104685
H    1.875509  -3.816533  1.809478
H    0.565798  -3.476817  0.871210
O    2.912593  0.076063  1.643791
H    2.469199  0.901328  1.367048
Hg    1.041580  -6.629338  0.799344
