27
Energy: -569905.487087 eV PBE+vdW (tier 2 basis)
N    0.221319  -0.083689  -0.870255
C    0.120755  0.209441  0.509464
C    1.426236  -0.149927  1.308674
O    1.640638  0.288497  2.422821
H    0.142989  -1.042276  -1.201340
H    0.669900  0.568895  -1.506977
H    0.034852  1.300733  0.624434
C    -1.111320  -0.509146  1.135540
C    -1.319312  -0.389772  2.652395
C    -1.463360  1.062546  3.143280
N    -1.646483  1.175737  4.593397
C    -0.694827  0.995735  5.530298
N    -1.046933  0.819063  6.832986
N    0.595091  0.910383  5.191483
H    -1.054723  -1.579947  0.887418
H    -1.985810  -0.115407  0.598372
H    -0.506979  -0.890323  3.196049
H    -2.237400  -0.941700  2.899469
H    -2.339793  1.539023  2.686599
H    -0.588014  1.670028  2.864382
H    -2.581416  1.391234  4.928104
H    -2.059426  0.871775  6.981165
H    0.911440  0.933206  4.221336
H    1.248729  0.536114  5.870145
O    2.221612  -0.970584  0.636945
H    3.022764  -1.174132  1.166700
Hg    -0.200360  2.137297  8.410265
