27
Energy: -569906.074286 eV PBE+vdW (tier 2 basis)
N    0.378568  0.235532  0.504320
C    0.622348  0.726833  1.848460
C    2.080678  0.558206  2.373023
O    2.972745  0.007451  1.749734
H    -4.760540  -2.456168  2.780104
H    -0.077304  0.981336  -0.040232
H    0.397652  1.803585  1.938487
C    -0.344828  -0.073552  2.801649
C    -0.014945  -1.562126  2.950930
C    -0.908544  -2.314147  3.944964
N    -2.284915  -2.474406  3.453973
C    -3.333516  -2.837205  4.216782
N    -4.560799  -2.874017  3.680614
N    -3.165386  -3.131372  5.510564
H    -1.359750  0.075997  2.409949
H    -0.326768  0.426048  3.784358
H    1.014130  -1.690654  3.318412
H    -0.048362  -2.061062  1.970675
H    -0.948477  -1.768808  4.899815
H    -0.458884  -3.301694  4.136217
H    -2.405485  -2.574137  2.450186
H    -5.333266  -3.320866  4.161304
H    -3.962040  -3.253623  6.125834
H    -2.256500  -3.366992  5.889226
O    2.334889  1.028277  3.586245
H    1.590906  1.531570  3.967460
Hg    2.189325  -0.068942  -0.614544
