27
Energy: -569904.350711 eV PBE+vdW (tier 2 basis)
N    -0.687542  0.503302  0.314410
C    -0.121541  0.060902  1.597702
C    1.303043  -0.537421  1.422116
O    1.992104  -0.348420  0.421828
H    -1.187204  -0.324226  -0.231291
H    -1.417467  1.218670  0.448308
H    0.016033  0.947549  2.238670
C    -1.121346  -0.880125  2.343782
C    -1.417624  -2.307184  1.832114
C    -1.440946  -2.620418  0.327342
N    -2.088574  -1.592573  -0.538805
C    -3.412311  -1.117095  -0.175525
N    -3.464060  0.071947  0.325345
N    -4.436104  -1.956299  -0.447707
H    -2.051488  -0.300728  2.387887
H    -0.780337  -0.950516  3.389483
H    -2.386329  -2.581855  2.272296
H    -0.698141  -3.020444  2.258336
H    -1.928142  -3.600490  0.202815
H    -0.422517  -2.731570  -0.072401
H    -2.073302  -1.906058  -1.514787
H    -4.395753  0.370994  0.630630
H    -4.296117  -2.836890  -0.932132
H    -5.399766  -1.650859  -0.341951
O    1.807483  -1.242143  2.410129
H    1.206330  -1.325170  3.176243
Hg    0.969637  1.336052  -1.006739
