27
Energy: -569905.162641 eV PBE+vdW (tier 2 basis)
N    0.102206  0.163948  0.564506
C    0.243271  -0.243677  1.985465
C    1.761462  -0.432306  2.161071
O    2.514041  0.540324  1.909746
H    0.575733  -0.487166  -0.068205
H    -0.876687  0.167269  0.278876
H    0.111644  0.660721  2.607493
C    -0.829913  -1.201734  2.538619
C    -1.866411  -0.420702  3.393151
C    -2.751845  0.673293  2.740197
N    -2.048679  1.789983  2.056442
C    -1.220578  2.708791  2.577622
N    -0.412050  3.534486  1.795079
N    -1.061075  2.832546  3.895630
H    -0.399973  -1.967465  3.203910
H    -1.308565  -1.750297  1.715156
H    -1.336468  -0.008340  4.266234
H    -2.581165  -1.142720  3.813589
H    -3.424395  1.084131  3.508676
H    -3.405441  0.235010  1.976235
H    -2.175582  1.855956  1.051550
H    -0.835836  3.737993  0.882802
H    -0.521239  3.626093  4.232641
H    -1.646760  2.346827  4.567763
O    2.321913  -1.535747  2.561871
H    1.684661  -2.263166  2.715418
Hg    1.309203  2.346267  1.378243
