27
Energy: -569906.299614 eV PBE+vdW (tier 2 basis)
N    1.317237  -0.780773  1.258640
C    0.263598  -0.666595  2.304599
C    0.492658  -1.627640  3.496883
O    1.691015  -1.982941  3.876645
H    1.140319  -1.557636  0.611832
H    1.404131  0.075572  0.702832
H    0.364914  0.345326  2.731125
C    -1.146656  -0.816838  1.672273
C    -2.311399  -0.348769  2.583427
C    -3.294594  -1.498233  2.887609
N    -4.268780  -1.160139  3.920476
C    -4.178387  -1.487571  5.223246
N    -3.055299  -2.012510  5.720385
N    -5.235025  -1.280754  6.021849
H    -1.285233  -1.867326  1.373185
H    -1.152456  -0.227940  0.745899
H    -2.851697  0.471557  2.093077
H    -1.929075  0.057582  3.528392
H    -2.758089  -2.402682  3.198878
H    -3.857048  -1.765564  1.982591
H    -5.071396  -0.603170  3.643551
H    -3.043539  -2.412449  6.651218
H    -5.162218  -1.375228  7.027919
H    -6.157513  -1.098022  5.645024
O    -0.461761  -2.026725  4.161956
H    -2.182353  -2.031494  5.196035
Hg    3.271995  -1.357952  2.511141
