27
Energy: -569905.115107 eV PBE+vdW (tier 2 basis)
N    1.691787  -1.243187  2.075678
C    0.597726  -0.197832  2.142470
C    0.830683  0.563570  3.452208
O    1.510554  0.107050  4.351081
H    2.605963  -0.822143  2.293883
H    1.739894  -1.647309  1.132284
H    0.776528  0.487898  1.304186
C    -0.808956  -0.843431  1.991413
C    -1.722923  -0.947018  3.224590
C    -1.292922  -1.832371  4.405186
N    -1.157137  -3.259453  4.099154
C    -0.009142  -3.930718  3.905871
N    0.035745  -5.188498  3.477829
N    1.223769  -3.296445  4.040871
H    -0.685059  -1.833872  1.523612
H    -1.352084  -0.247461  1.247425
H    -2.702816  -1.294666  2.865194
H    -1.912862  0.056122  3.632985
H    -2.060307  -1.755182  5.188103
H    -0.350058  -1.489783  4.847507
H    -2.021150  -3.777570  3.951255
H    -0.802185  -5.739253  3.286412
H    1.537022  -2.027695  2.784467
H    1.319892  -2.739581  4.898270
O    0.195889  1.731081  3.443273
H    0.365364  2.209707  4.283153
Hg    2.188671  -5.405886  3.985473
