27
Energy: -569906.189569 eV PBE+vdW (tier 2 basis)
N    1.069907  1.011416  1.370001
C    0.283345  0.231055  2.358698
C    1.133794  -0.745587  3.183938
O    2.195579  -1.327199  2.714892
H    0.501427  1.333116  0.579753
H    1.530026  1.827320  1.787052
H    -0.118666  0.942259  3.103243
C    -0.883826  -0.518988  1.665387
C    -2.133354  -0.829494  2.533098
C    -2.340611  -2.256448  3.067880
N    -1.634045  -2.534143  4.318249
C    -2.026311  -3.407386  5.256366
N    -1.397013  -3.418314  6.440796
N    -3.040986  -4.253789  5.037247
H    -0.505372  -1.436254  1.185965
H    -1.221965  0.131155  0.844804
H    -3.002856  -0.638714  1.890582
H    -2.221558  -0.110147  3.359940
H    -2.061948  -2.995496  2.296870
H    -3.417187  -2.375099  3.256665
H    -0.748894  -2.041955  4.477457
H    -1.529382  -4.172106  7.104546
H    -3.430710  -4.809601  5.789644
H    -3.394761  -4.432044  4.106434
O    0.734929  -1.049406  4.313682
H    -0.744787  -2.686039  6.694794
Hg    2.835221  -0.487113  0.786016
