27
Energy: -569905.958182 eV PBE+vdW (tier 2 basis)
N    1.725328  -0.193143  3.848485
C    0.759731  -1.260653  3.720935
C    1.328679  -2.718854  3.490782
O    2.517253  -2.977178  3.532069
H    2.019642  0.079180  2.894548
H    -1.929386  3.302156  2.057232
H    0.235361  -1.341623  4.692095
C    -0.258592  -0.870312  2.604421
C    -1.074907  0.386112  2.952245
C    -2.266938  0.644256  2.016001
N    -1.923921  1.114159  0.666317
C    -2.040107  2.377533  0.218345
N    -2.127311  3.405367  1.070783
N    -2.054952  2.611750  -1.100496
H    -0.955649  -1.709798  2.450831
H    0.288212  -0.753163  1.654768
H    -0.421808  1.270453  2.990570
H    -1.490661  0.272146  3.965202
H    -2.943605  1.379578  2.470858
H    -2.865942  -0.269997  1.894840
H    -1.737440  0.409933  -0.040036
H    -2.418550  4.323218  0.753876
H    -1.946587  3.549534  -1.470201
H    -2.261320  1.878375  -1.768708
O    0.455350  -3.696915  3.307239
H    -0.472514  -3.401007  3.356151
Hg    3.634248  -0.936581  4.534413
