27
Energy: -569904.913728 eV PBE+vdW (tier 2 basis)
N    0.310583  -0.087540  0.452128
C    -0.069289  -0.377869  1.849643
C    0.682406  0.474112  2.901041
O    1.898515  0.860450  2.726047
H    0.172545  -0.885420  -0.176440
H    -0.178412  0.723200  0.059915
H    -1.124142  -0.079129  1.982087
C    0.114940  -1.887035  2.141555
C    0.016762  -2.332598  3.609195
C    -1.370387  -2.145143  4.264845
N    -1.341172  -2.402809  5.704996
C    -0.959633  -1.553062  6.701779
N    -0.592609  -1.732040  7.900086
N    -1.054468  -0.090029  6.347917
H    1.112751  -2.188012  1.779241
H    -0.616051  -2.436221  1.527738
H    0.778379  -1.815967  4.211097
H    0.280607  -3.398764  3.646793
H    -2.100291  -2.839966  3.828868
H    -1.764217  -1.135849  4.091923
H    -1.360396  -3.381202  5.986926
H    -0.512099  -2.704172  8.211744
H    -0.646442  0.398194  7.160142
H    -2.037128  0.208779  6.260739
O    0.087518  0.711638  3.962790
H    -0.545385  0.198052  5.472093
Hg    2.628253  0.528808  0.647895
