27
Energy: -569905.317832 eV PBE+vdW (tier 2 basis)
N    -0.594389  0.210859  0.123826
C    0.334059  -0.280615  1.078911
C    1.639961  -0.783239  0.390915
O    2.354000  -1.643849  0.871448
H    -0.314739  0.909835  -0.559169
H    -1.591771  0.069142  0.248587
H    0.742659  0.573324  1.674732
C    -0.290518  -1.267493  2.077663
C    -0.857788  -2.583623  1.501005
C    0.078268  -3.806035  1.453865
N    0.370296  -4.411175  2.761555
C    1.453169  -4.229607  3.539668
N    1.464736  -4.727300  4.812868
N    2.500143  -3.510212  3.128690
H    -1.105704  -0.720912  2.572969
H    0.442024  -1.458494  2.872769
H    -1.213641  -2.428288  0.470781
H    -1.751347  -2.863309  2.076182
H    1.025056  -3.584260  0.950166
H    -0.411172  -4.596781  0.868886
H    -0.320886  -5.071063  3.109104
H    0.610324  -5.247767  5.036754
H    3.187922  -3.231278  3.819498
H    2.494116  -2.981594  2.252462
O    1.894961  -0.112343  -0.723355
H    2.754825  -0.392621  -1.104068
Hg    3.083022  -6.121586  5.424592
