27
Energy: -569906.14271 eV PBE+vdW (tier 2 basis)
N    0.493185  -0.033692  1.084882
C    0.691575  -0.392148  2.461775
C    2.115253  -0.898602  2.809026
O    2.522336  -1.596353  3.800585
H    0.741654  -0.755588  0.411722
H    0.928785  0.844162  0.812209
H    0.668124  0.546607  3.052216
C    -0.492993  -1.240114  2.983754
C    -0.823445  -2.522063  2.200196
C    -1.753268  -3.489428  2.958661
N    -1.003304  -4.160723  4.038246
C    -1.117240  -3.994090  5.376710
N    0.033211  -3.867418  6.082401
N    -2.313725  -3.947166  5.959065
H    -1.361292  -0.567890  2.947736
H    -0.369148  -1.440900  4.066479
H    0.089184  -3.075014  1.914010
H    -1.310937  -2.248179  1.254561
H    -2.154768  -4.248799  2.276291
H    -2.605590  -2.958074  3.401916
H    -0.187659  -4.692850  3.742535
H    0.030097  -4.000053  7.093619
H    -2.433300  -3.614083  6.911425
H    -3.125161  -4.361409  5.507361
O    3.028835  -0.467026  1.991265
H    3.934294  -0.730964  2.273185
Hg    1.375654  -2.702709  5.107364
