27
Energy: -569905.320554 eV PBE+vdW (tier 2 basis)
N    -0.329356  1.452623  0.231174
C    0.033636  1.263225  1.578096
C    1.505385  0.653463  1.736546
O    1.862362  0.121830  2.756705
H    0.016577  2.259653  -0.281599
H    -0.582604  0.653029  -0.344894
H    0.149887  2.254765  2.051193
C    -0.953424  0.396397  2.387089
C    -2.288984  1.101742  2.639809
C    -3.251362  0.338542  3.569601
N    -2.853715  0.337191  4.977938
C    -2.498498  -0.710886  5.752012
N    -2.060370  -1.877883  5.239912
N    -2.510424  -0.559521  7.087751
H    -0.439805  0.153325  3.329566
H    -1.112059  -0.556039  1.854620
H    -2.827208  1.260406  1.695093
H    -2.117140  2.105896  3.058946
H    -3.396747  -0.698488  3.238861
H    -4.238206  0.823070  3.520001
H    -2.856497  1.248344  5.434826
H    -2.046823  -1.900959  4.218825
H    -1.934281  -1.159655  7.667112
H    -2.934819  0.245448  7.534660
O    2.229635  0.863698  0.642731
H    3.145566  0.537518  0.783717
Hg    -2.968890  -3.811629  5.926962
