27
Energy: -569904.815792 eV PBE+vdW (tier 2 basis)
N    1.094050  0.664830  0.257981
C    0.375858  0.320370  1.448712
C    1.404975  0.386449  2.668381
O    1.052241  0.098929  3.811223
H    1.304437  -0.092869  -0.387848
H    0.815480  1.516815  -0.222213
H    -0.335718  1.124676  1.699208
C    -0.347699  -1.038321  1.445036
C    -1.616128  -1.011819  0.582805
C    -2.476623  -2.300222  0.709170
N    -1.926784  -3.473938  0.054929
C    -2.037492  -3.799622  -1.269446
N    -1.504365  -4.894162  -1.798599
N    -2.694507  -2.990014  -2.125778
H    -0.605755  -1.275249  2.487823
H    0.348592  -1.822404  1.104559
H    -1.371898  -0.830556  -0.474208
H    -2.264808  -0.181906  0.901827
H    -3.477423  -2.096520  0.295485
H    -2.627308  -2.553007  1.766045
H    -1.479580  -4.179296  0.633300
H    -1.028643  -5.486758  -1.105837
H    -2.787665  -3.324502  -3.081488
H    -3.247429  -2.189960  -1.843616
O    2.599144  0.798160  2.360327
H    2.576002  0.956150  1.366309
Hg    2.597478  0.423741  5.735761
