27
Energy: -569905.348539 eV PBE+vdW (tier 2 basis)
N    -0.507068  -1.233798  -1.089543
C    -0.319272  -0.745583  0.226508
C    1.112919  -0.064434  0.357992
O    1.951932  -0.410130  1.164620
H    -0.307888  -2.199889  -1.329909
H    -0.664853  -0.594867  -1.864224
H    -0.996858  0.116777  0.372768
C    -0.556577  -1.775999  1.331468
C    0.393929  -2.994989  1.341533
C    0.846923  -3.319710  2.779337
N    1.991681  -4.225879  2.853094
C    3.278579  -3.848118  2.853763
N    4.222471  -4.818450  3.011815
N    3.618902  -2.569082  2.632117
H    -1.603103  -2.099346  1.258181
H    -0.474645  -1.228777  2.281598
H    1.285245  -2.795923  0.728582
H    -0.090520  -3.878514  0.904644
H    0.028917  -3.777467  3.350083
H    1.122287  -2.395360  3.307538
H    1.827646  -5.227877  2.805531
H    5.173982  -4.457787  2.889288
H    4.566309  -2.254024  2.810003
H    2.981353  -1.889143  2.212242
O    1.231558  0.918416  -0.521724
H    2.105843  1.355997  -0.437340
Hg    4.368032  -5.980481  4.903488
