27
Energy: -569904.8826 eV PBE+vdW (tier 2 basis)
N    0.738831  -0.414723  -0.403150
C    0.294582  -0.344331  0.970945
C    1.455777  0.388217  1.761740
O    1.378292  0.617833  2.974978
H    0.940712  -1.350284  -0.752707
H    0.179375  0.110413  -1.072435
H    -0.557960  0.347960  1.056827
C    -0.071471  -1.714224  1.583841
C    -0.771759  -1.650409  2.950888
C    -1.219501  -3.017019  3.481422
N    -2.337499  -3.567804  2.745773
C    -2.856244  -4.829840  2.844650
N    -3.881984  -5.026516  2.024137
N    -2.326677  -5.724713  3.699346
H    0.832355  -2.341234  1.648636
H    -0.731673  -2.198029  0.847248
H    -1.643687  -0.978304  2.906499
H    -0.101732  -1.219420  3.706080
H    -1.505594  -2.910908  4.546567
H    -0.386703  -3.743806  3.455766
H    -2.905085  -2.969297  2.145657
H    -4.266620  -5.979330  2.077633
H    -2.704172  -6.665692  3.738573
H    -1.612839  -5.493249  4.381968
O    2.462314  0.745935  1.026756
H    2.195776  0.423762  0.092180
Hg    3.143129  2.002704  4.018307
