27
Energy: -569906.972929 eV PBE+vdW (tier 2 basis)
N    0.464471  -0.546545  -0.521325
C    0.329047  0.291843  0.737131
C    1.762843  0.500478  1.237909
O    1.854696  1.510931  2.081749
H    1.369331  -1.059782  -0.419322
H    -0.311842  -1.205814  -0.661724
H    -0.155710  1.237739  0.471345
C    -0.501642  -0.418156  1.840655
C    -0.069635  -1.815807  2.353835
C    1.053039  -1.997550  3.396109
N    0.713910  -1.482567  4.746050
C    1.596237  -1.129684  5.726138
N    2.694163  -0.403820  5.454348
N    1.322833  -1.485444  6.987460
H    -1.527992  -0.508308  1.454168
H    -0.578272  0.301584  2.668183
H    0.211001  -2.471790  1.514448
H    -0.978924  -2.285988  2.758461
H    2.002202  -1.562562  3.062804
H    1.245855  -3.078616  3.477409
H    -0.169125  -1.837658  5.108179
H    3.394921  -0.312004  6.185881
H    1.772411  -1.029353  7.775436
H    0.711790  -2.267492  7.201090
O    2.622777  -0.321389  0.948030
H    0.534830  0.041282  -1.363594
Hg    2.640823  0.796305  3.820960
