27
Energy: -569906.320026 eV PBE+vdW (tier 2 basis)
N    0.317402  0.563101  0.491631
C    0.273084  -0.041112  1.890478
C    1.678963  -0.496291  2.303015
O    1.832303  -0.891652  3.458995
H    0.687229  1.524994  0.514547
H    0.963687  0.015266  -0.100288
H    -0.092572  0.743082  2.563818
C    -0.646303  -1.286028  1.986566
C    -0.152295  -2.569048  1.271166
C    -0.357501  -3.903883  2.021839
N    0.281511  -4.039381  3.344560
C    1.593687  -4.105043  3.642584
N    2.583717  -4.343108  2.723484
N    1.985360  -3.947839  4.910320
H    -1.654610  -1.011590  1.642343
H    -0.735355  -1.459303  3.067313
H    0.907219  -2.477088  0.989602
H    -0.678738  -2.694885  0.314168
H    -0.038487  -4.727279  1.366885
H    -1.426203  -4.070816  2.202526
H    -0.357268  -4.156709  4.127425
H    2.239200  -4.793294  1.872358
H    2.912306  -4.261847  5.179863
H    1.368136  -3.610024  5.641116
O    2.532976  -0.639111  1.324522
H    -0.613557  0.597817  0.052213
Hg    3.416108  -2.490925  2.143949
