27
Energy: -569904.375414 eV PBE+vdW (tier 2 basis)
N    0.161057  -0.340255  -0.430561
C    -0.142526  0.145719  0.912810
C    1.112670  0.777872  1.592565
O    2.269277  0.491162  1.309519
H    -0.308584  -1.213511  -0.668432
H    0.011748  0.349022  -1.170585
H    -0.874806  0.969688  0.834780
C    -0.684759  -0.976815  1.840879
C    -2.216429  -1.101010  1.947183
C    -2.947419  -1.642684  0.711371
N    -4.353967  -1.864250  1.031200
C    -5.365119  -1.984208  0.120480
N    -5.240130  -1.927199  -1.199674
N    -6.625755  -2.194848  0.564098
H    -0.308536  -0.806238  2.858783
H    -0.230160  -1.931792  1.530186
H    -2.654302  -0.133222  2.235831
H    -2.403918  -1.784264  2.790315
H    -2.480893  -2.587040  0.377157
H    -2.892195  -0.922832  -0.120682
H    -4.559025  -2.105708  1.998475
H    -4.283129  -1.720410  -1.503868
H    -6.899932  -2.190561  1.540893
H    -7.347509  -2.315915  -0.141686
O    0.900160  1.633753  2.572997
H    -0.042788  1.849275  2.710826
Hg    2.643077  -0.916706  -0.640137
