27
Energy: -569905.289932 eV PBE+vdW (tier 2 basis)
N    -0.182238  1.910001  1.845640
C    0.534915  0.725695  2.204813
C    2.081994  0.943440  1.972769
O    2.866499  0.017280  2.074971
H    -0.643319  1.943242  0.938892
H    -0.666463  2.430257  2.572841
H    0.465136  0.602533  3.298159
C    0.062566  -0.568973  1.483612
C    -0.164996  -1.778094  2.409901
C    1.066632  -2.544200  2.923440
N    1.695894  -3.374759  1.884729
C    3.027257  -3.578724  1.699860
N    3.439773  -4.825570  1.380004
N    3.902729  -2.604627  1.921912
H    0.751067  -0.822380  0.666112
H    -0.905771  -0.347727  1.014376
H    -0.834508  -2.481565  1.889613
H    -0.727266  -1.468380  3.304187
H    0.729753  -3.224830  3.722941
H    1.826423  -1.882476  3.349162
H    1.080922  -4.052887  1.436648
H    2.697507  -5.523397  1.291495
H    3.598299  -1.629807  2.022782
H    4.878696  -2.823560  2.086800
O    2.468835  2.163634  1.687848
H    1.657687  2.729806  1.635632
Hg    4.939551  -5.224748  -0.166430
