27
Energy: -569906.09931 eV PBE+vdW (tier 2 basis)
N    0.565170  0.118013  -0.193237
C    0.283440  0.240316  1.215201
C    1.521061  0.479973  2.169885
O    2.623413  0.027168  1.922631
H    0.798755  1.050501  -0.569517
H    -6.518553  1.042431  1.364772
H    -0.330931  1.159019  1.306383
C    -0.454977  -1.012982  1.748060
C    -1.747458  -1.384249  1.001365
C    -2.983908  -0.580634  1.421982
N    -4.166282  -1.102264  0.725619
C    -5.382215  -0.532317  0.699727
N    -5.651111  0.528694  1.471761
N    -6.322297  -1.011544  -0.124613
H    -0.647861  -0.897390  2.825622
H    0.242342  -1.862059  1.669664
H    -1.942758  -2.448538  1.202960
H    -1.586006  -1.285654  -0.082014
H    -2.875332  0.485093  1.165985
H    -3.120794  -0.662286  2.513950
H    -4.086250  -2.026126  0.311581
H    -5.094797  0.739995  2.290285
H    -7.296565  -0.750922  -0.022836
H    -6.095868  -1.657656  -0.871369
O    1.313245  1.128649  3.303021
H    0.407534  1.483477  3.379545
Hg    2.483847  -0.863786  -0.453933
