27
Energy: -569905.422087 eV PBE+vdW (tier 2 basis)
N    -0.423231  -0.330781  -0.062153
C    -0.600522  0.195465  1.302324
C    0.535000  1.180629  1.591532
O    1.334359  1.473360  0.694232
H    -1.207084  -0.947233  -0.291133
H    -0.448440  0.425997  -0.749243
H    -1.533052  0.785228  1.401716
C    -0.689632  -0.958587  2.342752
C    0.561942  -1.786157  2.677845
C    1.209828  -2.593001  1.526984
N    1.875713  -1.707046  0.575767
C    3.145271  -1.318417  0.624944
N    3.667867  -0.509257  -0.375038
N    4.003947  -1.687136  1.584106
H    -1.490713  -1.625876  1.987964
H    -1.077273  -0.542866  3.285562
H    0.265646  -2.525969  3.436812
H    1.327269  -1.158090  3.163038
H    0.447732  -3.155144  0.970190
H    1.920494  -3.329372  1.923311
H    1.159941  -1.140679  0.022497
H    3.008547  -0.449560  -1.162287
H    4.999733  -1.610223  1.396330
H    3.729324  -2.287892  2.353366
O    0.667259  1.723135  2.786404
H    -0.048989  1.476642  3.405199
Hg    3.720491  1.544285  0.295055
