27
Energy: -569906.270394 eV PBE+vdW (tier 2 basis)
N    0.667658  -0.246864  -1.135496
C    0.120726  0.061850  0.206861
C    1.149640  0.699258  1.164170
O    2.415097  0.403650  1.128427
H    0.694967  0.566720  -1.758342
H    0.157480  -1.000162  -1.608349
H    -0.647620  0.847954  0.085440
C    -0.498450  -1.216200  0.816263
C    -1.056211  -1.160839  2.251974
C    -2.309589  -0.312191  2.512397
N    -1.997050  1.105501  2.728615
C    -2.783753  1.974375  3.379768
N    -2.270720  3.145307  3.785632
N    -4.068322  1.688252  3.625362
H    0.269055  -2.008596  0.797388
H    -1.297894  -1.544984  0.132692
H    -0.271047  -0.890702  2.973057
H    -1.330269  -2.195455  2.498977
H    -2.799541  -0.703710  3.416261
H    -3.023191  -0.422522  1.677625
H    -1.037806  1.407029  2.515587
H    -1.269798  3.301741  3.800442
H    -4.635627  2.283650  4.217446
H    -4.534652  0.907731  3.181493
O    0.737000  1.465263  2.038386
H    -2.860387  3.888807  4.140526
Hg    2.950223  -0.788143  -0.627867
