27
Energy: -569905.313327 eV PBE+vdW (tier 2 basis)
N    -0.305146  -0.991168  -0.064043
C    -0.404782  -0.590984  1.282890
C    0.897789  0.093561  1.828869
O    0.839355  0.974244  2.670640
H    -0.006336  -1.932996  -0.303794
H    -0.249939  -0.303389  -0.809856
H    -1.144761  0.230408  1.358293
C    -0.810729  -1.787183  2.186412
C    -0.526167  -1.770178  3.697419
C    -1.081697  -0.626234  4.575316
N    -2.436528  -0.194433  4.234621
C    -2.795076  0.993455  3.718096
N    -1.896563  1.826214  3.123087
N    -4.090821  1.346615  3.719127
H    -0.301088  -2.678786  1.791944
H    -1.883520  -1.946850  2.003530
H    0.556068  -1.807032  3.892167
H    -0.917556  -2.722597  4.081487
H    -0.429882  0.250847  4.551587
H    -1.102907  -0.968843  5.619931
H    -3.184422  -0.869747  4.390874
H    -0.903931  1.518518  3.155931
H    -4.425540  2.048713  3.068878
H    -4.790556  0.827218  4.238824
O    2.001311  -0.401227  1.299318
H    2.793480  0.041348  1.676031
Hg    -1.833226  3.932271  3.816094
