27
Energy: -569905.230452 eV PBE+vdW (tier 2 basis)
N    0.106217  -1.070249  -0.734568
C    0.238233  -0.093913  0.336687
C    1.700942  0.271245  0.514285
O    2.583149  -0.422544  -0.009525
H    -0.870784  -1.185609  -1.008278
H    0.646799  -0.826822  -1.564193
H    -0.345755  0.826642  0.141180
C    -0.283056  -0.662588  1.700825
C    0.576559  -1.684801  2.458929
C    0.569794  -3.154997  2.010219
N    1.170327  -3.472347  0.704136
C    2.464295  -3.469287  0.362994
N    3.478889  -3.370432  1.274947
N    2.818189  -3.599594  -0.925038
H    -1.284924  -1.071469  1.499729
H    -0.448645  0.194373  2.369331
H    0.184500  -1.719532  3.486971
H    1.607728  -1.313764  2.581229
H    -0.462153  -3.521802  1.950628
H    1.054087  -3.771446  2.781573
H    0.516460  -3.757022  -0.022167
H    3.156828  -3.435067  2.244708
H    2.127237  -3.639182  -1.666178
H    3.743417  -3.957682  -1.141533
O    2.047620  1.273773  1.300701
H    1.289376  1.809062  1.610551
Hg    4.450814  -1.440128  1.092071
