27
Energy: -569906.709603 eV PBE+vdW (tier 2 basis)
N    1.503376  -1.796990  1.806471
C    0.529625  -0.738567  2.112459
C    0.849902  -0.231262  3.518623
O    1.271351  -0.965191  4.448505
H    1.232529  -2.302090  0.962517
H    2.433840  -1.408134  1.626894
H    0.602274  0.116418  1.422978
C    -0.937548  -1.261669  2.146193
C    -1.466537  -2.120095  0.975764
C    -1.017444  -3.600198  0.819179
N    -0.761691  -4.250010  2.111622
C    0.208958  -5.158627  2.386102
N    0.840661  -5.045707  3.570931
N    0.530484  -6.086633  1.481052
H    -1.579382  -0.372286  2.207065
H    -1.107470  -1.791187  3.100073
H    -1.284206  -1.618648  0.014345
H    -2.559078  -2.116318  1.095301
H    -0.097099  -3.694744  0.224576
H    -1.801062  -4.126523  0.255195
H    -1.329672  -3.971584  2.906270
H    1.390389  -5.832817  3.914230
H    -0.142976  -6.384310  0.780101
H    1.374898  -6.644010  1.571481
O    0.617167  1.034275  3.704774
H    0.787611  1.312696  4.633911
Hg    1.313840  -3.081780  3.985664
