27
Energy: -569906.861121 eV PBE+vdW (tier 2 basis)
N    -0.243509  -2.345080  1.115127
C    -0.453331  -0.878918  1.428992
C    0.318591  -0.565212  2.712024
O    0.493096  -1.389235  3.601158
H    -0.764593  -2.596299  0.266197
H    0.746926  -2.543788  0.922287
H    -0.001311  -0.299688  0.612211
C    -1.983929  -0.562249  1.517835
C    -2.581798  0.258365  2.684968
C    -2.613388  -0.308242  4.127228
N    -2.883228  -1.753876  4.151722
C    -2.397336  -2.653378  5.058108
N    -1.977474  -3.834166  4.562554
N    -2.307278  -2.330436  6.345852
H    -2.523106  -1.521867  1.436077
H    -2.248850  -0.023614  0.599156
H    -3.617443  0.462582  2.377329
H    -2.104567  1.246727  2.739546
H    -3.375897  0.255603  4.684230
H    -1.657543  -0.159103  4.644501
H    -3.537425  -2.134610  3.473138
H    -1.807009  -4.616405  5.194194
H    -1.754818  -2.881296  6.997037
H    -2.885003  -1.592283  6.739001
O    0.728955  0.690755  2.732571
H    1.222887  0.880345  3.559982
Hg    -0.954216  -3.444624  2.824840
