27
Energy: -569906.577135 eV PBE+vdW (tier 2 basis)
N    -0.639592  0.973717  0.593683
C    -0.233574  0.689909  1.979827
C    1.286747  0.468160  1.944204
O    1.851319  -0.063255  0.964485
H    -0.286252  1.880419  0.272162
H    -1.657609  1.015594  0.516889
H    -0.459799  1.536459  2.649746
C    -0.894327  -0.614253  2.524634
C    -2.425803  -0.762637  2.323558
C    -2.855685  -2.010244  1.524237
N    -2.327362  -1.977971  0.152948
C    -1.606620  -2.927726  -0.496701
N    -0.635819  -2.501925  -1.330178
N    -1.859587  -4.222153  -0.291697
H    -0.651912  -0.680456  3.593060
H    -0.384132  -1.477386  2.062426
H    -2.874090  0.131599  1.860565
H    -2.914860  -0.827203  3.304333
H    -3.952831  -2.071301  1.512311
H    -2.479488  -2.921099  2.008979
H    -2.487219  -1.132826  -0.387008
H    -0.237277  -3.168795  -1.990248
H    -1.213281  -4.943353  -0.597976
H    -2.771104  -4.530201  0.035739
O    2.039973  0.793934  2.957121
H    1.559230  1.259621  3.671845
Hg    0.481778  -0.968507  -0.501051
