27
Energy: -569905.487932 eV PBE+vdW (tier 2 basis)
N    -2.012748  0.227150  1.281134
C    -0.891106  -0.118524  2.072934
C    0.334360  0.818504  1.847773
O    1.176399  0.994255  2.715938
H    -2.730332  0.849745  1.638729
H    -1.990547  0.101650  0.272292
H    -1.159188  0.013198  3.130678
C    -0.464810  -1.600002  1.798607
C    0.788577  -2.157974  2.490950
C    0.783773  -2.240611  4.023389
N    1.304647  -1.023481  4.653662
C    1.889803  -0.967219  5.864291
N    2.799652  0.004619  6.119765
N    1.675096  -1.918839  6.781883
H    -0.329240  -1.716786  0.713183
H    -1.342618  -2.204634  2.067734
H    1.704995  -1.651917  2.153676
H    0.885967  -3.190871  2.126258
H    1.417403  -3.081992  4.345665
H    -0.234112  -2.448626  4.400792
H    1.335320  -0.176498  4.058477
H    2.918510  0.655425  5.337405
H    2.330450  -2.044368  7.545381
H    0.959381  -2.626438  6.666494
O    0.363898  1.349748  0.637700
H    1.163730  1.908107  0.527437
Hg    2.645445  1.261631  7.937729
