27
Energy: -569906.452991 eV PBE+vdW (tier 2 basis)
N    -1.782739  -0.638141  -0.271239
C    -1.412023  0.018645  1.046155
C    -0.035477  0.654497  0.809126
O    0.241619  1.614692  1.653744
H    -2.284950  0.013075  -0.891153
H    -0.877562  -0.876279  -0.733816
H    -2.175202  0.767808  1.283723
C    -1.318842  -1.003977  2.212849
C    -0.411716  -2.256596  2.092444
C    1.116050  -2.185142  2.321848
N    1.509958  -1.909717  3.713520
C    2.423354  -1.023889  4.152133
N    3.298040  -0.303779  3.338852
N    2.533110  -0.764931  5.454258
H    -2.343796  -1.360289  2.396234
H    -1.065588  -0.413178  3.105068
H    -0.530940  -2.734919  1.107403
H    -0.822491  -2.999405  2.792981
H    1.592599  -1.448542  1.665875
H    1.536919  -3.159969  2.034757
H    1.077936  -2.509321  4.416419
H    3.660199  -0.885030  2.574455
H    3.341803  -0.234389  5.766852
H    1.917493  -1.155208  6.162104
O    0.717455  0.130094  -0.010877
H    -2.365053  -1.478648  -0.161197
Hg    2.147367  1.135404  2.368890
