27
Energy: -569905.061686 eV PBE+vdW (tier 2 basis)
N    -0.604470  -0.420719  -0.133152
C    0.031699  -0.348437  1.132960
C    1.537052  -0.141329  0.852455
O    1.949466  0.187102  -0.232381
H    -1.609740  -0.539875  -0.214359
H    -0.068172  -0.163850  -0.963957
H    -0.249807  0.605430  1.645448
C    -0.374431  -1.531931  2.059076
C    -0.690711  -1.208175  3.527693
C    0.518361  -1.000902  4.446180
N    0.069539  -0.903978  5.843142
C    0.765671  -0.383025  6.873173
N    0.127842  0.048284  7.984319
N    2.087469  -0.194075  6.767334
H    0.395562  -2.314347  1.979914
H    -1.278314  -1.980353  1.624310
H    -1.270171  -2.060544  3.916615
H    -1.352061  -0.329491  3.585971
H    1.073728  -0.085973  4.194869
H    1.216428  -1.850574  4.346429
H    -0.862875  -1.253604  6.052187
H    -0.889263  -0.056615  7.941851
H    2.560789  0.437792  7.402956
H    2.631948  -0.598993  6.015898
O    2.299701  -0.330536  1.945586
H    3.228727  -0.158072  1.682852
Hg    0.730923  -0.617394  10.023146
