27
Energy: -569904.618172 eV PBE+vdW (tier 2 basis)
N    0.535708  1.060951  1.249329
C    0.276114  0.013412  2.233312
C    1.599011  -0.520458  2.867488
O    2.682374  -0.511282  2.298452
H    -0.099048  1.035649  0.450258
H    0.537492  2.004318  1.644238
H    -0.302825  0.449854  3.067887
C    -0.483409  -1.190209  1.623454
C    -1.983695  -0.934057  1.398726
C    -2.683743  -2.175786  0.799684
N    -4.106832  -1.982858  0.572243
C    -5.099479  -2.259347  1.470681
N    -4.918933  -2.649470  2.725669
N    -6.388035  -2.095907  1.094690
H    -0.359194  -2.055246  2.291660
H    0.016199  -1.472406  0.682038
H    -2.146823  -0.076867  0.726149
H    -2.469362  -0.674317  2.352326
H    -2.537589  -3.053008  1.446223
H    -2.235613  -2.435605  -0.169630
H    -4.375512  -1.575550  -0.320184
H    -3.942405  -2.880098  2.937936
H    -6.685929  -1.944239  0.136834
H    -7.099254  -2.288756  1.794779
O    1.517786  -1.067762  4.065404
H    0.637183  -0.976523  4.478556
Hg    2.851848  0.804400  0.236983
