27
Energy: -569905.581503 eV PBE+vdW (tier 2 basis)
N    0.472004  0.167557  0.359149
C    0.391208  -0.058041  1.782321
C    1.783475  -0.625070  2.226307
O    2.056500  -0.767168  3.427726
H    0.496388  1.143013  0.066976
H    -0.181387  -0.365791  -0.212606
H    0.275606  0.888463  2.331918
C    -0.769918  -1.024703  2.151458
C    -0.929754  -1.404132  3.642902
C    -0.440248  -2.840776  3.915339
N    -0.403445  -3.265747  5.323038
C    0.686266  -3.160136  6.113412
N    1.518616  -2.090076  5.985412
N    0.920805  -4.042223  7.085897
H    -0.674612  -1.933788  1.535210
H    -1.683061  -0.521897  1.807497
H    -1.987000  -1.318366  3.926473
H    -0.396172  -0.685452  4.283540
H    0.563196  -2.997005  3.496481
H    -1.108377  -3.549441  3.406611
H    -1.194742  -3.805631  5.671283
H    1.083693  -1.376890  5.391355
H    0.412129  -4.917690  7.160985
H    1.537339  -3.788329  7.852467
O    2.598380  -0.938223  1.268354
H    2.108559  -0.637281  0.430217
Hg    3.411327  -2.148553  4.910468
