27
Energy: -569906.126551 eV PBE+vdW (tier 2 basis)
N    1.655649  -1.204682  1.501675
C    1.094799  0.107276  1.293201
C    1.566389  1.254640  2.269826
O    1.872171  1.037310  3.427419
H    2.611782  -1.226652  1.113632
H    -4.473094  -0.402457  -2.899308
H    1.442632  0.419774  0.288033
C    -0.453962  0.060567  1.358708
C    -1.060642  -0.848694  0.279530
C    -2.570271  -1.093727  0.427390
N    -3.431680  0.063022  0.141667
C    -4.131437  0.266914  -0.988332
N    -3.834559  -0.396702  -2.112072
N    -5.133659  1.156191  -0.994055
H    -0.848674  1.084935  1.278557
H    -0.737211  -0.303776  2.360524
H    -0.570070  -1.831742  0.328998
H    -0.841656  -0.440107  -0.720054
H    -2.806418  -1.421687  1.449475
H    -2.880582  -1.919118  -0.227071
H    -3.635039  0.694351  0.909471
H    -2.981911  -0.931785  -2.208759
H    -5.551249  1.474025  -1.861374
H    -5.561934  1.480223  -0.134844
O    1.538919  2.496419  1.814583
H    1.347654  2.546272  0.858647
Hg    2.107724  -1.492608  3.601661
