27
Energy: -569905.324016 eV PBE+vdW (tier 2 basis)
N    -1.160118  -0.443801  0.726526
C    -0.358131  -0.118848  1.932026
C    0.960156  0.443071  1.368551
O    0.910280  1.400978  0.562988
H    -0.663088  -1.076615  0.093136
H    -2.033124  -0.910969  0.971732
H    -0.777441  0.802578  2.373293
C    -0.415444  -1.126850  3.080182
C    -1.865706  -1.288523  3.621744
C    -2.639629  -0.021728  4.064433
N    -3.124271  0.790029  2.920765
C    -2.829970  2.063608  2.611126
N    -3.024133  2.604464  1.341214
N    -2.243567  2.879149  3.491294
H    0.230417  -0.774107  3.900431
H    -0.051076  -2.119712  2.774235
H    -1.814789  -1.940392  4.504896
H    -2.483421  -1.856034  2.906020
H    -2.012199  0.609355  4.706797
H    -3.505511  -0.327319  4.666937
H    -3.671655  0.289991  2.224327
H    -3.773657  2.127950  0.827177
H    -2.153944  3.858340  3.231434
H    -2.159384  2.654583  4.477255
O    2.136747  -0.009994  1.695581
H    2.106240  -0.776817  2.303316
Hg    -1.216814  2.096491  0.304335
