27
Energy: -569904.910791 eV PBE+vdW (tier 2 basis)
N    -0.081238  -0.208637  -0.201924
C    0.049340  0.032202  1.298782
C    1.583920  0.057774  1.584055
O    1.936630  0.070193  2.789812
H    -0.881775  0.286556  -0.615991
H    0.813222  0.108091  -0.633950
H    -0.308149  1.058421  1.470513
C    -0.790578  -0.986787  2.090244
C    -1.419132  -0.499924  3.411800
C    -0.497494  -0.467620  4.648744
N    -1.224769  -0.158461  5.873147
C    -1.856622  -1.068204  6.671918
N    -1.943012  -2.372689  6.439219
N    -2.483715  -0.640441  7.791231
H    -0.204128  -1.904711  2.248817
H    -1.635607  -1.273269  1.444279
H    -2.253006  -1.182833  3.631758
H    -1.877288  0.490437  3.265891
H    0.289760  0.287511  4.542078
H    0.021457  -1.429247  4.771288
H    -1.327533  0.826508  6.104529
H    -1.368237  -2.674924  5.645189
H    -2.953542  -1.344764  8.353062
H    -2.417376  0.303025  8.157138
O    2.329286  0.095797  0.570340
H    -0.181649  -1.211015  -0.416320
Hg    4.320941  0.218083  2.147771
