27
Energy: -569906.105212 eV PBE+vdW (tier 2 basis)
N    0.635118  -0.001436  0.515984
C    0.273065  0.283684  1.932739
C    1.496776  0.268645  2.879176
O    2.685609  0.646729  2.480160
H    0.761499  -1.001778  0.331107
H    -0.067848  0.354565  -0.138555
H    -0.075722  1.329531  1.948787
C    -0.877463  -0.604708  2.471868
C    -0.524120  -2.079321  2.705397
C    -1.519878  -2.826464  3.609695
N    -1.893337  -2.166576  4.880010
C    -1.168414  -2.148910  6.018682
N    0.167802  -2.080877  5.970438
N    -1.798696  -2.199069  7.198194
H    -1.731070  -0.508234  1.785425
H    -1.197412  -0.143401  3.415563
H    0.485527  -2.174368  3.126534
H    -0.507102  -2.642164  1.759404
H    -1.121000  -3.826363  3.829402
H    -2.468764  -2.969353  3.078850
H    -2.886400  -1.997467  5.004147
H    0.709683  -2.225823  6.815872
H    -1.334990  -1.922170  8.056939
H    -2.745100  -2.554175  7.279866
O    1.369718  -0.041566  4.061214
H    0.629459  -1.570020  5.218668
Hg    2.799168  1.025947  0.346620
