27
Energy: -569905.378151 eV PBE+vdW (tier 2 basis)
N    0.023746  -1.580529  0.191442
C    0.019011  -0.707187  1.328921
C    1.378373  0.078667  1.395582
O    1.520629  1.050119  2.129268
H    -0.498755  -1.298651  -0.634216
H    -0.004944  -2.584082  0.361010
H    -0.735921  0.084143  1.190318
C    -0.252796  -1.510472  2.630768
C    -0.091455  -0.851813  4.011590
C    -0.985233  0.349162  4.351150
N    -0.354041  1.612971  3.969609
C    -0.588621  2.810373  4.531181
N    0.419550  3.722816  4.546056
N    -1.727316  3.075510  5.181360
H    0.406857  -2.392411  2.623953
H    -1.279096  -1.895362  2.529261
H    0.957283  -0.594310  4.217490
H    -0.338936  -1.637847  4.739417
H    -1.174069  0.377907  5.436482
H    -1.974455  0.262567  3.864240
H    0.420571  1.526370  3.268415
H    1.254840  3.395903  4.048332
H    -1.764249  3.827197  5.861591
H    -2.520670  2.445593  5.148508
O    2.345432  -0.349501  0.624530
H    1.976015  -1.085439  0.071188
Hg    0.088618  5.777424  3.854969
