27
Energy: -569906.035025 eV PBE+vdW (tier 2 basis)
N    0.046407  -0.405743  0.092564
C    -0.024511  0.134084  1.428486
C    1.349320  0.349423  2.188919
O    2.324790  -0.349319  1.978958
H    -4.273756  0.424894  -0.329743
H    0.363546  0.339879  -0.547730
H    -0.434467  1.158367  1.312136
C    -0.916718  -0.727055  2.352566
C    -2.425454  -0.728298  2.040661
C    -2.861226  -1.589574  0.841459
N    -4.298919  -1.889030  0.855176
C    -5.257605  -1.330745  0.100146
N    -5.031544  -0.196383  -0.577217
N    -6.455778  -1.922198  0.011047
H    -0.792197  -0.377997  3.387637
H    -0.526617  -1.758616  2.344175
H    -2.791567  0.304736  1.927437
H    -2.927772  -1.120467  2.937221
H    -2.340270  -2.557096  0.866823
H    -2.603988  -1.133814  -0.122770
H    -4.603045  -2.620766  1.490778
H    -5.685122  0.128430  -1.280349
H    -7.265268  -1.424605  -0.342210
H    -6.595893  -2.885448  0.293258
O    1.394291  1.275434  3.127979
H    0.573768  1.800768  3.193962
Hg    1.772764  -1.729617  -0.049062
