27
Energy: -569905.764991 eV PBE+vdW (tier 2 basis)
N    0.337842  0.895911  0.494485
C    0.718675  0.269588  1.707970
C    2.236313  -0.020564  1.680762
O    3.012496  0.072899  2.680024
H    0.675713  1.838207  0.322674
H    -0.628487  0.774082  0.209972
H    0.584833  0.909694  2.627537
C    -0.114807  -1.039125  1.889530
C    -0.035380  -1.824821  3.213192
C    -1.108981  -1.585373  4.299520
N    -1.369859  -0.208962  4.783871
C    -0.577469  0.570737  5.529619
N    0.637127  0.155862  6.066174
N    -0.903634  1.840624  5.776686
H    0.156464  -1.702995  1.057789
H    -1.158282  -0.741341  1.705083
H    0.981199  -1.803387  3.642537
H    -0.161476  -2.890502  2.969334
H    -0.894564  -2.235777  5.160035
H    -2.077078  -1.923430  3.911130
H    -2.313520  0.133191  4.611479
H    0.617252  -0.840764  6.309989
H    -1.745134  2.280464  5.414732
H    -0.394767  2.330757  6.507740
O    2.717811  -0.361130  0.528106
H    3.687708  -0.528291  0.565199
Hg    2.034945  0.296659  4.548164
