27
Energy: -569906.045707 eV PBE+vdW (tier 2 basis)
N    -0.259853  0.646901  0.672408
C    0.619630  0.564145  1.785675
C    2.041210  1.150145  1.616084
O    2.756837  1.584260  2.574263
H    -0.067699  -0.011279  -0.080472
H    -0.420500  1.580418  0.301579
H    0.186093  1.186105  2.601614
C    0.744782  -0.911135  2.274546
C    -0.516651  -1.492733  2.951853
C    -0.581637  -1.469913  4.493347
N    -1.170355  -0.255648  5.097534
C    -0.552497  0.746854  5.724272
N    0.793130  0.726875  6.097201
N    -1.201571  1.873609  6.026921
H    1.622339  -1.046229  2.929918
H    0.976370  -1.508712  1.380558
H    -0.567838  -2.555313  2.677588
H    -1.419746  -1.040314  2.515586
H    0.406637  -1.647305  4.936353
H    -1.213652  -2.300789  4.832421
H    -2.186288  -0.196378  5.025986
H    1.099484  -0.213393  6.367234
H    -0.780279  2.501541  6.706287
H    -2.172706  2.038506  5.775954
O    2.494870  1.203509  0.403872
H    3.402729  1.582771  0.355185
Hg    1.929448  1.272070  4.482392
