27
Energy: -569906.55389 eV PBE+vdW (tier 2 basis)
N    0.949023  -0.905992  0.590014
C    0.383781  -0.242241  1.838656
C    1.189859  -0.891875  3.004196
O    1.597277  -0.036641  3.918395
H    1.865329  -0.515761  0.325976
H    0.322122  -0.823144  -0.222815
H    0.556111  0.836907  1.757332
C    -1.128027  -0.619768  1.895627
C    -2.038486  -0.078906  3.032623
C    -1.432254  -0.368202  4.405921
N    -2.279518  -0.298792  5.590697
C    -1.845965  -0.622728  6.834830
N    -0.573312  -0.987493  7.097048
N    -2.742466  -0.600615  7.834749
H    -1.182139  -1.720153  1.904175
H    -1.578506  -0.282851  0.949094
H    -3.008725  -0.581067  2.910718
H    -2.211886  0.999010  2.912630
H    -0.633420  0.381685  4.512644
H    -1.008523  -1.386531  4.375618
H    -3.176493  0.172896  5.522878
H    -0.402462  -1.350302  8.031295
H    -3.740556  -0.610333  7.653767
H    -2.455628  -0.673816  8.804110
O    1.305806  -2.107705  3.003740
H    1.087077  -1.910733  0.817359
Hg    1.013777  -0.677167  5.819512
