27
Energy: -569906.376596 eV PBE+vdW (tier 2 basis)
N    -0.490479  0.230849  -0.157282
C    -0.534750  0.315385  1.362841
C    0.865867  0.044026  1.914625
O    1.542381  -0.855147  1.229688
H    -0.045867  1.065479  -0.567875
H    0.083044  -0.586267  -0.429705
H    -0.862158  1.328126  1.626091
C    -1.506199  -0.762633  1.915601
C    -1.873718  -0.692470  3.420564
C    -0.936241  -1.267112  4.507197
N    -0.760739  -2.728585  4.456500
C    0.393892  -3.415765  4.409248
N    1.642575  -2.876597  4.670210
N    0.386847  -4.715900  4.097896
H    -1.122146  -1.759919  1.646953
H    -2.454753  -0.639803  1.369108
H    -2.852232  -1.184812  3.521323
H    -2.054934  0.354443  3.705294
H    -1.377394  -1.013016  5.481597
H    0.046980  -0.789907  4.481390
H    -1.618559  -3.277909  4.505794
H    1.583727  -2.107751  5.346186
H    1.213240  -5.264462  4.317804
H    -0.450072  -5.215750  3.814467
O    1.172519  0.498552  3.011045
H    -1.429732  0.140906  -0.571947
Hg    2.327127  -1.927996  2.930335
