27
Energy: -569907.017052 eV PBE+vdW (tier 2 basis)
N    0.743868  -1.592876  0.321730
C    0.152918  -0.658711  1.328428
C    1.054846  0.196491  2.108804
O    0.565738  0.750913  0.984892
H    1.781417  -1.387263  0.158801
H    0.668513  -2.575289  0.627344
H    0.605766  0.982820  4.943853
C    -1.300965  -0.884859  1.651888
C    -1.812819  -0.040881  2.837031
C    -1.450015  -0.617559  4.220516
N    -1.882112  0.248670  5.315788
C    -1.099706  0.990002  6.121725
N    0.191317  1.201458  5.843270
N    -1.631042  1.525156  7.228664
H    -1.451918  -1.959228  1.851564
H    -1.890977  -0.652296  0.749574
H    -2.906300  0.015045  2.751131
H    -1.458362  0.996608  2.746476
H    -0.372988  -0.798765  4.331454
H    -1.936183  -1.594411  4.358447
H    -2.877785  0.269624  5.515331
H    0.806085  1.608141  6.538908
H    -1.143640  2.241306  7.754801
H    -2.525690  1.219161  7.592951
O    1.687439  0.486740  3.072845
H    0.259712  -1.505909  -0.588270
Hg    4.062677  -0.934353  -0.083723
