27
Energy: -569904.650993 eV PBE+vdW (tier 2 basis)
N    2.443869  -1.456871  0.892462
C    1.184939  -0.896491  0.346477
C    1.164891  0.660878  0.334289
O    2.250178  1.355608  0.266456
H    2.425609  -1.539953  1.914618
H    2.667275  -2.377201  0.503101
H    1.166535  -1.182469  -0.718164
C    -0.070347  -1.473361  1.079524
C    -1.243591  -1.932988  0.189923
C    -1.915806  -0.947843  -0.765683
N    -2.396249  0.324774  -0.097561
C    -3.334919  0.141091  1.092958
N    -4.306043  -0.666956  1.130345
N    -2.973921  0.945792  2.120669
H    -0.404895  -0.751377  1.836134
H    0.242005  -2.367479  1.635512
H    -2.000386  -2.352908  0.870084
H    -0.922925  -2.777458  -0.439254
H    -2.774104  -1.426708  -1.252043
H    -1.243992  -0.604829  -1.563957
H    -2.880313  0.909994  -0.793523
H    -4.476627  -1.249476  0.310019
H    -2.334741  1.725866  2.012644
H    -3.598572  0.966920  2.924133
O    0.073979  1.249502  0.336293
H    -1.505045  0.826525  0.178467
Hg    4.120636  0.189212  0.388972
