27
Energy: -569906.467353 eV PBE+vdW (tier 2 basis)
N    0.290115  0.477026  0.400836
C    0.347119  0.001992  1.845239
C    1.475306  -1.019319  2.002024
O    1.930477  -1.214145  3.130946
H    1.041481  1.151333  0.192779
H    -0.608057  0.930525  0.176379
H    0.559019  0.877647  2.469874
C    -1.010254  -0.644196  2.238029
C    -1.024392  -1.370768  3.610044
C    -0.889942  -2.917595  3.519503
N    -0.124272  -3.488300  4.638231
C    1.046358  -4.147781  4.555936
N    1.452087  -4.875739  3.450104
N    1.885906  -4.154339  5.590935
H    -1.322561  -1.336326  1.439270
H    -1.754037  0.165174  2.260476
H    -1.969184  -1.129803  4.111052
H    -0.222445  -0.971338  4.244477
H    -0.391316  -3.218955  2.589866
H    -1.882704  -3.386413  3.493401
H    -0.434134  -3.216894  5.570850
H    0.648274  -5.282518  2.960585
H    2.619061  -4.857209  5.616657
H    1.775216  -3.551027  6.400093
O    1.735596  -1.735514  0.941093
H    0.427419  -0.334765  -0.225899
Hg    2.278723  -3.551351  2.043212
