27
Energy: -569905.125333 eV PBE+vdW (tier 2 basis)
N    -1.339449  -0.332189  1.152994
C    -0.245174  -1.127850  1.773443
C    0.790222  -0.095081  2.254012
O    0.393407  0.843436  2.965535
H    -1.024349  0.291063  0.403912
H    -2.078731  -0.928058  0.775642
H    -0.644985  -1.441212  2.747850
C    0.120527  -2.464717  1.113053
C    0.215818  -3.629347  2.142274
C    -0.714895  -3.597867  3.382295
N    -2.153931  -3.419706  3.107244
C    -2.929631  -2.349206  3.380678
N    -2.606336  -1.371074  4.269950
N    -4.101537  -2.210480  2.730394
H    1.042010  -2.429231  0.511601
H    -0.668568  -2.692825  0.382821
H    1.232731  -3.698308  2.556624
H    0.065962  -4.569476  1.594149
H    -0.403512  -2.829337  4.101438
H    -0.594651  -4.549985  3.917020
H    -2.617069  -4.218135  2.674284
H    -1.911333  -1.657193  4.962073
H    -4.831856  -1.664647  3.179925
H    -4.407609  -2.881304  2.031988
O    2.066518  -0.187071  1.984000
H    2.281448  -0.927433  1.381872
Hg    -1.927170  0.492999  3.387880
