27
Energy: -569905.982604 eV PBE+vdW (tier 2 basis)
N    2.053857  -0.553773  1.572792
C    0.915056  -0.894580  2.396652
C    1.262854  -1.972097  3.475271
O    2.074444  -2.862840  3.286316
H    1.726886  -0.287464  0.631831
H    -5.548185  0.897790  0.275862
H    0.762737  0.037506  2.986466
C    -0.393055  -1.321223  1.677314
C    -1.036186  -0.266422  0.756610
C    -1.834533  0.815573  1.504944
N    -2.447182  1.808623  0.617656
C    -3.735590  1.859940  0.234376
N    -4.544803  0.804155  0.387485
N    -4.217082  2.988427  -0.300479
H    -1.129022  -1.652100  2.427248
H    -0.158722  -2.217903  1.082639
H    -1.702427  -0.791996  0.057023
H    -0.279934  0.218202  0.117390
H    -1.191617  1.373651  2.200969
H    -2.628112  0.365376  2.118062
H    -1.856203  2.570245  0.298964
H    -4.185161  -0.131334  0.522459
H    -5.098862  3.000392  -0.800977
H    -3.736818  3.874901  -0.196404
O    0.583881  -1.946387  4.610081
H    0.014951  -1.158303  4.697682
Hg    3.228629  -2.310609  1.148586
