27
Energy: -569906.090627 eV PBE+vdW (tier 2 basis)
N    0.645246  1.382545  1.472768
C    0.596410  0.534180  2.649175
C    1.942436  -0.152617  3.010733
O    2.976264  0.002821  2.381841
H    -2.020560  -2.047508  -1.418950
H    0.131615  2.252326  1.675255
H    0.278848  1.081844  3.553560
C    -0.481218  -0.575648  2.341938
C    -0.096425  -1.600820  1.269411
C    -1.201125  -2.660849  1.106693
N    -0.845212  -3.733677  0.172938
C    -1.382992  -3.968702  -1.035481
N    -2.072870  -3.021649  -1.684156
N    -1.223271  -5.170935  -1.603623
H    -1.404485  -0.047707  2.065705
H    -0.705643  -1.077263  3.298238
H    0.839910  -2.111297  1.544037
H    0.088228  -1.095860  0.310963
H    -2.146363  -2.209696  0.776206
H    -1.417132  -3.135517  2.075160
H    -0.192063  -4.433744  0.512264
H    -2.648893  -3.252799  -2.485368
H    -1.409170  -5.317310  -2.589352
H    -0.947715  -5.982467  -1.062720
O    1.939758  -0.962048  4.062555
H    1.097479  -0.949009  4.554979
Hg    2.623074  2.104859  1.060807
