27
Energy: -569906.238829 eV PBE+vdW (tier 2 basis)
N    -0.131190  0.559149  -0.249771
C    -0.458150  0.174620  1.152133
C    0.782059  0.159595  2.079445
O    1.789098  0.972675  1.898926
H    0.246623  -0.220477  -0.798237
H    -0.947894  0.927735  -0.746491
H    -1.088720  0.987774  1.548510
C    -1.262461  -1.143247  1.253108
C    -0.497431  -2.433990  0.872893
C    -0.760197  -3.605013  1.826103
N    -0.238539  -3.301512  3.162413
C    -0.396424  -4.066596  4.251740
N    0.053609  -3.626460  5.435335
N    -1.007203  -5.254706  4.169090
H    -2.164431  -1.034242  0.636378
H    -1.621252  -1.197681  2.289101
H    0.590820  -2.263568  0.838748
H    -0.783153  -2.768831  -0.132418
H    -0.267596  -4.504856  1.424496
H    -1.842289  -3.805530  1.886309
H    0.284365  -2.427989  3.266345
H    0.462360  -2.704874  5.532059
H    -1.171225  -5.821146  4.992993
H    -1.253315  -5.665296  3.277934
O    0.817006  -0.584829  3.058864
H    0.058737  -4.220247  6.255944
Hg    1.645363  2.137792  0.066521
