27
Energy: -569905.480712 eV PBE+vdW (tier 2 basis)
N    0.384700  -0.465582  0.222991
C    0.219682  -0.293916  1.617239
C    1.525978  -0.605837  2.427923
O    1.698674  -0.187964  3.558156
H    0.484703  -1.396854  -0.174276
H    0.710525  0.301644  -0.357978
H    0.018932  0.768447  1.812793
C    -0.944068  -1.186899  2.157784
C    -1.188272  -1.188200  3.671584
C    -1.588277  0.181026  4.256467
N    -1.693299  0.165971  5.716174
C    -0.701825  0.441492  6.576018
N    -0.994844  0.405229  7.909333
N    0.546298  0.665712  6.144138
H    -0.758328  -2.222854  1.838109
H    -1.844183  -0.852708  1.622449
H    -0.314513  -1.582600  4.208583
H    -2.002468  -1.902251  3.864313
H    -2.564108  0.496079  3.863727
H    -0.870462  0.969203  3.991036
H    -2.535539  -0.223272  6.131998
H    -0.159736  0.523359  8.491984
H    0.873131  0.389903  5.211161
H    1.244636  1.041422  6.776815
O    2.369629  -1.375140  1.756358
H    3.165456  -1.562615  2.299990
Hg    -2.436636  1.826556  8.808030
