27
Energy: -569906.512234 eV PBE+vdW (tier 2 basis)
N    0.606418  -0.441655  0.172806
C    0.055918  -0.058693  1.541834
C    1.241804  -0.218795  2.513245
O    1.425061  0.753824  3.354760
H    1.228238  0.284441  -0.212811
H    -0.145755  -0.608686  -0.511325
H    -0.306830  0.973509  1.479284
C    -1.049756  -1.081960  1.904127
C    -1.989851  -0.821085  3.105688
C    -1.456185  -0.609742  4.528223
N    -0.539511  -1.674202  5.017831
C    -0.042456  -1.684283  6.300102
N    1.287249  -1.604084  6.481165
N    -0.897801  -1.780642  7.318464
H    -0.568263  -2.068080  1.996636
H    -1.721394  -1.153933  1.033231
H    -2.687802  -1.670271  3.110570
H    -2.602742  0.066925  2.892502
H    -2.326168  -0.562442  5.193988
H    -0.951316  0.368223  4.601082
H    0.119187  -2.041695  4.333661
H    1.678919  -1.798995  7.402758
H    -0.611962  -1.611120  8.278068
H    -1.831345  -2.152545  7.169688
O    1.844446  -1.297486  2.502483
H    1.162451  -1.310016  0.277711
Hg    2.111735  -0.332703  5.060338
