27
Energy: -569905.991748 eV PBE+vdW (tier 2 basis)
N    0.800553  0.390734  0.328250
C    0.236099  0.327475  1.701428
C    1.263819  0.733060  2.779600
O    2.194315  1.636901  2.565402
H    1.379737  -0.424021  0.103600
H    0.075597  0.473921  -0.388515
H    -0.544398  1.105977  1.747362
C    -0.403495  -1.035591  2.076424
C    -1.604278  -1.426002  1.208211
C    -2.441640  -2.582268  1.775314
N    -1.743812  -3.876473  1.825138
C    -1.517131  -4.634132  2.913304
N    -1.487013  -4.100195  4.140407
N    -1.294178  -5.946949  2.764285
H    -0.720114  -0.937788  3.123332
H    0.373054  -1.816289  2.058119
H    -1.287895  -1.681424  0.183828
H    -2.295470  -0.573541  1.111815
H    -3.338738  -2.714350  1.153963
H    -2.804597  -2.343169  2.783306
H    -1.606474  -4.343254  0.933050
H    -1.524673  -4.687249  4.965876
H    -0.908420  -6.504701  3.517981
H    -1.573270  -6.441418  1.924843
O    1.212797  0.267990  3.910577
H    -1.430777  -3.101605  4.288656
Hg    2.335545  2.307937  0.521875
