27
Energy: -569905.335159 eV PBE+vdW (tier 2 basis)
N    0.645297  -1.985635  0.511804
C    0.228809  -0.935682  1.354104
C    1.374709  -0.459555  2.367534
O    1.154329  0.387409  3.193947
H    1.282320  -1.795005  -0.257843
H    0.705489  -2.930656  0.886062
H    0.082863  -0.027528  0.744136
C    -1.027317  -1.278528  2.177639
C    -2.336427  -1.331654  1.367093
C    -2.955519  0.053696  1.138455
N    -4.207657  -0.070711  0.391577
C    -5.297458  0.729099  0.474431
N    -5.239424  1.955894  1.010580
N    -6.453566  0.296376  -0.060404
H    -1.103931  -0.549354  2.995973
H    -0.873334  -2.255230  2.660679
H    -3.059065  -1.951750  1.915378
H    -2.159072  -1.831456  0.401492
H    -2.260976  0.714117  0.591379
H    -3.174972  0.529681  2.105695
H    -4.214885  -0.762574  -0.356599
H    -4.319304  2.239326  1.349044
H    -7.151331  0.966424  -0.363333
H    -6.570709  -0.661302  -0.370831
O    2.523394  -1.088143  2.142636
H    3.208633  -0.754917  2.763351
Hg    -6.786609  2.715596  2.425152
