27
Energy: -569904.66855 eV PBE+vdW (tier 2 basis)
N    -0.687225  -0.972253  -0.368764
C    -0.541977  -0.087448  0.748653
C    0.984380  0.361318  0.817486
O    1.378997  1.101665  1.720016
H    -0.792238  -1.964591  -0.174148
H    -1.228450  -0.654734  -1.167708
H    -1.062987  0.862542  0.545582
C    -0.966285  -0.643023  2.121836
C    -2.475978  -0.666700  2.412069
C    -3.301278  -1.744820  1.676601
N    -4.633981  -1.920354  2.242085
C    -5.758042  -1.237918  1.878444
N    -5.800145  -0.238402  1.002490
N    -6.940122  -1.547521  2.454356
H    -0.494733  -0.005985  2.883253
H    -0.528724  -1.646306  2.258869
H    -2.918237  0.324930  2.226476
H    -2.582388  -0.843491  3.492699
H    -2.802812  -2.722043  1.756067
H    -3.399797  -1.528826  0.603327
H    -4.702386  -2.550398  3.039019
H    -4.909414  -0.105734  0.510810
H    -7.745226  -0.986113  2.189909
H    -7.090555  -2.357003  3.047445
O    1.751678  -0.079234  -0.136113
H    1.165003  -0.651156  -0.714177
Hg    3.696968  1.933274  1.795362
