27
Energy: -569905.352189 eV PBE+vdW (tier 2 basis)
N    0.357738  -0.729363  0.011011
C    0.040321  -0.308774  1.335583
C    1.395187  -0.115511  2.113210
O    1.800542  -0.852739  2.995611
H    0.750739  -0.073025  -0.658191
H    0.444025  -1.716294  -0.214876
H    -0.380365  0.710530  1.275589
C    -0.946056  -1.257459  2.027379
C    -1.586031  -0.724856  3.325741
C    -0.934810  -1.111672  4.664343
N    -1.028204  -2.546082  4.953214
C    -0.024973  -3.433697  5.101226
N    1.187322  -3.226318  4.546576
N    -0.267043  -4.590657  5.740861
H    -0.477979  -2.243038  2.180684
H    -1.750973  -1.421431  1.298653
H    -2.633417  -1.058372  3.354164
H    -1.644930  0.373771  3.305077
H    -1.468121  -0.591522  5.474823
H    0.115466  -0.811733  4.728683
H    -1.973459  -2.918113  5.049090
H    1.303731  -2.340866  4.024699
H    -1.116698  -4.737361  6.275282
H    0.298019  -5.408635  5.540948
O    2.044195  0.939725  1.643845
H    2.913590  1.040188  2.087089
Hg    2.989409  -3.507899  5.755765
