27
Energy: -569904.784514 eV PBE+vdW (tier 2 basis)
N    -0.903252  0.480374  0.644775
C    -0.151460  -0.173135  1.675986
C    1.372039  0.234366  1.476757
O    2.258088  -0.188435  2.221550
H    -1.264213  -0.109988  -0.102924
H    -1.582260  1.177217  0.942964
H    -0.403863  0.264465  2.655285
C    -0.328409  -1.711282  1.712658
C    0.153781  -2.384237  3.003544
C    -0.266820  -3.882548  3.020390
N    0.132182  -4.581631  4.224558
C    -0.629876  -4.748031  5.352842
N    -1.773498  -4.126362  5.595762
N    -0.175138  -5.557526  6.333820
H    0.156502  -2.163371  0.833346
H    -1.409540  -1.881916  1.596572
H    -0.286585  -1.887712  3.882420
H    1.244720  -2.318698  3.106871
H    0.196727  -4.406609  2.172484
H    -1.354299  -3.977239  2.895483
H    1.089863  -4.927534  4.254172
H    -2.147274  -3.624297  4.782804
H    -0.726905  -5.607424  7.186076
H    0.577577  -6.226324  6.210163
O    1.599359  1.060775  0.498452
H    0.695246  1.236848  0.088084
Hg    4.586195  0.720459  1.919921
