27
Energy: -569906.484203 eV PBE+vdW (tier 2 basis)
N    0.351280  -0.137411  0.086061
C    0.176800  -0.481131  1.501807
C    1.478682  -1.152810  1.968755
O    2.157518  -1.908565  1.230369
H    -0.534880  0.154281  -0.326587
H    1.002287  0.643856  -0.034904
H    -0.003161  0.411455  2.125732
C    -0.968148  -1.514441  1.729486
C    -2.348890  -1.280622  1.075722
C    -2.546743  -1.508190  -0.449465
N    -1.694081  -2.582359  -0.974408
C    -1.084697  -2.614181  -2.188336
N    0.171805  -3.096581  -2.233719
N    -1.714869  -2.138282  -3.264973
H    -1.136039  -1.567291  2.814181
H    -0.597047  -2.518375  1.461423
H    -2.723953  -0.273376  1.308024
H    -3.028281  -1.964825  1.603328
H    -2.323221  -0.605720  -1.036394
H    -3.612075  -1.724942  -0.614981
H    -1.501935  -3.378170  -0.373082
H    0.567316  -3.367274  -3.133629
H    -1.219235  -1.963582  -4.134416
H    -2.730345  -2.107736  -3.301600
O    1.914505  -1.003376  3.185818
H    1.392147  -0.365583  3.714703
Hg    1.306397  -2.402779  -0.667193
