27
Energy: -569905.128698 eV PBE+vdW (tier 2 basis)
N    0.211823  -0.349226  0.257949
C    -0.019463  -0.147101  1.656383
C    1.326935  -0.211337  2.388261
O    2.219817  -0.942283  1.988584
H    -0.467804  0.023599  -0.400713
H    1.175059  -0.365787  -0.069722
H    -0.536406  0.815052  1.820469
C    -0.971591  -1.252383  2.280061
C    -0.378142  -2.642981  2.485829
C    0.029823  -3.375734  1.186446
N    0.760561  -4.613796  1.423523
C    2.084154  -4.731450  1.615524
N    2.548972  -6.005994  1.835237
N    2.885034  -3.665770  1.665271
H    -1.861079  -1.287624  1.634968
H    -1.303003  -0.866279  3.254334
H    -1.144626  -3.254124  2.987917
H    0.470908  -2.601994  3.184377
H    0.654408  -2.721655  0.555464
H    -0.861800  -3.629696  0.599406
H    0.228332  -5.468472  1.570866
H    3.528770  -5.991232  2.144598
H    2.549066  -2.693425  1.758740
H    3.892167  -3.790467  1.688515
O    1.477370  0.484003  3.507091
H    0.736392  1.093887  3.688137
Hg    2.661768  -7.454113  0.162291
