27
Energy: -569905.423929 eV PBE+vdW (tier 2 basis)
N    0.446839  0.448938  0.458092
C    -0.009678  0.204019  1.770927
C    1.142006  0.177753  2.831525
O    0.921850  0.154972  4.031498
H    1.005589  -0.237115  -0.042283
H    0.417639  1.382315  0.059445
H    -0.659864  1.037224  2.075107
C    -0.821135  -1.136777  1.853844
C    -1.671567  -1.279717  3.132279
C    -1.145225  -2.363291  4.097346
N    -1.881414  -2.413045  5.357568
C    -1.594431  -1.690865  6.463884
N    -0.832198  -0.581059  6.384941
N    -2.138132  -2.036246  7.639493
H    -0.129999  -1.983704  1.726806
H    -1.472617  -1.137409  0.972475
H    -2.707084  -1.513809  2.848344
H    -1.729573  -0.322941  3.675732
H    -0.082391  -2.213590  4.325558
H    -1.243574  -3.356258  3.637745
H    -2.745205  -2.954088  5.368237
H    -0.485606  -0.370665  5.440943
H    -2.633598  -2.912247  7.765962
H    -2.218733  -1.346618  8.378834
O    2.344267  0.166300  2.272308
H    3.039978  0.152635  2.963580
Hg    0.983092  -0.324795  7.597998
