27
Energy: -569904.786015 eV PBE+vdW (tier 2 basis)
N    1.561022  -1.002860  1.378136
C    0.439334  -0.460022  2.175407
C    0.786759  -0.475503  3.671723
O    1.278572  -1.455948  4.229788
H    1.283350  -1.000348  0.391704
H    2.371873  -0.379223  1.443242
H    0.260679  0.591414  1.886316
C    -0.881882  -1.227612  1.908579
C    -1.124974  -2.616177  2.531001
C    -0.156798  -3.750176  2.184166
N    1.004189  -3.816360  3.133381
C    2.268620  -4.275262  2.618283
N    2.749542  -5.367960  3.172264
N    2.816082  -3.550311  1.657245
H    -0.988685  -1.292577  0.813711
H    -1.707596  -0.580771  2.236610
H    -2.116533  -2.931817  2.177402
H    -1.230693  -2.545306  3.624905
H    0.231658  -3.659951  1.157772
H    -0.670236  -4.720316  2.222278
H    1.138041  -2.857304  3.621340
H    3.692899  -5.712155  2.976167
H    2.384634  -2.603017  1.470787
H    3.705963  -3.811549  1.239747
O    0.499134  0.584179  4.404037
H    0.158235  1.333502  3.877727
Hg    1.287971  -5.640533  4.783026
