27
Energy: -569905.118021 eV PBE+vdW (tier 2 basis)
N    -0.308556  -0.955386  0.104022
C    -0.266345  -0.160527  1.274070
C    1.268704  0.081575  1.689731
O    1.829669  -0.642187  2.483192
H    -0.218186  -1.965622  0.151614
H    -0.222089  -0.544509  -0.820501
H    -0.664686  0.837971  1.028771
C    -1.062920  -0.730971  2.461321
C    -0.660722  -2.139884  2.957372
C    -0.314480  -2.125985  4.460049
N    0.298886  -3.364608  4.938517
C    1.614956  -3.617825  4.992592
N    2.002710  -4.809777  5.536340
N    2.505201  -2.769036  4.462684
H    -2.116487  -0.722410  2.152465
H    -0.981028  0.002179  3.277078
H    0.207970  -2.522779  2.401952
H    -1.476319  -2.853698  2.780927
H    -1.220191  -1.960107  5.058049
H    0.374193  -1.301120  4.689052
H    -0.305785  -4.151765  5.158423
H    3.009817  -4.970637  5.430356
H    3.494665  -2.876171  4.658800
H    2.245074  -2.033769  3.799201
O    1.908554  1.075363  1.094392
H    1.337336  1.618188  0.517932
Hg    1.662573  -5.239518  7.686124
