27
Energy: -569904.874712 eV PBE+vdW (tier 2 basis)
N    -0.069527  0.819222  0.459944
C    0.033372  -0.118640  1.603703
C    1.457652  -0.720192  1.779588
O    2.514198  -0.070422  1.417705
H    -0.242091  0.338452  -0.429855
H    -0.806351  1.518644  0.590748
H    -0.128995  0.486333  2.511241
C    -1.071693  -1.206373  1.508595
C    -1.303218  -1.980303  2.832639
C    -0.999053  -3.493554  2.684670
N    -0.828669  -4.154656  3.974066
C    0.317541  -4.286742  4.701327
N    0.551221  -4.581160  5.910166
N    1.586270  -4.115049  3.901058
H    -0.818438  -1.896330  0.689305
H    -2.003989  -0.706330  1.214650
H    -2.342682  -1.851093  3.160905
H    -0.674001  -1.571140  3.632595
H    -0.103760  -3.645287  2.072302
H    -1.822581  -3.997870  2.161607
H    -1.677500  -4.328412  4.509783
H    -0.267876  -4.707810  6.511632
H    2.340063  -4.169525  4.603239
H    1.718527  -4.888785  3.232972
O    1.571418  -1.818949  2.337263
H    1.654695  -3.209098  3.374371
Hg    2.110700  1.798286  0.295066
