27
Energy: -569907.081531 eV PBE+vdW (tier 2 basis)
N    1.269782  0.254484  1.420110
C    -0.012188  -0.203887  2.095031
C    0.459146  -0.942467  3.362546
O    -0.539709  -1.239419  4.170772
H    1.262085  0.136135  0.399716
H    1.479211  1.241505  1.622017
H    -0.613916  0.682330  2.325021
C    -0.845433  -1.191285  1.233249
C    -0.323683  -2.652786  1.133790
C    -1.423185  -3.710044  1.409776
N    -0.891317  -5.052454  1.681107
C    -0.889272  -5.759665  2.834997
N    -1.016085  -5.201245  4.053263
N    -0.747365  -7.092328  2.745135
H    -0.985920  -0.752855  0.234833
H    -1.845293  -1.177726  1.689235
H    0.511241  -2.826632  1.830680
H    0.101761  -2.839724  0.138752
H    -2.100073  -3.791480  0.547814
H    -2.067274  -3.413591  2.250453
H    -0.589681  -5.576726  0.864429
H    -1.197455  -5.842760  4.821229
H    -0.477894  -7.649684  3.548391
H    -0.974715  -7.596424  1.894399
O    1.622881  -1.309401  3.442520
H    2.024974  -0.329008  1.857400
Hg    -0.647545  -3.252209  4.449291
