27
Energy: -569905.958305 eV PBE+vdW (tier 2 basis)
N    1.689560  0.017306  1.450233
C    0.770986  -0.558438  2.407111
C    1.379659  -1.556913  3.477091
O    2.577932  -1.696333  3.644191
H    1.804470  -0.658335  0.675045
H    -4.272596  -0.405250  0.415176
H    0.405245  0.270640  3.042041
C    -0.403759  -1.230806  1.630433
C    -1.132482  -0.342037  0.602776
C    -1.968283  0.794709  1.214260
N    -2.643458  1.618137  0.205943
C    -3.932485  1.542355  -0.166758
N    -4.683682  0.480560  0.152988
N    -4.477513  2.550742  -0.858579
H    -1.146674  -1.604630  2.354574
H    -0.013511  -2.121377  1.115315
H    -1.786227  -1.000292  0.011147
H    -0.414172  0.085348  -0.111318
H    -1.337164  1.477665  1.799601
H    -2.728438  0.407737  1.908144
H    -2.092610  2.348932  -0.233711
H    -5.690538  0.502494  0.036517
H    -5.358523  2.439136  -1.347716
H    -4.044226  3.466023  -0.896303
O    0.539265  -2.204809  4.266094
H    -0.396719  -2.029355  4.057770
Hg    3.721758  -0.019466  2.184460
