27
Energy: -569906.299042 eV PBE+vdW (tier 2 basis)
N    0.341342  -2.045197  1.179909
C    0.406636  -0.626283  0.732964
C    1.367318  -0.415584  -0.462933
O    2.428792  -1.157313  -0.634795
H    -0.309756  -2.601296  0.614219
H    0.054317  -2.128595  2.159940
H    0.861460  -0.064303  1.565731
C    -1.020511  -0.076695  0.463546
C    -1.104132  1.468611  0.358949
C    -1.626411  1.919149  -1.021144
N    -1.502423  3.357025  -1.238695
C    -0.506495  3.966972  -1.908556
N    0.580096  3.288113  -2.285993
N    -0.617691  5.271608  -2.195841
H    -1.661710  -0.419102  1.286113
H    -1.410023  -0.549696  -0.451198
H    -0.123183  1.926085  0.539858
H    -1.770546  1.852116  1.142605
H    -2.689568  1.663211  -1.126214
H    -1.099827  1.398715  -1.830226
H    -2.208996  3.956689  -0.823654
H    1.244783  3.699992  -2.930265
H    -1.503889  5.757344  -2.124516
H    0.164342  5.798561  -2.566172
O    1.183267  0.512982  -1.248070
H    0.781591  2.348254  -1.949209
Hg    2.538107  -2.868905  0.711584
