27
Energy: -569905.784708 eV PBE+vdW (tier 2 basis)
N    0.327199  -2.002392  1.069196
C    0.394724  -0.713714  1.721171
C    1.750926  0.082564  1.546171
O    2.826315  -0.483899  1.432128
H    -1.336579  -3.322227  1.208274
H    0.299852  -1.842202  0.048475
H    -0.357683  -0.087157  1.198886
C    0.119027  -0.798173  3.240906
C    -1.347738  -0.719784  3.705032
C    -2.277202  -1.911194  3.424378
N    -3.107319  -1.775597  2.209927
C    -3.293348  -2.727473  1.276079
N    -2.300100  -3.577916  0.984733
N    -4.458593  -2.802131  0.622010
H    0.655189  0.016165  3.749568
H    0.580394  -1.727254  3.613420
H    -1.814709  0.208481  3.340571
H    -1.304836  -0.603575  4.796995
H    -2.970224  -2.019271  4.271032
H    -1.722919  -2.854680  3.361416
H    -3.844325  -1.076750  2.266853
H    -2.475273  -4.419020  0.447642
H    -4.549960  -3.332467  -0.237635
H    -5.304659  -2.385519  0.995080
O    1.710138  1.397539  1.603288
H    0.804919  1.757421  1.676531
Hg    2.334334  -2.906953  1.201991
