27
Energy: -569905.104162 eV PBE+vdW (tier 2 basis)
N    -1.667833  0.077113  -0.031503
C    -1.041958  0.105747  1.347285
C    0.168579  1.048607  1.178028
O    0.291526  1.709578  0.165058
H    -1.308840  -0.709827  -0.588504
H    -1.323679  0.953913  -0.494956
H    -1.758349  0.638414  1.990981
C    -0.743340  -1.293163  1.892836
C    -1.947749  -2.248681  1.885757
C    -3.126667  -1.818458  2.787967
N    -4.430159  -2.261470  2.288693
C    -5.082405  -1.680243  1.257896
N    -6.039834  -2.287211  0.572992
N    -4.717381  -0.407388  0.820243
H    -0.347887  -1.167102  2.910288
H    0.075289  -1.744496  1.311290
H    -1.597922  -3.243861  2.189613
H    -2.323817  -2.380427  0.858170
H    -3.174716  -0.725834  2.902106
H    -3.015225  -2.226183  3.799661
H    -4.728676  -3.198914  2.548337
H    -6.286378  -3.269226  0.705320
H    -4.698677  0.272719  1.590504
H    -2.703686  0.009455  0.011890
O    0.957634  1.043991  2.240446
H    1.693499  1.680883  2.111860
Hg    -6.618132  -0.421490  -0.494455
