27
Energy: -569905.945508 eV PBE+vdW (tier 2 basis)
N    2.184285  0.450155  0.714067
C    1.483373  -0.090002  1.858018
C    2.188789  -1.248532  2.658102
O    3.309293  -1.648603  2.405957
H    2.005371  -0.164255  -0.097321
H    -3.764325  0.403697  -1.648459
H    1.410278  0.729498  2.596623
C    0.036181  -0.498119  1.425148
C    -0.082527  -1.780116  0.587656
C    -1.522910  -2.262649  0.366532
N    -2.299975  -1.356700  -0.490786
C    -3.643835  -1.362545  -0.594372
N    -4.252279  -0.426135  -1.333391
N    -4.373770  -2.273794  0.057731
H    -0.392580  0.367768  0.902178
H    -0.565487  -0.594838  2.344087
H    0.438664  -2.612267  1.084099
H    0.408025  -1.669153  -0.393220
H    -2.039408  -2.339682  1.334862
H    -1.485640  -3.269454  -0.079373
H    -1.799184  -0.884126  -1.237706
H    -5.228260  -0.511687  -1.594244
H    -5.383094  -2.190519  0.112486
H    -3.970614  -3.141694  0.388719
O    1.518983  -1.771450  3.678036
H    0.671247  -1.320073  3.847783
Hg    4.311224  0.123806  0.859963
