27
Energy: -569905.410166 eV PBE+vdW (tier 2 basis)
N    -0.955004  -1.283143  -0.535647
C    -0.416474  -0.906992  0.718398
C    1.040447  -1.424002  0.935700
O    1.812826  -0.856975  1.692302
H    -1.152698  -2.259712  -0.740355
H    -0.885126  -0.664110  -1.337648
H    -0.339460  0.188691  0.747095
C    -1.324807  -1.422036  1.886418
C    -0.890866  -1.172692  3.339228
C    -0.755339  0.287503  3.804937
N    0.611214  0.786984  3.624365
C    1.188272  1.811357  4.274163
N    0.456978  2.762304  4.899117
N    2.527191  1.938857  4.237766
H    -1.461138  -2.505706  1.755660
H    -2.306872  -0.962069  1.706657
H    0.022124  -1.727771  3.599246
H    -1.680935  -1.624923  3.956565
H    -1.004615  0.352409  4.875031
H    -1.471678  0.928337  3.263243
H    1.176411  0.295543  2.907635
H    -0.551266  2.594966  4.874635
H    2.947179  2.854920  4.351227
H    3.106588  1.220202  3.817387
O    1.306879  -2.523221  0.251329
H    2.222121  -2.827706  0.434717
Hg    0.951308  3.380545  6.955464
