27
Energy: -569905.25974 eV PBE+vdW (tier 2 basis)
N    0.276022  -0.809151  -0.222819
C    0.383560  -0.345956  1.105267
C    1.726983  -0.827066  1.823210
O    1.898231  -0.646862  3.002428
H    0.012302  -1.777304  -0.395403
H    0.840585  -0.386002  -0.955415
H    0.521817  0.749188  1.085116
C    -0.817802  -0.748253  1.983737
C    -2.119842  0.014304  1.674288
C    -2.240289  1.422359  2.275530
N    -2.457326  1.379336  3.726775
C    -3.151481  2.269452  4.470928
N    -3.445640  3.498987  4.019024
N    -3.499070  1.931811  5.725968
H    -0.505887  -0.632180  3.032144
H    -0.997971  -1.826003  1.853277
H    -2.975478  -0.585590  2.015014
H    -2.241620  0.113669  0.586253
H    -3.102724  1.929294  1.820924
H    -1.346304  2.029224  2.054345
H    -1.937047  0.674145  4.245506
H    -3.105177  3.707435  3.079708
H    -3.660454  2.655915  6.416806
H    -3.403275  0.982738  6.068271
O    2.573063  -1.384264  0.964304
H    3.400661  -1.636473  1.430319
Hg    -5.464405  4.399963  4.249388
