27
Energy: -569905.797605 eV PBE+vdW (tier 2 basis)
N    1.145627  -1.107141  0.592807
C    0.772924  -0.647470  1.914141
C    1.927506  -0.788551  2.963523
O    2.801869  -1.635514  2.893319
H    0.330333  -1.563852  0.156581
H    -0.978483  3.358397  -0.295750
H    0.685178  0.453989  1.780423
C    -0.525193  -1.235915  2.519794
C    -1.826945  -1.021892  1.723266
C    -2.538878  0.328726  1.867285
N    -1.937508  1.400724  1.051420
C    -2.319853  2.696747  1.122143
N    -1.762231  3.594658  0.300577
N    -3.214747  3.092237  2.031481
H    -0.665128  -0.852435  3.542476
H    -0.365662  -2.319721  2.636958
H    -2.543334  -1.773916  2.081632
H    -1.700382  -1.262688  0.653310
H    -2.517384  0.644261  2.921240
H    -3.593139  0.191450  1.576545
H    -1.557488  1.113080  0.153297
H    -2.128907  4.536613  0.219385
H    -3.417109  4.075967  2.174541
H    -3.813734  2.431895  2.511679
O    1.904565  0.027382  4.004274
H    1.191178  0.690837  3.953149
Hg    2.504990  -2.782218  0.720847
