27
Energy: -569905.096841 eV PBE+vdW (tier 2 basis)
N    -0.206708  -0.406242  -0.091949
C    -0.294173  -0.245075  1.303911
C    1.122859  0.013471  1.964883
O    2.111189  -0.615029  1.727970
H    -0.246146  0.396350  -0.712859
H    0.184462  -1.258924  -0.487073
H    -0.885564  0.660010  1.508907
C    -0.901916  -1.508307  1.978494
C    -1.032616  -1.507936  3.508677
C    -2.113653  -0.619824  4.124325
N    -1.741172  0.801038  4.193662
C    -2.570848  1.800774  4.552742
N    -2.234389  3.090585  4.304666
N    -3.779761  1.531093  5.059397
H    -0.277921  -2.367683  1.692240
H    -1.886076  -1.662618  1.512384
H    -0.066362  -1.326914  4.005172
H    -1.299993  -2.535975  3.793650
H    -2.308069  -0.974941  5.152186
H    -3.057820  -0.709794  3.561832
H    -0.763428  1.039981  4.016599
H    -1.300738  3.187889  3.895348
H    -4.063578  0.593382  5.317329
H    -4.493220  2.251208  5.076804
O    1.037962  1.028645  2.876251
H    1.936301  1.149031  3.255059
Hg    -2.331842  4.620350  5.929584
