27
Energy: -569906.6931 eV PBE+vdW (tier 2 basis)
N    0.595339  -0.998535  0.978787
C    -0.669003  -0.382704  1.566133
C    -0.383245  0.190905  2.955054
O    -1.322836  0.537983  3.651815
H    0.532790  -1.117234  -0.042518
H    0.782483  -1.925130  1.389524
H    -1.418800  -1.180431  1.619780
C    -1.214876  0.795963  0.713436
C    -0.366475  2.096143  0.694544
C    -1.069927  3.432632  1.025371
N    -1.819158  3.560591  2.303071
C    -1.466446  4.327639  3.372624
N    -0.213013  4.287660  3.869925
N    -2.394520  5.109536  3.935377
H    -2.211794  0.981755  1.134502
H    -1.390784  0.432084  -0.309624
H    0.047794  2.246242  -0.312646
H    0.522239  1.994186  1.335376
H    -1.796560  3.661671  0.234703
H    -0.314910  4.228651  0.997230
H    -2.822942  3.427873  2.216322
H    0.041301  5.017924  4.533065
H    -3.212021  5.421361  3.419278
H    -2.286274  5.465983  4.880375
O    0.895363  0.489931  3.165622
H    1.406505  -0.401637  1.211090
Hg    0.607514  2.414422  3.971379
