27
Energy: -569906.372093 eV PBE+vdW (tier 2 basis)
N    0.685711  -0.415637  0.161281
C    -0.205320  -0.288890  1.340370
C    0.351546  0.617070  2.451296
O    1.623947  0.709301  2.712859
H    0.605710  0.373108  -0.488725
H    0.526849  -1.282251  -0.363695
H    -1.124578  0.230512  1.013217
C    -0.544791  -1.691034  1.900074
C    -1.332377  -1.738009  3.220231
C    -2.758180  -1.158737  3.145288
N    -3.434109  -1.158097  4.441340
C    -3.502293  -0.120502  5.295539
N    -2.765201  0.977616  5.107201
N    -4.331155  -0.196091  6.346679
H    0.399310  -2.240042  2.055886
H    -1.095025  -2.234303  1.115284
H    -0.767817  -1.235531  4.018310
H    -1.396290  -2.793762  3.519404
H    -3.376169  -1.751444  2.456779
H    -2.767427  -0.129633  2.764226
H    -3.879754  -2.021237  4.735637
H    -2.944940  1.813535  5.650924
H    -4.287832  0.478331  7.101445
H    -5.058477  -0.899105  6.401179
O    -0.449105  1.214855  3.171915
H    -1.989103  1.015750  4.448653
Hg    2.851634  -0.245881  1.173337
