27
Energy: -569905.822031 eV PBE+vdW (tier 2 basis)
N    0.058246  0.627566  0.461844
C    0.303757  0.531076  1.884991
C    1.814166  0.435224  2.350785
O    2.755438  0.547654  1.582596
H    0.066917  -0.334981  0.085076
H    -3.559390  3.041210  -0.743967
H    -0.026826  1.483066  2.341284
C    -0.528738  -0.663740  2.453491
C    -2.037104  -0.428632  2.631567
C    -2.895397  -0.274992  1.362928
N    -2.962003  1.082025  0.812456
C    -3.995730  1.930967  0.932731
N    -4.052834  3.012439  0.139995
N    -4.963787  1.725798  1.833430
H    -0.125853  -0.946885  3.436945
H    -0.348715  -1.546706  1.818129
H    -2.208731  0.427855  3.301887
H    -2.414637  -1.311063  3.169689
H    -3.921299  -0.607398  1.565492
H    -2.532747  -0.936597  0.562492
H    -2.151955  1.394209  0.279479
H    -4.714638  3.759173  0.319525
H    -5.842530  2.228890  1.780206
H    -4.859633  1.066789  2.594073
O    2.050448  0.300356  3.641393
H    1.242481  0.243761  4.185723
Hg    1.849904  1.303656  -0.589033
