27
Energy: -569905.351329 eV PBE+vdW (tier 2 basis)
N    -0.011345  -0.200889  0.056963
C    0.772319  0.080859  1.187330
C    2.275248  -0.430406  1.136255
O    2.571748  -1.520470  0.661671
H    -0.244127  -1.158999  -0.180076
H    0.029154  0.428993  -0.737966
H    0.853091  1.176508  1.271019
C    0.164471  -0.444184  2.534292
C    -0.487751  -1.833992  2.571093
C    0.406405  -3.090322  2.535045
N    1.285782  -3.185180  3.703408
C    2.603498  -3.471966  3.707777
N    3.217952  -4.111502  2.681647
N    3.352490  -3.153308  4.776544
H    -0.627960  0.280779  2.768633
H    0.916741  -0.339236  3.331535
H    -1.217071  -1.936787  1.753686
H    -1.101648  -1.874261  3.483846
H    1.029630  -3.113781  1.634066
H    -0.248117  -3.974283  2.507543
H    0.837018  -3.064706  4.611862
H    2.553099  -4.516464  2.017340
H    4.208201  -3.674805  4.942268
H    2.981779  -2.619090  5.555187
O    3.207228  0.304466  1.721369
H    2.892814  1.186424  2.004687
Hg    4.497036  -2.846031  1.429888
