27
Energy: -569906.898333 eV PBE+vdW (tier 2 basis)
N    0.496660  0.640682  0.613474
C    -0.302905  0.298057  1.862777
C    0.531713  -0.597857  2.777063
O    0.249374  -0.661423  3.967879
H    -0.102735  1.010837  -0.139040
H    1.223418  1.344758  0.810156
H    -0.541278  1.242148  2.366751
C    -1.589760  -0.479531  1.468033
C    -2.598379  -0.734594  2.625997
C    -2.890147  -2.198604  3.006728
N    -1.744929  -2.826924  3.683851
C    -1.475529  -4.150550  3.806741
N    -0.198261  -4.511212  4.052673
N    -2.442386  -5.058740  3.646304
H    -1.291550  -1.427008  0.991976
H    -2.098368  0.111196  0.691457
H    -3.564567  -0.303947  2.334903
H    -2.299602  -0.184023  3.529716
H    -3.135322  -2.795801  2.116583
H    -3.774650  -2.198695  3.662689
H    -1.190228  -2.203054  4.271022
H    0.008087  -5.456389  4.368090
H    -2.226116  -6.044637  3.538928
H    -3.418220  -4.816668  3.788145
O    1.370933  -1.391904  2.135594
H    0.979128  -0.209284  0.275584
Hg    1.136080  -3.161045  3.272810
