27
Energy: -569904.820921 eV PBE+vdW (tier 2 basis)
N    1.195773  -1.807511  0.015839
C    0.196117  -0.845391  0.544763
C    0.854167  0.436922  1.109325
O    1.963319  0.915451  0.623816
H    0.789994  -2.450147  -0.670513
H    1.625848  -2.370090  0.757698
H    -0.386177  -0.506650  -0.328526
C    -0.767260  -1.506966  1.585959
C    -2.250553  -1.116416  1.462154
C    -2.647268  0.352276  1.670747
N    -2.325226  0.907324  2.987060
C    -3.183972  0.866112  4.028750
N    -4.332677  0.387823  4.252167
N    -2.666816  1.640513  5.240089
H    -0.390186  -1.308376  2.597800
H    -0.718493  -2.594189  1.441897
H    -2.800837  -1.738056  2.185091
H    -2.626320  -1.411767  0.470247
H    -3.727330  0.461209  1.503142
H    -2.158250  1.009447  0.938573
H    -1.385212  1.294331  3.070254
H    -4.757451  -0.154342  3.497244
H    -3.415458  1.544050  5.945930
H    -2.529035  2.642325  5.037446
O    0.295781  1.069596  2.006918
H    -1.792326  1.259222  5.629657
Hg    2.940672  -0.382506  -0.847141
