27
Energy: -569904.735074 eV PBE+vdW (tier 2 basis)
N    0.962991  0.093793  0.434351
C    0.648297  0.011067  1.834202
C    1.987137  -0.403961  2.578880
O    2.027773  -0.563989  3.802984
H    0.573965  -0.635399  -0.160974
H    0.883298  1.013241  0.005478
H    0.437088  1.017495  2.230430
C    -0.518712  -0.949369  2.175040
C    -1.036079  -0.826779  3.609765
C    -2.233693  -1.760697  3.942889
N    -3.495773  -1.405904  3.318019
C    -4.447724  -0.577022  3.853010
N    -4.266851  0.213131  4.899956
N    -5.653940  -0.489743  3.248941
H    -0.215490  -1.986567  1.959907
H    -1.318219  -0.694587  1.463161
H    -1.328463  0.213629  3.821658
H    -0.246839  -1.089760  4.328614
H    -2.372412  -1.779067  5.031814
H    -2.001245  -2.790720  3.638335
H    -3.691688  -1.810006  2.404560
H    -3.400393  0.023835  5.416252
H    -6.313570  0.183079  3.630916
H    -5.998792  -1.169113  2.578867
O    3.025854  -0.529837  1.809633
H    2.678092  -0.325445  0.880293
Hg    4.235883  -1.000787  4.877715
