27
Energy: -569905.166812 eV PBE+vdW (tier 2 basis)
N    -0.164743  -0.006084  -0.218046
C    0.132563  -0.028499  1.165693
C    1.554353  -0.617875  1.464156
O    2.241098  -0.169631  2.363629
H    0.077421  0.799191  -0.788458
H    -0.323810  -0.876120  -0.721629
H    0.190446  1.007862  1.520953
C    -0.960942  -0.819136  1.957250
C    -0.644612  -1.466691  3.314663
C    -0.072928  -0.637256  4.484215
N    -0.670986  0.684883  4.681917
C    -0.031411  1.863222  4.657537
N    -0.732230  2.959226  5.079147
N    1.204841  1.978308  4.151248
H    -1.306128  -1.634944  1.305832
H    -1.809995  -0.126385  2.041836
H    0.045651  -2.314048  3.185875
H    -1.590132  -1.924455  3.641155
H    1.007365  -0.504728  4.384958
H    -0.229386  -1.213282  5.408344
H    -1.658192  0.736589  4.922557
H    -0.223893  3.831068  4.896553
H    1.744665  2.822501  4.308673
H    1.646311  1.238510  3.589673
O    1.872308  -1.622700  0.664865
H    2.765782  -1.966782  0.884027
Hg    -1.296233  3.182098  7.218121
