27
Energy: -569904.915648 eV PBE+vdW (tier 2 basis)
N    -0.424235  0.138600  -0.134720
C    -0.076185  -0.407516  1.202474
C    1.178624  -1.322994  1.156039
O    2.171061  -1.067378  0.353975
H    -0.939410  -0.534771  -0.712759
H    -0.981088  0.995983  -0.072187
H    0.222177  0.459337  1.815828
C    -1.284035  -1.120666  1.863334
C    -1.176609  -1.226006  3.411073
C    -1.484899  -2.610318  3.969927
N    -0.398837  -3.630369  3.589014
C    -0.919590  -4.851003  2.889199
N    -1.318723  -4.613972  1.706770
N    -0.876639  -5.968353  3.646006
H    -1.401928  -2.116612  1.408043
H    -2.188665  -0.551575  1.614172
H    -1.897428  -0.540179  3.876165
H    -0.190505  -0.898509  3.770570
H    -2.428919  -3.005528  3.579459
H    -1.540000  -2.590489  5.063982
H    0.166834  -3.867077  4.412341
H    -1.697195  -5.427251  1.214569
H    -1.201111  -6.848739  3.257637
H    -0.558272  -5.993967  4.608342
O    1.286963  -2.274558  1.933225
H    0.256175  -3.157976  2.903252
Hg    1.721146  0.464373  -1.139760
