27
Energy: -569904.826097 eV PBE+vdW (tier 2 basis)
N    -1.594712  -0.605717  0.669635
C    -0.691009  -0.576944  1.882672
C    0.551234  0.342732  1.584005
O    0.557990  0.910910  0.465259
H    -2.529776  -1.000947  0.948432
H    -1.730062  0.343676  0.290897
H    -1.281594  -0.039307  2.651438
C    -0.309526  -1.998678  2.337747
C    -0.302709  -2.167726  3.875149
C    -1.525512  -2.919321  4.472798
N    -2.763831  -2.833035  3.685289
C    -3.293177  -1.676839  3.223791
N    -3.004115  -0.468274  3.657338
N    -4.088781  -1.734805  2.079054
H    0.670178  -2.262362  1.919497
H    -1.020101  -2.710480  1.886518
H    -0.175159  -1.187159  4.352191
H    0.584724  -2.740122  4.169769
H    -1.708367  -2.586981  5.506017
H    -1.303667  -3.990634  4.536909
H    -3.204266  -3.713502  3.429436
H    -2.517219  -0.495765  4.559797
H    -4.802517  -1.005042  2.056916
H    -4.459982  -2.643067  1.802299
O    1.406116  0.429079  2.494334
H    -1.204041  -1.178219  -0.092277
Hg    2.649692  2.029973  1.197955
