27
Energy: -569906.522527 eV PBE+vdW (tier 2 basis)
N    0.110242  -0.129255  -0.155331
C    0.585603  -0.234168  1.279438
C    2.094299  -0.669195  1.092282
O    2.886483  -0.948439  2.101591
H    -0.355141  0.759077  -0.373648
H    -0.510361  -0.899715  -0.432510
H    0.610168  0.795251  1.666060
C    -0.339305  -1.108930  2.160870
C    -0.594054  -0.500781  3.560150
C    -1.000041  -1.534536  4.644931
N    -0.508815  -1.163656  5.983041
C    0.769275  -1.270703  6.380576
N    1.675468  -2.145639  5.791155
N    1.238357  -0.542546  7.388535
H    0.081420  -2.124065  2.241689
H    -1.305859  -1.242210  1.654368
H    -1.358820  0.285303  3.490515
H    0.309745  0.030226  3.903950
H    -0.634469  -2.538985  4.394688
H    -2.088820  -1.626875  4.721210
H    -1.152069  -0.642908  6.577148
H    1.226882  -3.048074  5.600638
H    0.700434  0.185613  7.851235
H    2.130034  -0.807573  7.799388
O    2.522657  -0.652650  -0.051962
H    1.033287  -0.222857  -0.692538
Hg    2.389817  -1.515422  3.979539
