27
Energy: -569905.431497 eV PBE+vdW (tier 2 basis)
N    0.915971  -0.619069  0.491894
C    -0.068044  -0.073672  1.355259
C    0.547323  0.461886  2.703404
O    -0.104712  0.561267  3.725706
H    1.164829  -1.602669  0.560578
H    1.612742  -0.017237  0.060129
H    -0.442912  0.859443  0.888336
C    -1.233277  -1.055956  1.616797
C    -2.648321  -0.459383  1.530580
C    -3.026043  0.629983  2.553825
N    -2.929966  0.215302  3.954414
C    -3.856869  -0.432817  4.681095
N    -3.481633  -1.135145  5.780908
N    -5.141169  -0.469023  4.304200
H    -1.080806  -1.566254  2.577499
H    -1.181375  -1.834345  0.843156
H    -3.366198  -1.289504  1.606419
H    -2.807205  -0.015428  0.535888
H    -4.041343  0.989592  2.341250
H    -2.369772  1.506351  2.463638
H    -1.990545  0.314563  4.348658
H    -2.477631  -1.067091  5.971592
H    -5.765304  -1.157609  4.708086
H    -5.494042  0.078071  3.528788
O    1.816164  0.813683  2.563550
H    2.162439  1.185990  3.403244
Hg    -4.469832  -0.751633  7.738613
