27
Energy: -569905.501329 eV PBE+vdW (tier 2 basis)
N    -0.188488  -0.514567  -0.539309
C    -0.205881  -0.125010  0.845739
C    0.868527  1.000108  1.052438
O    1.182788  1.425032  2.162427
H    -1.064556  -0.442767  -1.051959
H    0.328701  -1.359899  -0.776726
H    -1.167106  0.372690  1.051001
C    0.001053  -1.297583  1.847950
C    -0.598707  -1.063894  3.264854
C    0.390493  -1.105262  4.429110
N    1.227922  0.091904  4.446998
C    2.434175  0.231529  5.015368
N    3.299839  1.111244  4.440012
N    2.828728  -0.530912  6.039115
H    1.070985  -1.546629  1.905877
H    -0.491799  -2.170238  1.403238
H    -1.346793  -1.843093  3.460648
H    -1.155450  -0.115929  3.312030
H    1.027382  -2.005035  4.411277
H    -0.187802  -1.138594  5.371727
H    0.991674  0.789303  3.711764
H    2.881422  1.608745  3.640455
H    3.812604  -0.612060  6.270734
H    2.185092  -1.140499  6.531291
O    1.414749  1.474392  -0.035825
H    1.007351  0.963841  -0.791998
Hg    4.283516  2.650329  5.638651
