27
Energy: -569904.504418 eV PBE+vdW (tier 2 basis)
N    0.886213  -0.872433  0.343692
C    0.355080  -0.294810  1.580687
C    1.518354  0.124948  2.520556
O    2.535334  -0.539054  2.660973
H    0.226557  -1.505380  -0.115246
H    1.204544  -0.174229  -0.334166
H    -0.217316  0.617213  1.329756
C    -0.543083  -1.335440  2.295724
C    -1.201125  -0.947797  3.631705
C    -2.395371  0.023858  3.516075
N    -3.084918  0.231628  4.781202
C    -4.122585  -0.526005  5.249560
N    -4.621148  -1.607787  4.665032
N    -4.698175  -0.193552  6.426972
H    0.074216  -2.230269  2.475329
H    -1.321678  -1.635513  1.575808
H    -0.460560  -0.551929  4.342911
H    -1.567750  -1.880055  4.085183
H    -3.119117  -0.340821  2.772524
H    -2.083118  1.018360  3.163661
H    -2.706928  0.946012  5.398512
H    -4.244840  -1.773259  3.725380
H    -5.446577  -0.796087  6.759428
H    -4.516591  0.669809  6.928079
O    1.355356  1.213471  3.256685
H    0.569473  1.728763  2.993015
Hg    2.910849  -2.262426  0.895106
