27
Energy: -569904.546441 eV PBE+vdW (tier 2 basis)
N    0.199663  0.679126  0.068626
C    0.576888  0.517330  1.492157
C    2.107439  0.448067  1.727786
O    2.943879  1.033778  0.929438
H    0.176029  -0.203108  -0.451588
H    -0.709366  1.137667  -0.043353
H    0.289247  1.461994  1.984392
C    -0.217621  -0.600571  2.226220
C    -0.065643  -2.084420  1.838710
C    1.272280  -2.813740  1.996359
N    1.918582  -2.653852  3.366472
C    1.030043  -2.855415  4.588710
N    0.790523  -1.930388  5.418429
N    0.497526  -4.096468  4.650039
H    -1.281664  -0.352313  2.105072
H    -0.022779  -0.461447  3.297328
H    -0.364835  -2.253830  0.791939
H    -0.827171  -2.622080  2.422910
H    2.038087  -2.466944  1.290793
H    1.124407  -3.884760  1.814324
H    2.745790  -3.266441  3.428973
H    1.293195  -1.049856  5.294062
H    0.838185  -4.877650  4.101527
H    -0.034794  -4.323173  5.487440
O    2.541947  -0.110253  2.742990
H    2.264201  -1.660833  3.389276
Hg    2.020676  1.985428  -0.827777
