27
Energy: -569905.387402 eV PBE+vdW (tier 2 basis)
N    0.384963  0.428938  -0.511650
C    -0.352416  0.271933  0.680260
C    0.316820  1.013897  1.929110
O    -0.128535  0.880443  3.039723
H    0.391457  1.328569  -0.986104
H    1.227472  -0.125881  -0.649372
H    -1.304603  0.823026  0.583152
C    -0.584653  -1.203478  1.056833
C    -1.599821  -1.948714  0.171527
C    -3.055243  -1.676049  0.572941
N    -3.981914  -2.462155  -0.247394
C    -5.108391  -3.078588  0.175549
N    -5.583936  -4.158504  -0.474538
N    -5.714721  -2.676109  1.301170
H    -0.889969  -1.238610  2.111836
H    0.379705  -1.731385  1.008295
H    -1.411019  -3.027390  0.264951
H    -1.441763  -1.688553  -0.887086
H    -3.307219  -0.605309  0.472479
H    -3.212858  -1.954534  1.625061
H    -3.710868  -2.628850  -1.213741
H    -5.006026  -4.456636  -1.264171
H    -5.500572  -1.792303  1.746218
H    -6.363160  -3.295081  1.774086
O    1.347666  1.767566  1.560399
H    1.715267  2.229769  2.345807
Hg    -7.716392  -4.303961  -1.149214
