27
Energy: -569905.365816 eV PBE+vdW (tier 2 basis)
N    0.247542  0.703807  0.483326
C    -0.080435  -0.088719  1.602495
C    1.204983  -0.523951  2.455421
O    1.107311  -1.301027  3.369302
H    0.541703  1.667713  0.619957
H    0.644875  0.257142  -0.340750
H    -0.620902  0.537363  2.333651
C    -0.869493  -1.361076  1.247336
C    -2.321113  -1.134080  0.782751
C    -3.291650  -0.874540  1.950021
N    -4.680285  -0.729749  1.499119
C    -5.699671  -1.594009  1.711077
N    -6.966215  -1.145992  1.758893
N    -5.453820  -2.889539  1.956125
H    -0.837675  -2.024231  2.123461
H    -0.332231  -1.897013  0.449434
H    -2.648232  -2.031136  0.237117
H    -2.371798  -0.303504  0.063468
H    -3.030202  0.049566  2.486589
H    -3.252485  -1.686101  2.688447
H    -4.931184  0.157169  1.069072
H    -7.062499  -0.133154  1.657169
H    -4.542995  -3.303863  1.805530
H    -6.152488  -3.455624  2.423611
O    2.303936  0.095271  2.037198
H    3.064347  -0.167295  2.601587
Hg    -8.638083  -2.097360  0.615727
