27
Energy: -569905.062132 eV PBE+vdW (tier 2 basis)
N    0.998974  0.043197  0.606333
C    0.449521  0.329805  1.885172
C    1.551267  0.112517  2.928752
O    2.713424  -0.033678  2.644266
H    2.014029  -0.045547  0.531628
H    0.482412  0.283386  -0.235894
H    0.241758  1.424491  1.976466
C    -0.922303  -0.356148  2.132553
C    -0.945074  -1.888579  2.042003
C    -0.209873  -2.698652  3.127811
N    -0.687614  -2.427903  4.487198
C    -1.521151  -3.188508  5.230690
N    -2.322788  -2.602473  6.146915
N    -1.627631  -4.506034  5.021166
H    -1.617403  0.031825  1.374372
H    -1.312572  0.012858  3.091348
H    -0.518759  -2.209329  1.079754
H    -1.998074  -2.206162  2.037337
H    0.872217  -2.499617  3.123702
H    -0.326676  -3.764539  2.905023
H    -0.447716  -1.507405  4.856243
H    -2.229137  -1.585065  6.197182
H    -2.447309  -5.007357  5.344193
H    -0.965139  -5.018157  4.451243
O    1.076053  0.153314  4.204044
H    1.859961  0.179246  4.792860
Hg    -2.465163  -3.352710  8.228938
