27
Energy: -569906.774161 eV PBE+vdW (tier 2 basis)
N    1.932829  -1.534025  0.231532
C    0.781071  -0.650121  -0.222506
C    0.952107  0.660637  0.560792
O    0.642316  1.740332  -0.099181
H    1.750177  -2.533668  0.064663
H    2.816931  -1.290272  -0.238093
H    0.861682  -0.513581  -1.306692
C    -0.546123  -1.331037  0.197694
C    -1.872318  -0.645273  -0.239286
C    -2.808157  -0.129550  0.882128
N    -2.558443  1.286150  1.197987
C    -2.653003  1.924856  2.400164
N    -1.946861  3.061898  2.539795
N    -3.380392  1.405979  3.392347
H    -0.523917  -1.457140  1.291025
H    -0.532984  -2.342296  -0.235876
H    -2.449836  -1.384631  -0.806854
H    -1.679108  0.166987  -0.956418
H    -2.678389  -0.714830  1.802235
H    -3.849854  -0.257155  0.553403
H    -2.560365  1.909489  0.393567
H    -2.136048  3.682457  3.324467
H    -3.295341  1.753871  4.342500
H    -4.154188  0.776389  3.202488
O    1.244592  0.584914  1.755584
H    2.059487  -1.368949  1.249731
Hg    -0.221782  2.941445  1.407425
