27
Energy: -569905.291726 eV PBE+vdW (tier 2 basis)
N    -0.899698  0.973550  0.259061
C    -0.102865  0.282072  1.221211
C    1.376114  0.120293  0.669016
O    2.242079  -0.451524  1.308937
H    -1.211997  1.918382  0.470089
H    -1.559437  0.438269  -0.302509
H    0.023620  0.920845  2.110101
C    -0.708902  -1.085961  1.626801
C    -0.012417  -1.796460  2.814456
C    0.799829  -3.025977  2.362561
N    1.584195  -3.644764  3.434945
C    2.780665  -3.223916  3.870333
N    3.425155  -4.036073  4.775560
N    3.358732  -2.129521  3.371741
H    -0.742592  -1.744582  0.744459
H    -1.753473  -0.882090  1.894410
H    -0.779183  -2.119179  3.531694
H    0.635345  -1.094021  3.355818
H    1.477870  -2.768358  1.535998
H    0.125855  -3.805456  1.987642
H    1.315970  -4.573540  3.748487
H    4.388473  -3.716201  4.935183
H    4.235561  -1.792343  3.754817
H    2.969809  -1.601057  2.580351
O    1.616966  0.647908  -0.506321
H    0.774881  1.067750  -0.820379
Hg    2.691378  -4.213082  6.851412
