27
Energy: -569906.048218 eV PBE+vdW (tier 2 basis)
N    0.725899  -1.119683  -0.142462
C    0.251982  -1.059691  1.217468
C    1.272105  -1.499003  2.344462
O    2.113148  -2.358074  2.150488
H    1.413958  -0.363211  -0.286022
H    -2.779335  0.452182  -1.844730
H    0.067493  0.017451  1.408289
C    -1.021535  -1.916539  1.415494
C    -2.199146  -1.617780  0.472289
C    -2.944640  -0.305948  0.776005
N    -4.277189  -0.243249  0.164308
C    -4.631224  0.419934  -0.947672
N    -3.704878  0.858192  -1.812225
N    -5.925944  0.659286  -1.189200
H    -1.349991  -1.837978  2.463543
H    -0.735168  -2.972279  1.281164
H    -2.911351  -2.448640  0.578323
H    -1.855829  -1.639289  -0.572302
H    -2.382561  0.582718  0.456598
H    -3.099109  -0.202530  1.859946
H    -5.025308  -0.722180  0.656959
H    -3.949543  1.511290  -2.547701
H    -6.249508  0.933392  -2.110089
H    -6.625480  0.586056  -0.459232
O    1.142725  -0.961778  3.544196
H    0.466109  -0.259186  3.580315
Hg    2.051807  -2.833996  -0.339807
