27
Energy: -569904.662757 eV PBE+vdW (tier 2 basis)
N    -0.216907  -0.199322  0.049125
C    -0.014764  -0.113452  1.464575
C    1.434886  -0.644193  1.858602
O    1.657848  -1.840700  1.906753
H    0.217749  0.514404  -0.533715
H    -0.135354  -1.131081  -0.357590
H    -0.050146  0.951022  1.747905
C    -1.070845  -0.901976  2.260343
C    -2.484845  -0.312727  2.159275
C    -3.152304  -0.486030  0.793179
N    -4.374381  0.261867  0.668807
C    -5.474037  -0.083911  -0.083588
N    -6.664962  0.436257  0.127798
N    -5.375495  -1.067390  -1.001820
H    -0.774519  -0.905796  3.318248
H    -1.053075  -1.954329  1.938107
H    -2.459481  0.756576  2.430331
H    -3.109823  -0.802936  2.920790
H    -3.365464  -1.547635  0.579910
H    -2.417857  -0.162534  0.003923
H    -4.482375  1.100458  1.235810
H    -6.672476  1.246336  0.759346
H    -4.498655  -1.365144  -1.410156
H    -6.234778  -1.334835  -1.475051
O    2.390088  0.241181  2.099794
H    2.087349  1.169231  2.068269
Hg    4.117081  -2.728330  2.373921
