27
Energy: -569906.354746 eV PBE+vdW (tier 2 basis)
N    -0.207124  0.011672  -0.246209
C    -0.034712  -0.194261  1.251788
C    0.560904  -1.605622  1.418409
O    -0.006103  -2.536219  0.833135
H    -0.848697  0.789142  -0.460326
H    0.689826  0.207037  -0.715141
H    0.638717  0.586907  1.621725
C    -1.430304  -0.148879  1.914680
C    -1.475820  -0.450838  3.440178
C    -2.395279  -1.622497  3.862460
N    -1.788566  -2.951189  3.674583
C    -0.992356  -3.603031  4.536474
N    -0.201712  -4.703419  4.171373
N    -0.833279  -3.204028  5.794098
H    -2.077015  -0.855544  1.371623
H    -1.845847  0.854943  1.743423
H    -1.852081  0.442095  3.955406
H    -0.465100  -0.611258  3.845452
H    -3.337639  -1.611735  3.299778
H    -2.684459  -1.508004  4.914993
H    -1.822081  -3.338169  2.734213
H    -0.687795  -5.326090  3.514509
H    -0.288559  -3.802852  6.409414
H    -1.336812  -2.426479  6.208019
O    1.542394  -1.693729  2.259656
H    -0.590459  -0.863329  -0.649033
Hg    1.264058  -3.700225  3.008388
