27
Energy: -569906.334632 eV PBE+vdW (tier 2 basis)
N    0.422502  1.032357  1.053474
C    -0.163362  0.691574  2.409289
C    1.038382  0.786584  3.397276
O    0.676242  1.155578  4.611560
H    0.469009  2.049584  0.897105
H    -0.095743  0.615019  0.268758
H    -0.943572  1.422740  2.644561
C    -0.723942  -0.774272  2.392106
C    -0.584416  -1.402979  3.784331
C    -0.845310  -2.884836  4.126746
N    -0.010310  -3.167260  5.325787
C    -0.281966  -2.736018  6.594258
N    0.598503  -1.913177  7.214074
N    -1.386652  -3.181325  7.195662
H    -0.136333  -1.370240  1.676063
H    -1.764448  -0.752412  2.042951
H    -1.146018  -0.788790  4.505639
H    0.490367  -1.301891  4.002057
H    -0.522253  -3.573040  3.336669
H    -1.898122  -3.095898  4.342983
H    0.988743  -3.157462  5.124538
H    0.533227  -1.848347  8.231264
H    -1.829681  -4.038917  6.875961
H    -1.732036  -2.771806  8.058466
O    2.136500  0.436345  3.000007
H    1.401750  0.671481  1.069781
Hg    1.033084  -0.199404  6.133330
