27
Energy: -569906.691693 eV PBE+vdW (tier 2 basis)
N    0.538812  0.675860  0.061092
C    -0.162049  0.330038  1.369549
C    0.819778  -0.332253  2.337636
O    0.482937  -0.489286  3.499808
H    -0.127942  0.835985  -0.707581
H    1.110954  1.527424  0.160061
H    -0.546655  1.268721  1.784753
C    -1.329076  -0.677679  1.177510
C    -0.940928  -2.128772  0.784596
C    -1.511591  -3.291920  1.628198
N    -1.298475  -3.292550  3.099558
C    -0.502930  -4.148976  3.799968
N    0.764143  -4.394495  3.407332
N    -0.996373  -4.728851  4.899793
H    -2.037119  -0.254431  0.449818
H    -1.852277  -0.656920  2.142635
H    0.152094  -2.238990  0.720967
H    -1.288927  -2.334838  -0.237663
H    -1.105835  -4.230396  1.229310
H    -2.599823  -3.336710  1.489055
H    -2.086819  -2.944187  3.637972
H    1.237219  -5.181583  3.848242
H    -0.387506  -5.128151  5.608056
H    -1.996247  -4.841932  5.038961
O    1.862897  -0.905422  1.744358
H    1.186222  -0.088691  -0.192926
Hg    1.795085  -2.745511  2.766665
