27
Energy: -569905.932867 eV PBE+vdW (tier 2 basis)
N    0.302792  -1.454795  0.406270
C    0.336552  -0.673904  1.621988
C    1.760270  -0.320452  2.216128
O    2.743826  -1.018331  2.029828
H    -1.330729  -2.777636  0.017753
H    0.507911  -0.830847  -0.390765
H    -0.081526  0.316974  1.351406
C    -0.481300  -1.343530  2.759977
C    -1.945439  -0.874995  2.832707
C    -2.890010  -1.324000  1.713523
N    -3.229998  -2.752792  1.769505
C    -3.022090  -3.665091  0.806853
N    -2.057620  -3.486175  -0.107308
N    -3.771208  -4.774794  0.774519
H    -0.014652  -1.138712  3.733329
H    -0.419102  -2.434444  2.624415
H    -1.983658  0.224955  2.872154
H    -2.355470  -1.206628  3.798625
H    -2.494442  -1.102404  0.713888
H    -3.829349  -0.758714  1.797301
H    -3.846466  -3.035612  2.526900
H    -2.075274  -4.010635  -0.973900
H    -3.497564  -5.581549  0.225226
H    -4.652633  -4.835610  1.271758
O    1.848709  0.732988  2.999824
H    1.020972  1.248568  3.060811
Hg    2.126333  -2.694983  0.331910
