27
Energy: -569905.390476 eV PBE+vdW (tier 2 basis)
N    -0.926534  0.416035  -0.117629
C    -0.715895  0.534432  1.272834
C    0.360734  1.654916  1.639114
O    0.876722  1.698052  2.727344
H    -1.470970  1.121674  -0.607627
H    -0.235083  -0.062105  -0.691364
H    -1.632894  0.945949  1.731882
C    -0.321870  -0.789640  1.952131
C    -1.486934  -1.788470  2.018691
C    -1.131399  -3.152196  2.620208
N    -0.885922  -3.100920  4.069455
C    -1.115949  -4.105581  4.941525
N    -1.307093  -3.850181  6.252957
N    -1.253015  -5.362932  4.498769
H    0.052444  -0.521594  2.951318
H    0.532375  -1.231699  1.413686
H    -1.859062  -1.989501  1.004189
H    -2.335082  -1.357774  2.573461
H    -0.241569  -3.571668  2.118590
H    -1.966663  -3.846687  2.451082
H    -0.544805  -2.228206  4.462844
H    -1.268811  -2.856454  6.492308
H    -1.005810  -5.635884  3.555454
H    -1.709325  -6.055699  5.081217
O    0.545731  2.499297  0.629884
H    1.170701  3.207258  0.900561
Hg    -0.176106  -4.936208  7.847150
