27
Energy: -569905.519056 eV PBE+vdW (tier 2 basis)
N    -0.120186  -0.109864  -0.071603
C    -0.184647  -0.148841  1.341487
C    1.228971  -0.167684  2.021419
O    1.382519  0.097611  3.199417
H    -0.050630  0.776989  -0.562257
H    0.168122  -0.931142  -0.597786
H    -0.641042  0.788750  1.690414
C    -1.019130  -1.377400  1.819448
C    -1.111950  -1.629406  3.331478
C    -1.793828  -0.487898  4.112538
N    -1.767208  -0.713814  5.559299
C    -0.875585  -0.183326  6.422842
N    -1.205163  -0.063678  7.732886
N    0.281523  0.322042  5.987568
H    -0.604474  -2.283981  1.352943
H    -2.021253  -1.240470  1.389243
H    -0.119416  -1.828285  3.757148
H    -1.692225  -2.553152  3.470728
H    -2.846874  -0.391357  3.816263
H    -1.311491  0.480539  3.924220
H    -2.512183  -1.280012  5.957738
H    -2.141279  -0.412862  7.955909
H    0.606636  0.215817  5.024051
H    0.784666  0.975901  6.576852
O    2.192906  -0.516153  1.180823
H    3.058470  -0.524695  1.643931
Hg    0.119845  -0.800620  9.342111
