27
Energy: -569906.99306 eV PBE+vdW (tier 2 basis)
N    1.454548  -0.414313  -0.235860
C    0.793020  -0.474931  1.125544
C    1.773925  -1.175517  2.069452
O    2.452286  -2.134607  1.716984
H    0.828650  0.052003  -0.903992
H    2.314880  0.148430  -0.201970
H    0.660698  0.559291  1.469935
C    -0.600170  -1.194993  1.043866
C    -0.920146  -2.348647  2.037529
C    -1.010181  -3.769100  1.446280
N    0.261644  -4.177839  0.832110
C    0.449173  -4.832087  -0.344230
N    1.512909  -4.453393  -1.082236
N    -0.410875  -5.767032  -0.747175
H    -0.732533  -1.561792  0.011276
H    -1.358406  -0.412535  1.161373
H    -1.898990  -2.148530  2.492090
H    -0.225229  -2.354745  2.889747
H    -1.787227  -3.814802  0.670643
H    -1.300051  -4.463800  2.247877
H    1.113925  -3.939237  1.336797
H    1.840268  -5.039778  -1.848114
H    -0.409741  -6.115530  -1.701215
H    -1.000456  -6.254540  -0.078402
O    1.761908  -0.642351  3.275563
H    2.382209  -1.116196  3.873067
Hg    1.820217  -2.442498  -0.854058
