27
Energy: -569906.182373 eV PBE+vdW (tier 2 basis)
N    -0.822500  0.706234  0.031293
C    -0.475581  0.358903  1.437628
C    0.956014  0.795308  1.819964
O    1.508774  1.868117  1.313570
H    -1.836241  0.738716  -0.114760
H    -0.426721  0.049566  -0.649797
H    -1.137462  0.973482  2.070006
C    -0.749715  -1.131778  1.778291
C    0.309770  -2.154417  1.305711
C    0.839702  -2.971423  2.502744
N    2.043266  -3.747609  2.214315
C    3.296255  -3.403652  2.560587
N    3.582057  -2.163947  2.972093
N    4.271781  -4.320460  2.482882
H    -1.745214  -1.381747  1.388656
H    -0.853207  -1.172566  2.871579
H    1.159968  -1.656582  0.816954
H    -0.117218  -2.835900  0.558440
H    0.069366  -3.673118  2.850490
H    1.055995  -2.307199  3.349444
H    1.925516  -4.649056  1.762753
H    4.467969  -1.965089  3.421719
H    5.247170  -4.060101  2.567229
H    4.065843  -5.309778  2.411790
O    1.596683  0.167404  2.660721
H    2.920480  -1.394456  2.895228
Hg    0.315310  2.795995  -0.254790
