27
Energy: -569905.323481 eV PBE+vdW (tier 2 basis)
N    -0.013556  0.068878  0.400318
C    0.232691  -0.059734  1.803615
C    1.740093  -0.313788  2.081272
O    2.394033  -1.200607  1.558674
H    -0.972674  -0.063377  0.086402
H    0.472160  0.810490  -0.101968
H    0.028390  0.907532  2.316694
C    -0.660180  -1.121071  2.480715
C    -0.231299  -2.598480  2.367300
C    -0.199605  -3.137880  0.920969
N    0.404837  -4.472428  0.867904
C    1.638895  -4.763842  0.403035
N    1.877783  -6.014717  -0.067073
N    2.573514  -3.820486  0.297602
H    -1.683883  -0.986884  2.097225
H    -0.711664  -0.881108  3.551884
H    -0.939721  -3.193028  2.961962
H    0.755234  -2.741563  2.828340
H    0.369894  -2.485279  0.250018
H    -1.218073  -3.219151  0.515585
H    -0.156463  -5.250736  1.208387
H    1.076108  -6.647575  0.005034
H    2.465951  -2.888093  0.714353
H    3.356465  -3.965125  -0.330260
O    2.199845  0.537270  2.989506
H    3.142716  0.348321  3.185416
Hg    3.637854  -7.173755  0.552690
