27
Energy: -569905.716353 eV PBE+vdW (tier 2 basis)
N    -0.226607  -0.277643  -0.074954
C    0.083540  -0.185961  1.341573
C    1.612380  -0.286839  1.697922
O    2.471293  0.045750  0.891997
H    0.083751  -1.211733  -0.392675
H    -2.467624  -0.751259  -0.437994
H    -0.205712  0.821323  1.688853
C    -0.836877  -1.197270  2.107461
C    -0.760711  -2.686074  1.743045
C    -1.672306  -3.160967  0.596534
N    -3.101612  -2.939709  0.843615
C    -3.915414  -2.105186  0.173075
N    -3.423388  -1.085227  -0.545122
N    -5.239471  -2.293157  0.231368
H    -1.865552  -0.825400  2.002397
H    -0.630086  -1.062421  3.181286
H    -1.026553  -3.262744  2.641255
H    0.270084  -2.996359  1.508175
H    -1.524226  -4.240154  0.452952
H    -1.427764  -2.696450  -0.367861
H    -3.554668  -3.586414  1.483662
H    -4.019764  -0.584094  -1.193483
H    -5.639218  -3.171017  0.543723
H    -5.890068  -1.574545  -0.065687
O    1.981241  -0.666811  2.906360
H    1.230296  -0.892911  3.485988
Hg    1.287197  0.858795  -1.159982
