27
Energy: -569905.94839 eV PBE+vdW (tier 2 basis)
N    0.220008  -0.021458  0.386749
C    0.367768  0.041744  1.823436
C    1.700056  -0.564335  2.422615
O    2.279968  -1.503865  1.899129
H    -2.468859  1.582507  -2.033229
H    0.869004  0.659250  -0.039216
H    0.430745  1.124688  2.058283
C    -0.807616  -0.621439  2.574810
C    -2.171379  0.101261  2.483768
C    -3.156465  -0.351813  1.401030
N    -2.801927  0.112297  0.055538
C    -3.680556  0.338429  -0.931186
N    -3.273486  0.968572  -2.047574
N    -4.954515  -0.055888  -0.824991
H    -0.534082  -0.691491  3.637047
H    -0.896878  -1.667267  2.234535
H    -2.032560  1.191518  2.424832
H    -2.687186  -0.076952  3.436994
H    -4.140091  0.068559  1.652510
H    -3.251728  -1.450810  1.416390
H    -1.801706  0.168875  -0.158833
H    -3.871500  1.019615  -2.864385
H    -5.663536  0.281322  -1.466429
H    -5.247918  -0.735718  -0.134484
O    2.146649  -0.077642  3.560464
H    1.633240  0.686233  3.889193
Hg    1.184654  -1.876851  -0.288251
