27
Energy: -569905.470186 eV PBE+vdW (tier 2 basis)
N    0.118239  0.002916  0.069311
C    0.035473  -0.061986  1.490094
C    1.458727  -0.169103  2.117259
O    1.723277  -0.880724  3.073879
H    0.643507  0.749906  -0.377717
H    -0.589748  -0.448451  -0.501307
H    -0.309697  0.920104  1.895381
C    -0.922893  -1.138415  1.998637
C    -0.551962  -2.595763  1.613168
C    -0.617259  -3.585531  2.775710
N    0.389090  -3.275030  3.795459
C    0.907752  -4.144681  4.674425
N    2.140002  -3.909427  5.198703
N    0.282252  -5.290644  4.971296
H    -1.927706  -0.892844  1.629256
H    -0.985892  -1.021833  3.089963
H    0.452008  -2.642956  1.164412
H    -1.238354  -2.969614  0.843113
H    -0.452479  -4.611604  2.410780
H    -1.618918  -3.561422  3.242702
H    0.845522  -2.350943  3.708048
H    2.539553  -3.020307  4.880885
H    0.798182  -6.055698  5.391188
H    -0.661382  -5.486003  4.658257
O    2.312920  0.641447  1.512765
H    3.195062  0.599374  1.938792
Hg    2.446812  -3.945306  7.388993
