27
Energy: -569905.052882 eV PBE+vdW (tier 2 basis)
N    -0.049985  0.217047  -0.136753
C    -0.382866  0.403275  1.339280
C    1.000022  0.588824  2.046668
O    1.993652  0.706082  1.295097
H    -0.665301  0.755175  -0.759542
H    0.944511  0.533448  -0.235748
H    -0.898343  1.371328  1.423028
C    -1.266405  -0.737797  1.858429
C    -1.946802  -0.439251  3.202884
C    -2.870935  -1.601059  3.634335
N    -3.525541  -1.375751  4.912603
C    -4.734341  -0.763256  5.089216
N    -5.460048  -0.195356  4.135771
N    -5.247364  -0.678900  6.338305
H    -0.667632  -1.660646  1.926977
H    -2.044089  -0.920993  1.097141
H    -2.539923  0.485434  3.127828
H    -1.189274  -0.269688  3.979645
H    -2.291512  -2.529888  3.731255
H    -3.637934  -1.796427  2.870748
H    -3.008928  -1.652913  5.743605
H    -5.098925  -0.381523  3.194260
H    -6.139504  -0.202885  6.437134
H    -4.883992  -1.189059  7.135870
O    0.976939  0.640141  3.309248
H    -0.092812  -0.771716  -0.419195
Hg    3.325158  1.060727  3.549495
