27
Energy: -569907.295258 eV PBE+vdW (tier 2 basis)
N    1.829407  -1.097544  0.128110
C    1.090946  -0.270448  1.151157
C    1.950320  -0.275766  2.420112
O    2.711198  -1.199897  2.685865
H    1.292658  -1.135327  -0.746180
H    2.734250  -0.665979  -0.099050
H    1.024600  0.757129  0.766006
C    -0.343993  -0.788184  1.438034
C    -0.496011  -2.073541  2.295782
C    -0.830754  -3.383169  1.529497
N    -0.503528  -4.597126  2.281144
C    0.621126  -5.344286  2.234721
N    1.750240  -4.943057  1.622869
N    0.598248  -6.545172  2.835440
H    -0.878273  -0.880071  0.478946
H    -0.842598  0.040421  1.957319
H    -1.302368  -1.902113  3.020304
H    0.393341  -2.237096  2.925309
H    -0.355132  -3.445657  0.536716
H    -1.906095  -3.422359  1.312169
H    -1.220099  -4.928429  2.920213
H    2.456478  -5.660073  1.480087
H    1.451485  -7.058680  3.024513
H    -0.273419  -7.007075  3.071638
O    1.729351  0.785613  3.170184
H    2.267302  0.748555  3.991339
Hg    2.100165  -3.064642  0.936695
