27
Energy: -569906.895358 eV PBE+vdW (tier 2 basis)
N    1.248780  -3.190173  0.782494
C    0.478806  -1.885326  0.651061
C    1.469206  -0.765661  1.000243
O    1.389452  0.290132  0.236753
H    0.622262  -4.002348  0.879610
H    1.862855  -3.361491  -0.027393
H    0.104407  -1.813820  -0.376111
C    -0.655883  -1.877413  1.707347
C    -1.472557  -0.558072  1.823714
C    -1.485082  0.127208  3.210299
N    -0.249864  0.867849  3.518569
C    -0.116188  2.208397  3.715147
N    1.010454  2.801381  3.274640
N    -1.089822  2.903344  4.310414
H    -0.202289  -2.129178  2.679076
H    -1.342259  -2.699564  1.457617
H    -2.520139  -0.787995  1.590206
H    -1.164531  0.171260  1.060346
H    -1.681247  -0.606407  4.005371
H    -2.313082  0.845977  3.224142
H    0.614947  0.331896  3.566255
H    1.252564  3.733221  3.606560
H    -1.111529  3.917610  4.272833
H    -1.745596  2.451495  4.940383
O    2.139751  -0.887528  2.027994
H    1.848248  -3.122391  1.626200
Hg    1.710765  1.863062  1.586572
