27
Energy: -569904.933724 eV PBE+vdW (tier 2 basis)
N    0.809495  0.982981  0.133613
C    0.107235  0.259299  1.227448
C    1.048734  -0.102505  2.403224
O    2.320140  -0.327587  2.230388
H    0.884722  1.989219  0.320429
H    0.346771  0.864289  -0.772529
H    -0.199807  -0.710153  0.800124
C    -1.149121  1.052009  1.709190
C    -2.399981  0.229367  2.084488
C    -2.366528  -0.742063  3.261454
N    -1.943545  -0.102875  4.580531
C    -2.697386  1.121910  5.014510
N    -2.084388  2.200559  4.749797
N    -3.902839  0.837296  5.560368
H    -1.468455  1.694310  0.877042
H    -0.868161  1.727350  2.529397
H    -2.723487  -0.373676  1.221600
H    -3.208954  0.957628  2.241621
H    -1.655085  -1.564039  3.114988
H    -3.362630  -1.175964  3.409415
H    -1.948495  -0.820995  5.319077
H    -2.569747  3.052340  5.045804
H    -4.179589  -0.095323  5.847778
H    -4.471129  1.596644  5.922887
O    0.583397  -0.249114  3.533823
H    -0.948617  0.183216  4.454978
Hg    3.037486  0.111669  0.218292
