27
Energy: -569906.527973 eV PBE+vdW (tier 2 basis)
N    0.150859  0.699576  0.317287
C    -0.209208  0.140495  1.682675
C    1.147470  -0.042240  2.400242
O    1.016724  -0.264714  3.688699
H    0.077952  1.725944  0.292543
H    -0.423578  0.324740  -0.447547
H    -0.858620  0.861723  2.190496
C    -0.917843  -1.240202  1.612380
C    -0.043004  -2.454123  1.195189
C    -0.343503  -3.752544  1.992878
N    0.797369  -4.686972  1.981848
C    1.836892  -4.685540  2.837232
N    1.782755  -4.184480  4.135848
N    3.004357  -5.214237  2.483101
H    -1.801445  -1.149537  0.964108
H    -1.321768  -1.392146  2.623391
H    1.024785  -2.216753  1.325743
H    -0.155655  -2.661834  0.122264
H    -1.206540  -4.289329  1.581614
H    -0.603018  -3.525415  3.034466
H    0.889875  -5.260890  1.144542
H    0.886160  -4.427568  4.572973
H    3.686459  -5.404257  3.213011
H    3.211627  -5.538785  1.542458
O    2.164494  -0.114903  1.721088
H    1.161125  0.448822  0.185158
Hg    1.783753  -2.119582  4.157495
