27
Energy: -569906.031958 eV PBE+vdW (tier 2 basis)
N    0.232479  0.258171  -0.568150
C    0.259833  0.244014  0.918902
C    1.689700  0.354934  1.492048
O    2.652993  1.005961  0.878922
H    0.438068  -0.661490  -0.970976
H    -0.667871  0.571270  -0.939037
H    -0.243731  1.170262  1.243887
C    -0.465757  -0.970755  1.553926
C    -1.972210  -1.016882  1.283091
C    -2.705855  -2.133829  2.042776
N    -2.779442  -1.915568  3.494832
C    -2.296248  -2.708902  4.466697
N    -1.313866  -3.586280  4.225477
N    -2.795696  -2.608760  5.705457
H    -0.280221  -0.914101  2.634074
H    0.020877  -1.894574  1.198773
H    -2.178375  -1.182497  0.214024
H    -2.436075  -0.050294  1.538617
H    -2.245066  -3.112920  1.857612
H    -3.736167  -2.208549  1.667722
H    -3.411694  -1.181963  3.802717
H    -1.088357  -4.313561  4.894354
H    -2.316238  -3.013283  6.501897
H    -3.690808  -2.168392  5.884121
O    1.966292  -0.112450  2.589144
H    -0.755875  -3.545115  3.383648
Hg    2.150308  1.693893  -1.100698
