27
Energy: -569905.741576 eV PBE+vdW (tier 2 basis)
N    0.416004  -2.118091  0.534986
C    0.731346  -0.668223  0.862844
C    2.067638  -0.779113  1.629294
O    2.569190  -1.867728  1.840601
H    1.240029  -2.638928  0.957173
H    -0.451256  -2.449521  0.973019
H    0.918827  -0.146961  -0.086599
C    -0.380244  0.033640  1.650958
C    -1.670701  0.260900  0.850660
C    -2.727632  1.060489  1.619899
N    -2.358202  2.444142  1.778544
C    -3.064987  3.231677  2.574642
N    -2.252608  4.140747  3.204471
N    -4.360501  3.123856  2.908534
H    0.029745  1.004411  1.963704
H    -0.581026  -0.527813  2.579063
H    -2.135092  -0.695700  0.562062
H    -1.443494  0.797485  -0.082643
H    -2.980330  0.585911  2.588250
H    -3.670905  1.032049  1.030132
H    0.365472  -2.308541  -0.472108
H    -1.369292  4.175622  2.676544
H    -4.753175  3.646076  3.682772
H    -4.957635  2.428136  2.479157
O    2.548690  0.402381  1.983027
H    3.407974  0.280901  2.441211
Hg    -2.866318  6.266164  3.313287
