27
Energy: -569905.120574 eV PBE+vdW (tier 2 basis)
N    -1.568720  0.370526  1.932333
C    -0.729719  -0.823887  2.332147
C    0.568174  -0.328379  3.019169
O    1.390502  -1.228495  3.353363
H    -2.517443  0.002571  1.674628
H    -1.653626  1.038081  2.710898
H    -1.334661  -1.327871  3.109629
C    -0.459545  -1.744823  1.141218
C    -1.681903  -2.099426  0.266497
C    -2.934337  -2.599418  0.997380
N    -3.856762  -1.506682  1.420327
C    -4.353217  -1.495183  2.730664
N    -3.465839  -1.605179  3.688445
N    -5.680940  -1.296745  2.887646
H    -0.020046  -2.659410  1.563340
H    0.317348  -1.307547  0.494955
H    -1.344618  -2.892893  -0.414728
H    -1.952762  -1.263396  -0.398484
H    -2.677728  -3.182277  1.890187
H    -3.496987  -3.267246  0.329627
H    -4.552098  -1.283557  0.708590
H    -3.887356  -1.674549  4.619587
H    -6.067613  -1.100768  3.805476
H    -6.346740  -1.402163  2.128353
O    0.692806  0.907360  3.201501
H    -1.169596  0.879628  1.132014
Hg    2.869625  0.320666  4.276744
