27
Energy: -569905.368758 eV PBE+vdW (tier 2 basis)
N    0.036019  0.941883  0.516449
C    0.330719  -0.044386  1.490586
C    1.240144  -1.187888  0.856649
O    0.928963  -2.372525  0.959862
H    0.773962  1.538441  0.152679
H    -0.784485  0.843796  -0.075173
H    0.999186  0.403563  2.249532
C    -0.929609  -0.630765  2.145303
C    -0.671609  -1.325730  3.500311
C    -1.668873  -2.445899  3.840696
N    -1.521308  -3.613133  2.951569
C    -0.531684  -4.509714  2.993486
N    -0.382282  -5.500281  2.044063
N    0.379215  -4.508520  3.974276
H    -1.403246  -1.316346  1.427621
H    -1.631890  0.199493  2.294833
H    -0.727426  -0.582949  4.308168
H    0.351817  -1.729522  3.539061
H    -2.706807  -2.104619  3.744081
H    -1.556788  -2.773895  4.884281
H    -2.122973  -3.652072  2.134529
H    -1.225261  -5.604871  1.466869
H    0.325293  -3.875521  4.764605
H    0.948713  -5.341934  4.088613
O    2.299672  -0.698126  0.254301
H    2.860846  -1.399881  -0.138587
Hg    1.154065  -4.871983  0.594556
