27
Energy: -569906.350992 eV PBE+vdW (tier 2 basis)
N    0.626809  -0.123522  0.103364
C    0.181822  0.253923  1.504387
C    1.397580  -0.019035  2.414753
O    1.526630  0.826226  3.405130
H    1.178958  0.626027  -0.338830
H    -0.161596  -0.344331  -0.521006
H    -0.130450  1.304103  1.498595
C    -0.947519  -0.714495  1.955890
C    -1.449737  -0.480437  3.400729
C    -1.941757  -1.720341  4.177412
N    -0.987334  -2.836995  4.360025
C    0.147340  -2.867642  5.084352
N    0.496410  -1.923693  6.022283
N    1.013909  -3.870978  4.911549
H    -0.551413  -1.736780  1.852310
H    -1.792991  -0.613983  1.258749
H    -2.300118  0.215601  3.384883
H    -0.688308  0.048813  3.989214
H    -2.802763  -2.168045  3.666634
H    -2.319200  -1.391470  5.156110
H    -1.265098  -3.716989  3.931571
H    -0.318017  -1.430637  6.398862
H    1.713809  -4.036161  5.628885
H    0.921725  -4.562036  4.174381
O    2.015204  -1.066720  2.234564
H    1.242053  -0.956337  0.197284
Hg    1.653984  -0.458483  5.079599
