27
Energy: -569905.577266 eV PBE+vdW (tier 2 basis)
N    0.064693  1.078487  0.792639
C    0.019821  0.133505  1.978054
C    1.500055  -0.155095  2.285601
O    2.384538  0.275601  1.567660
H    -0.406788  1.969191  0.981422
H    1.088629  1.243434  0.627315
H    -0.410427  0.683038  2.825499
C    -0.836270  -1.113746  1.703899
C    -0.254857  -2.209787  0.796800
C    0.213888  -1.818068  -0.630556
N    -0.617903  -0.842431  -1.284770
C    -1.332545  -1.089050  -2.382426
N    -2.098419  -2.216862  -2.381852
N    -1.484245  -0.169736  -3.342540
H    -1.814376  -0.774902  1.330484
H    -1.039528  -1.572264  2.681228
H    -1.034711  -2.981146  0.697253
H    0.595459  -2.704444  1.286937
H    0.381343  -2.725750  -1.232567
H    1.206891  -1.331001  -0.541498
H    -0.348793  0.630994  -0.061594
H    -1.800689  -2.899800  -1.678990
H    -0.923001  0.673793  -3.321715
H    -2.286877  -0.176291  -3.961716
O    1.642659  -0.898970  3.371974
H    2.595880  -1.036453  3.560279
Hg    -2.446694  -3.441809  -4.189890
