27
Energy: -569905.431952 eV PBE+vdW (tier 2 basis)
N    2.875448  0.393035  0.855210
C    1.719436  0.617126  1.640266
C    2.044725  0.865900  3.153821
O    1.272571  1.449374  3.893688
H    3.369032  1.170092  0.425762
H    3.401871  -0.472580  0.946209
H    1.246814  1.548844  1.300414
C    0.725283  -0.581937  1.517904
C    -0.517868  -0.563209  2.414860
C    -1.456487  0.637232  2.183187
N    -2.598817  0.639215  3.095670
C    -2.684427  1.291863  4.274782
N    -1.587347  1.759245  4.900535
N    -3.884708  1.411987  4.866683
H    1.278696  -1.510327  1.723158
H    0.437664  -0.621147  0.457690
H    -0.237796  -0.605374  3.477308
H    -1.072481  -1.491933  2.215025
H    -1.865355  0.613586  1.162966
H    -0.936042  1.596365  2.300075
H    -3.352826  -0.012698  2.881750
H    -0.691245  1.616087  4.416138
H    -4.742686  1.167081  4.384312
H    -3.942749  1.535044  5.871486
O    3.212532  0.350874  3.511211
H    3.374713  0.504198  4.466926
Hg    -1.534652  3.795929  5.712953
