27
Energy: -569905.345139 eV PBE+vdW (tier 2 basis)
N    0.348388  0.699720  0.484879
C    0.007266  0.230227  1.773892
C    1.208528  0.358851  2.798169
O    1.417716  -0.433013  3.695087
H    0.420319  1.696055  0.298720
H    0.764267  0.086630  -0.208781
H    -0.704120  0.955689  2.215076
C    -0.672767  -1.151102  1.799896
C    0.003868  -2.358484  1.132710
C    1.276294  -2.931884  1.791797
N    1.126003  -3.236734  3.211352
C    0.957597  -4.440030  3.790590
N    0.499668  -5.506610  3.101891
N    1.172065  -4.562547  5.111784
H    -1.642292  -1.009345  1.302917
H    -0.905719  -1.374737  2.851133
H    0.249188  -2.151364  0.079531
H    -0.753375  -3.156813  1.093333
H    2.113215  -2.222934  1.719309
H    1.595420  -3.836739  1.257843
H    1.127638  -2.405551  3.813628
H    0.338409  -5.330209  2.108607
H    1.594812  -3.813958  5.649380
H    0.704420  -5.295351  5.633685
O    1.891830  1.473403  2.578844
H    2.581046  1.592100  3.267691
Hg    1.482005  -7.483813  3.266903
