27
Energy: -569905.465384 eV PBE+vdW (tier 2 basis)
N    -0.040443  -1.100209  -0.435028
C    -0.197360  -0.207772  0.684693
C    1.215144  0.276626  1.148588
O    1.372829  0.892664  2.202148
H    -0.496897  -0.829147  -1.303243
H    -0.135384  -2.097439  -0.254091
H    -0.688508  0.713155  0.330335
C    -1.002664  -0.747233  1.888671
C    -0.341720  -1.874980  2.718988
C    -0.212604  -1.580923  4.229315
N    0.643478  -0.418182  4.471387
C    1.807892  -0.399049  5.152928
N    2.825637  0.312964  4.612781
N    1.985306  -1.128887  6.257229
H    -1.980085  -1.074096  1.512588
H    -1.221569  0.129185  2.519761
H    0.663204  -2.122326  2.341443
H    -0.929488  -2.798442  2.639730
H    0.200627  -2.450724  4.754659
H    -1.206488  -1.370642  4.658184
H    0.561027  0.330630  3.766104
H    2.580834  0.771868  3.715342
H    1.203165  -1.553729  6.743708
H    2.917823  -1.355039  6.585393
O    2.215495  -0.016281  0.358743
H    1.822852  -0.544362  -0.393024
Hg    3.988242  1.723476  5.781284
