27
Energy: -569905.236373 eV PBE+vdW (tier 2 basis)
N    -0.480099  0.548352  -0.203250
C    -0.100483  0.163515  1.111729
C    1.430442  0.318872  1.224396
O    2.071443  0.924973  0.396010
H    -1.462284  0.683110  -0.427373
H    0.207526  1.065344  -0.755574
H    -0.454318  0.923289  1.852627
C    -0.704438  -1.183752  1.564890
C    -0.202324  -2.391143  0.756021
C    -0.891117  -3.681769  1.214345
N    -0.410023  -4.843686  0.460030
C    -0.262112  -6.100047  0.931084
N    0.604338  -6.955197  0.345066
N    -0.902205  -6.485354  2.042676
H    -1.800784  -1.106402  1.489938
H    -0.474321  -1.305947  2.631906
H    0.885366  -2.504424  0.877233
H    -0.399372  -2.222637  -0.314835
H    -1.984690  -3.598252  1.087028
H    -0.694048  -3.864685  2.281388
H    -0.128110  -4.682477  -0.504329
H    1.121320  -6.545695  -0.437534
H    -1.665427  -5.952182  2.441550
H    -0.579676  -7.298117  2.555585
O    1.913791  -0.239610  2.339236
H    2.868185  -0.025092  2.408939
Hg    -0.027677  -8.990118  -0.317084
