27
Energy: -569905.224192 eV PBE+vdW (tier 2 basis)
N    0.031707  0.786147  0.756247
C    0.439547  -0.070658  1.916058
C    1.787703  -0.724191  1.554116
O    2.174982  -0.803562  0.392738
H    -0.914001  1.163147  0.887196
H    0.668405  1.583614  0.639250
H    0.619222  0.601169  2.771940
C    -0.681287  -1.070628  2.342513
C    -1.508987  -1.851596  1.289856
C    -1.017216  -3.208053  0.754068
N    0.297877  -3.238606  0.052838
C    0.457610  -3.443327  -1.311860
N    1.194511  -4.332805  -1.802689
N    -0.202576  -2.349259  -2.137788
H    -1.393473  -0.477097  2.932701
H    -0.237580  -1.776439  3.060255
H    -1.830608  -1.193923  0.459471
H    -2.466462  -2.078656  1.784175
H    -1.801133  -3.630132  0.107527
H    -0.928041  -3.907909  1.594754
H    0.966162  -3.846175  0.527382
H    1.414770  -4.312030  -2.801524
H    -1.218949  -2.491220  -2.230363
H    0.183377  -2.351979  -3.089816
O    2.526995  -1.225666  2.523446
H    2.196129  -1.036244  3.423701
Hg    0.164229  -0.550898  -0.989325
