27
Energy: -569906.323625 eV PBE+vdW (tier 2 basis)
N    -0.237342  -0.214524  0.805910
C    0.355538  0.187166  2.089004
C    1.868846  -0.066652  1.973309
O    2.334177  -1.061231  1.370814
H    0.066788  0.393623  0.039719
H    -1.256116  -0.152924  0.836261
H    0.189684  1.257612  2.300495
C    -0.175733  -0.661422  3.289105
C    -1.698702  -0.910941  3.379138
C    -2.297857  -2.120927  2.623670
N    -1.766211  -3.426413  3.047757
C    -0.894522  -4.201690  2.381186
N    -0.587274  -4.044068  1.037873
N    -0.266420  -5.199675  3.003344
H    0.142892  -0.142430  4.203118
H    0.352722  -1.631188  3.323056
H    -2.265009  -0.017683  3.071436
H    -1.938121  -1.031414  4.445560
H    -2.177719  -2.043300  1.537908
H    -3.380826  -2.137419  2.804108
H    -2.078622  -3.754535  3.961193
H    -1.401762  -3.720203  0.507847
H    0.192883  -5.906254  2.435110
H    -0.343847  -5.372649  4.001530
O    2.731860  0.730932  2.535400
H    2.327212  1.525905  2.939569
Hg    0.833586  -2.539075  0.825313
