27
Energy: -569906.092685 eV PBE+vdW (tier 2 basis)
N    0.481164  -0.387433  -0.256011
C    0.058539  -0.412193  1.197677
C    1.427671  -0.146996  1.944056
O    1.474631  0.034469  3.244229
H    0.281055  -1.259079  -0.760055
H    0.091455  0.397124  -0.790857
H    -0.561151  0.481034  1.359406
C    -0.712895  -1.704636  1.572099
C    -2.255920  -1.607233  1.625451
C    -2.898497  -0.526740  2.533954
N    -3.548745  -0.922804  3.809999
C    -2.950674  -0.969639  5.018763
N    -1.696697  -1.527636  5.219856
N    -3.578517  -0.538148  6.104258
H    -0.312368  -2.103657  2.516123
H    -0.447819  -2.496756  0.854689
H    -2.655347  -2.595518  1.891794
H    -2.622427  -1.420627  0.606060
H    -3.704415  -0.043721  1.970789
H    -2.186610  0.284103  2.765037
H    -4.555378  -0.763250  3.820166
H    -1.657446  -2.411732  4.698624
H    -3.213615  -0.803536  7.016442
H    -4.446068  -0.007883  6.075338
O    2.422787  -0.045423  1.242853
H    1.546282  -0.254544  -0.152048
Hg    -0.066695  -0.557037  4.437793
