27
Energy: -569906.262812 eV PBE+vdW (tier 2 basis)
N    1.131080  -3.909917  0.487611
C    0.587350  -2.657511  -0.103773
C    1.709745  -1.657974  -0.486023
O    2.861868  -2.069499  -0.948240
H    1.398921  -3.797452  1.471628
H    0.465615  -4.686469  0.427927
H    0.116804  -2.951494  -1.056882
C    -0.477306  -1.991057  0.806342
C    -1.467486  -1.087761  0.020003
C    -1.818340  0.227738  0.714173
N    -0.676502  1.148044  0.694634
C    -0.726933  2.450758  1.002101
N    0.335609  3.229188  0.748748
N    -1.823891  2.981246  1.556251
H    0.038685  -1.425060  1.595622
H    -1.043000  -2.785176  1.310445
H    -2.404704  -1.635286  -0.140229
H    -1.076900  -0.855025  -0.980595
H    -2.136997  0.039861  1.754224
H    -2.666552  0.686734  0.182413
H    0.205235  0.772255  0.338074
H    1.110247  2.894350  0.188835
H    -1.910253  3.980155  1.701292
H    -2.586210  2.403968  1.886398
O    1.520345  -0.445307  -0.414258
H    0.381182  4.187413  1.073799
Hg    3.145760  -4.220962  -0.774640
