27
Energy: -569906.543984 eV PBE+vdW (tier 2 basis)
N    1.000581  -0.373956  0.215790
C    0.114820  -0.273580  1.442418
C    0.912629  -0.897388  2.595624
O    0.460712  -0.542536  3.774748
H    0.474340  -0.534207  -0.652738
H    1.572583  0.472366  0.085276
H    -0.090482  0.786337  1.630754
C    -1.238630  -1.026324  1.297540
C    -1.384032  -2.430264  0.652326
C    -0.540817  -3.675085  1.033593
N    -0.229612  -3.897792  2.451066
C    -0.924447  -4.518756  3.439905
N    -0.578744  -4.215906  4.708112
N    -1.914537  -5.370245  3.161703
H    -1.909430  -0.367712  0.726709
H    -1.659522  -1.031736  2.312077
H    -1.279145  -2.349917  -0.441932
H    -2.446991  -2.671516  0.797208
H    0.438647  -3.641929  0.541719
H    -1.043847  -4.552291  0.603254
H    0.733788  -3.669881  2.688169
H    -0.893179  -4.804897  5.476236
H    -2.537662  -5.705050  3.889573
H    -1.966233  -5.842456  2.264698
O    1.768856  -1.744020  2.336621
H    1.651571  -1.168420  0.400090
Hg    0.175979  -2.309092  4.831835
