27
Energy: -569905.363298 eV PBE+vdW (tier 2 basis)
N    0.303531  0.067569  0.415922
C    0.266257  -0.254566  1.802410
C    1.643563  -0.768984  2.292108
O    1.786173  -1.520607  3.243696
H    1.040557  0.667051  0.054287
H    -0.554294  0.041641  -0.127380
H    0.168866  0.681695  2.409068
C    -0.924067  -1.145717  2.184962
C    -0.991010  -2.544847  1.533399
C    -0.390087  -3.713390  2.332195
N    -1.107648  -3.997410  3.576842
C    -0.643338  -3.934808  4.842922
N    0.391220  -3.138496  5.173294
N    -1.290695  -4.614096  5.804992
H    -1.828484  -0.585250  1.908039
H    -0.965250  -1.211637  3.280716
H    -0.496684  -2.543650  0.550677
H    -2.043850  -2.781809  1.322466
H    0.668459  -3.565738  2.566246
H    -0.458215  -4.624145  1.715837
H    -2.085014  -4.271566  3.473913
H    0.823051  -2.595474  4.404358
H    -1.986659  -5.318212  5.584050
H    -1.241932  -4.301448  6.768468
O    2.640221  -0.240905  1.595960
H    3.505454  -0.522372  1.961474
Hg    2.011122  -3.909172  6.421336
