27
Energy: -569904.784732 eV PBE+vdW (tier 2 basis)
N    1.052808  0.659894  0.924960
C    0.363932  0.414860  2.252571
C    1.431948  -0.129963  3.246800
O    1.059381  -0.053201  4.464644
H    1.246739  -0.277384  0.457184
H    0.456308  1.228945  0.309434
H    0.026620  1.390251  2.625207
C    -0.837393  -0.530775  2.105468
C    -0.580729  -2.025429  1.828162
C    -0.163781  -2.436217  0.412150
N    1.236825  -2.066104  0.101114
C    1.826521  -2.328851  -1.149950
N    3.111461  -2.226492  -1.389578
N    1.030018  -2.630156  -2.196003
H    -1.510274  -0.108613  1.340121
H    -1.389802  -0.449073  3.051624
H    -1.528072  -2.544273  2.029133
H    0.128064  -2.443168  2.561978
H    -0.822864  -1.949585  -0.323957
H    -0.296075  -3.525780  0.305530
H    1.884384  -2.309274  0.854496
H    3.669404  -2.014672  -0.554519
H    1.488453  -2.758075  -3.096046
H    0.050150  -2.877285  -2.118740
O    2.498854  -0.577276  2.795880
H    1.950160  1.148819  1.046657
Hg    2.901617  -0.848919  5.531679
