27
Energy: -569905.311709 eV PBE+vdW (tier 2 basis)
N    0.466941  -0.368428  -0.034917
C    0.185085  -0.270769  1.346240
C    1.510260  0.071595  2.172268
O    1.718581  -0.379021  3.270554
H    0.737820  0.463886  -0.553624
H    0.801583  -1.248344  -0.421627
H    -0.424451  0.637925  1.513905
C    -0.518235  -1.521783  1.906901
C    -1.228734  -1.270999  3.248101
C    -1.748325  -2.536430  3.945619
N    -2.948148  -3.088673  3.306415
C    -3.920794  -3.808935  3.913427
N    -3.726999  -4.402885  5.099396
N    -5.091022  -3.984153  3.272720
H    0.219106  -2.331544  2.016569
H    -1.236124  -1.838566  1.135390
H    -2.054058  -0.553944  3.122682
H    -0.520812  -0.819377  3.956076
H    -2.011392  -2.285736  4.982586
H    -0.952008  -3.298644  3.974802
H    -2.990957  -3.050873  2.290251
H    -2.794420  -4.283907  5.496608
H    -5.670670  -4.786685  3.490505
H    -5.328323  -3.454724  2.442162
O    2.279670  0.915228  1.493211
H    3.069129  1.153030  2.026739
Hg    -5.214664  -4.307525  6.752663
