27
Energy: -569904.918451 eV PBE+vdW (tier 2 basis)
N    1.242394  -0.202634  0.506090
C    0.504722  -0.041036  1.736227
C    1.500270  -0.456689  2.900216
O    1.170439  -0.414365  4.090153
H    1.417508  0.652120  -0.018601
H    0.920679  -0.949515  -0.107813
H    0.314470  1.027430  1.924865
C    -0.819695  -0.833605  1.782653
C    -1.761092  -0.465733  2.937842
C    -3.112885  -1.184838  2.798279
N    -4.017159  -0.808939  3.859981
C    -5.379441  -0.927082  3.882307
N    -5.917747  -0.403278  4.978076
N    -6.037325  -1.521444  2.869586
H    -0.604674  -1.914358  1.787473
H    -1.322658  -0.618216  0.827230
H    -1.938205  0.620537  2.942952
H    -1.310760  -0.727549  3.906006
H    -2.962122  -2.282845  2.810402
H    -3.588096  -0.942395  1.830829
H    -3.654216  -0.402435  4.722621
H    -6.944515  -0.468528  4.996076
H    -7.050848  -1.563981  2.886064
H    -5.574428  -2.012012  2.112116
O    2.681362  -0.810133  2.495603
H    2.623731  -0.716141  1.480457
Hg    2.932249  -0.856661  5.796349
