27
Energy: -569905.695765 eV PBE+vdW (tier 2 basis)
N    0.139171  0.687593  1.003903
C    0.638879  -0.437610  1.830734
C    2.115315  -0.575058  1.434399
O    2.857566  0.437117  1.548857
H    0.230130  0.488711  0.003734
H    -0.853434  0.851857  1.173286
H    0.783555  -0.045537  2.853684
C    -0.353986  -1.587668  2.037855
C    -1.224455  -1.314066  3.303339
C    -1.860888  0.079924  3.537537
N    -0.866628  1.116101  3.911962
C    -0.873271  2.439615  3.608734
N    0.316054  3.083430  3.542254
N    -2.031049  3.063598  3.365505
H    0.151989  -2.550344  2.210464
H    -0.976770  -1.714005  1.141237
H    -0.631166  -1.567778  4.197110
H    -2.054996  -2.032519  3.302963
H    -2.603861  -0.029355  4.341110
H    -2.406749  0.439769  2.652121
H    -0.152337  0.841515  4.582821
H    0.294791  4.102392  3.576477
H    -2.050974  3.990012  2.948854
H    -2.902703  2.726913  3.766764
O    2.672423  -1.672935  1.020570
H    2.043395  -2.417851  0.928612
Hg    1.748779  2.128700  2.377417
