27
Energy: -569906.92221 eV PBE+vdW (tier 2 basis)
N    -1.068465  1.513671  1.117914
C    -0.822410  0.461671  2.184794
C    0.691987  0.187743  2.132692
O    1.126119  -0.456415  3.196435
H    -1.964163  1.398614  0.627366
H    -1.041568  2.466410  1.506943
H    -1.142156  0.865894  3.151588
C    -1.563977  -0.872346  1.899135
C    -1.196074  -1.611000  0.587049
C    -1.251457  -3.156064  0.654606
N    -0.144278  -3.735836  1.433438
C    1.039103  -4.229264  0.970587
N    2.150537  -3.988109  1.692630
N    1.078224  -4.923761  -0.168722
H    -2.646992  -0.684924  1.942124
H    -1.348498  -1.489869  2.783119
H    -0.191306  -1.329753  0.235466
H    -1.885299  -1.307496  -0.214470
H    -1.210052  -3.549700  -0.367330
H    -2.195391  -3.507892  1.090854
H    -0.234560  -3.722977  2.445190
H    2.986895  -4.544234  1.520695
H    1.957919  -5.124502  -0.634383
H    0.253400  -5.404392  -0.515677
O    1.306567  0.438212  1.103614
H    -0.267321  1.422467  0.450650
Hg    2.107200  -2.148168  2.580901
