27
Energy: -569905.420761 eV PBE+vdW (tier 2 basis)
N    -1.853791  -1.034452  -0.467371
C    -1.253077  -0.476928  0.685107
C    0.311082  -0.630260  0.692303
O    1.021236  -0.003906  1.456550
H    -1.903155  -0.506227  -1.334093
H    -1.969044  -2.041321  -0.554653
H    -1.408794  0.612604  0.659972
C    -1.869293  -1.091923  1.976811
C    -1.289898  -0.648417  3.329660
C    -1.393106  0.866581  3.573906
N    -0.803716  1.298527  4.843726
C    0.504215  1.490055  5.075290
N    0.844124  2.036266  6.285263
N    1.416711  1.249800  4.128222
H    -1.788270  -2.187791  1.916109
H    -2.942622  -0.859452  1.928833
H    -0.248779  -0.982505  3.430571
H    -1.855825  -1.174367  4.111826
H    -2.443825  1.180100  3.597970
H    -0.915032  1.439437  2.762614
H    -1.423925  1.682148  5.551087
H    1.845033  2.260187  6.325404
H    2.405496  1.331294  4.337841
H    1.173540  0.982170  3.169399
O    0.738446  -1.503904  -0.207807
H    1.717654  -1.570885  -0.176160
Hg    0.578923  0.891448  8.174784
