27
Energy: -569905.439133 eV PBE+vdW (tier 2 basis)
N    -0.268457  0.732641  0.671438
C    -0.181485  -0.255752  1.809983
C    1.330446  -0.396459  2.076937
O    2.119375  0.375762  1.571614
H    0.573463  1.343422  0.747408
H    -0.207504  0.261854  -0.241230
H    -0.605260  0.266485  2.681763
C    -0.948146  -1.549221  1.528164
C    -2.409526  -1.388464  1.067730
C    -3.309718  -0.458740  1.919709
N    -3.179011  0.914850  1.464536
C    -4.194405  1.777234  1.471862
N    -4.933082  1.860896  2.615527
N    -4.353050  2.692563  0.505385
H    -0.911802  -2.137653  2.455358
H    -0.405830  -2.143914  0.777175
H    -2.870536  -2.385946  1.089070
H    -2.470310  -1.068787  0.016571
H    -2.978466  -0.538641  2.972513
H    -4.354439  -0.807582  1.878222
H    -1.170388  1.241610  0.732035
H    -4.829331  1.039703  3.218062
H    -3.787497  2.639417  -0.333122
H    -4.835125  3.567183  0.679899
O    1.597059  -1.393089  2.910771
H    2.562119  -1.425320  3.085999
Hg    -7.100781  2.239988  2.630676
