27
Energy: -569905.314093 eV PBE+vdW (tier 2 basis)
N    0.283998  0.486118  -0.301099
C    0.748006  0.511943  1.031232
C    2.306631  0.196056  1.154106
O    2.821911  0.018648  2.229479
H    0.510475  1.250580  -0.932384
H    0.124738  -0.409460  -0.758177
H    0.700801  1.552369  1.399085
C    -0.027532  -0.446314  1.957478
C    -1.457626  0.016446  2.291714
C    -1.583495  1.048996  3.419048
N    -1.377570  0.451895  4.747774
C    -1.990938  0.828786  5.890163
N    -2.137015  -0.041557  6.910663
N    -2.546793  2.044258  5.987875
H    0.584202  -0.588717  2.860679
H    -0.072824  -1.434452  1.475349
H    -2.073472  -0.857767  2.547713
H    -1.926893  0.450748  1.397830
H    -2.593391  1.482227  3.403398
H    -0.867221  1.879016  3.284651
H    -0.773342  -0.363629  4.807531
H    -1.760702  -0.973624  6.721510
H    -2.370638  2.776430  5.311039
H    -3.250592  2.221814  6.695392
O    2.905165  0.194507  -0.031957
H    3.867282  0.031759  0.082805
Hg    -1.559745  0.472315  9.006143
