27
Energy: -569904.978098 eV PBE+vdW (tier 2 basis)
N    0.508729  -0.437595  0.528472
C    0.486666  -0.047443  1.967222
C    1.795897  0.726838  2.186318
O    2.012105  1.696357  1.440678
H    1.356473  -0.948405  0.263531
H    -0.294705  -1.015290  0.271032
H    -0.222736  0.786279  2.049198
C    -0.132235  -1.074296  2.918953
C    -1.647057  -1.158358  2.589301
C    -2.630973  -0.094881  3.133379
N    -2.374156  1.371077  3.047842
C    -1.997807  2.209372  2.056660
N    -1.909701  1.882860  0.747471
N    -1.643756  3.466138  2.396805
H    0.009407  -0.755594  3.963425
H    0.323633  -2.068809  2.812387
H    -2.038173  -2.098866  3.002640
H    -1.790562  -1.276853  1.503276
H    -2.745631  -0.258519  4.212170
H    -3.616847  -0.303746  2.690635
H    -2.703132  1.853528  3.882536
H    -2.392523  1.023830  0.483145
H    -1.744331  4.201174  1.703381
H    -1.584959  3.762547  3.365492
O    2.654927  0.446153  3.133288
H    2.424950  -0.356379  3.642748
Hg    0.120408  1.882700  -0.066424
