27
Energy: -569904.777795 eV PBE+vdW (tier 2 basis)
N    0.464405  -0.117950  0.330196
C    0.222254  -0.544310  1.728676
C    1.400794  -1.387207  2.310198
O    2.623095  -1.157021  1.952157
H    0.241217  -0.850723  -0.352060
H    -0.062178  0.723637  0.079264
H    0.205953  0.379609  2.330605
C    -1.130351  -1.290525  1.876790
C    -1.686394  -1.219370  3.310445
C    -2.732049  -2.304359  3.638923
N    -2.355340  -3.697046  3.359056
C    -1.438901  -4.505392  3.969973
N    -1.242336  -5.755299  3.944276
N    -0.410024  -3.784944  4.795575
H    -0.992049  -2.336919  1.567382
H    -1.857886  -0.842631  1.185677
H    -2.187431  -0.254732  3.477633
H    -0.863163  -1.243079  4.034841
H    -3.643047  -2.131555  3.053698
H    -3.028705  -2.192355  4.695777
H    -3.023589  -4.218014  2.797072
H    -1.899421  -6.310796  3.389474
H    0.185349  -4.537019  5.177091
H    -0.812913  -3.259554  5.583658
O    1.175401  -2.250102  3.165670
H    0.186699  -3.141859  4.205125
Hg    2.839966  0.232569  0.253604
