27
Energy: -569906.226558 eV PBE+vdW (tier 2 basis)
N    -0.575436  -0.824909  -0.624782
C    -0.083561  -0.678869  0.762598
C    1.062573  0.212131  0.894817
O    1.209577  0.925496  -0.194507
H    0.124503  -0.319419  -1.211900
H    -0.663059  -1.815911  -0.904976
H    1.576691  0.050283  3.746091
C    -0.929874  -1.152727  1.863776
C    -1.804252  -0.060341  2.588778
C    -1.096027  0.702406  3.711360
N    -0.773875  -0.143654  4.863588
C    0.436347  -0.285415  5.447784
N    1.558271  -0.049619  4.770158
N    0.489975  -0.697559  6.722839
H    -0.275427  -1.612842  2.623973
H    -1.609506  -1.934335  1.494008
H    -2.685333  -0.579000  2.992479
H    -2.186076  0.670501  1.862050
H    -1.768071  1.506013  4.051139
H    -0.179908  1.192109  3.364694
H    -1.564441  -0.483707  5.404087
H    2.442083  0.010362  5.262173
H    1.357986  -1.019604  7.135046
H    -0.314697  -0.640590  7.335836
O    1.686496  0.346074  1.960636
H    -1.491444  -0.375784  -0.796001
Hg    3.467802  1.509363  -0.388821
