27
Energy: -569904.692673 eV PBE+vdW (tier 2 basis)
N    -0.825347  -0.376639  0.192094
C    -0.144765  0.606230  1.038722
C    1.264502  0.973610  0.487890
O    1.924513  0.253122  -0.248218
H    -1.355471  -1.069366  0.723749
H    -1.451787  0.056666  -0.490305
H    -0.731994  1.540456  1.014507
C    -0.025429  0.154192  2.518246
C    0.927127  -1.018227  2.805087
C    0.974672  -1.335981  4.306181
N    1.912223  -2.401456  4.587733
C    2.130238  -3.022241  5.786744
N    3.050941  -3.974822  5.715397
N    1.440889  -2.653441  6.884372
H    -1.044455  -0.076459  2.866122
H    0.290869  1.029898  3.104541
H    1.944753  -0.771753  2.463929
H    0.614969  -1.924220  2.262059
H    -0.026735  -1.631862  4.669431
H    1.263858  -0.430112  4.873817
H    2.539868  -2.745163  3.862197
H    3.210572  -4.451328  6.612482
H    1.602671  -3.135605  7.762160
H    0.788663  -1.877357  6.907098
O    1.795084  2.109512  0.907394
H    1.177956  2.664013  1.423576
Hg    0.755968  -1.672840  -1.296128
