27
Energy: -569904.756298 eV PBE+vdW (tier 2 basis)
N    -1.064561  0.167102  1.050809
C    0.019733  -0.160911  2.058456
C    1.289589  -0.563613  1.245570
O    1.244501  -0.488029  0.003849
H    -0.614839  0.323642  0.130341
H    -1.745590  -0.647060  0.963274
H    0.289141  0.776495  2.565693
C    -0.427968  -1.198805  3.088466
C    -0.804265  -2.603364  2.564082
C    -2.290570  -2.855850  2.296161
N    -2.826502  -2.134783  1.108054
C    -4.120197  -1.571812  1.147830
N    -4.616318  -0.873894  2.134756
N    -4.861840  -1.652315  0.018198
H    -1.258829  -0.765084  3.668573
H    0.404316  -1.286994  3.798854
H    -0.507820  -3.333326  3.329506
H    -0.208103  -2.869321  1.675479
H    -2.886949  -2.566099  3.170798
H    -2.458691  -3.932721  2.152677
H    -2.645330  -2.652836  0.245513
H    -4.051271  -0.893625  2.989071
H    -5.754282  -1.162379  0.016448
H    -4.691566  -2.325553  -0.722008
O    2.285994  -0.900094  1.963306
H    -1.593579  1.005237  1.320896
Hg    3.803645  -1.165319  0.276262
