27
Energy: -569906.930415 eV PBE+vdW (tier 2 basis)
N    0.913892  -1.273378  1.045870
C    -0.092671  -0.150036  1.234066
C    0.414162  0.673255  2.421639
O    0.034933  1.924005  2.392431
H    1.702927  -0.980500  0.451927
H    1.297318  -1.494301  1.987297
H    -0.126431  0.434296  0.308048
C    -1.511913  -0.688296  1.565380
C    -1.686791  -1.649946  2.778132
C    -2.548205  -1.170782  3.964016
N    -1.849465  -0.165976  4.780297
C    -2.407146  0.723720  5.650329
N    -1.690847  1.825174  5.946690
N    -3.631617  0.518203  6.138902
H    -1.884333  -1.180671  0.655534
H    -2.141006  0.206578  1.675958
H    -0.719240  -1.987705  3.182127
H    -2.175445  -2.563685  2.416203
H    -2.800696  -2.055363  4.569679
H    -3.489799  -0.730220  3.606679
H    -0.846006  -0.307716  4.890166
H    -1.962110  2.408565  6.735598
H    -4.139325  1.256915  6.616019
H    -4.036150  -0.412371  6.175410
O    0.983529  0.084716  3.344122
H    0.500371  -2.116827  0.626164
Hg    -0.504186  2.351464  4.356786
