27
Energy: -569905.206548 eV PBE+vdW (tier 2 basis)
N    -1.112085  -0.340218  -1.014696
C    -1.007748  -0.048230  0.362334
C    0.373825  0.640372  0.727626
O    0.917263  0.488951  1.801352
H    -0.888961  -1.260471  -1.380308
H    -1.206343  0.404790  -1.699882
H    -1.697954  0.791662  0.584591
C    -1.372405  -1.208550  1.302274
C    -0.664011  -2.567808  1.151947
C    0.832032  -2.659993  1.488482
N    1.167880  -2.210829  2.845209
C    1.777915  -2.936361  3.791295
N    1.804293  -4.294361  3.706054
N    2.439077  -2.304929  4.779946
H    -2.447927  -1.382196  1.160979
H    -1.263799  -0.831448  2.329095
H    -0.786963  -2.966550  0.132500
H    -1.220046  -3.272821  1.789744
H    1.434000  -2.057281  0.792399
H    1.177541  -3.693704  1.377713
H    1.132705  -1.197826  2.976086
H    2.417336  -4.709277  4.414937
H    2.741744  -1.338519  4.691655
H    2.701779  -2.788549  5.632414
O    0.785586  1.429687  -0.253656
H    1.592878  1.919265  0.015438
Hg    -0.055431  -5.490105  3.882157
