27
Energy: -569905.428551 eV PBE+vdW (tier 2 basis)
N    0.404032  0.287728  0.450569
C    -0.279467  0.199543  1.691179
C    0.732631  -0.104982  2.866425
O    0.531269  -0.936227  3.733761
H    0.998740  1.085460  0.242241
H    0.546806  -0.541627  -0.119960
H    -0.659643  1.207963  1.944061
C    -1.424303  -0.823300  1.665049
C    -2.465987  -0.618700  2.793532
C    -2.934375  -1.917969  3.456919
N    -1.862450  -2.469293  4.294916
C    -1.987133  -3.374139  5.278205
N    -3.056427  -4.198037  5.347006
N    -0.990204  -3.522156  6.169907
H    -0.992534  -1.835449  1.694450
H    -1.923266  -0.732485  0.692253
H    -3.354669  -0.123402  2.382479
H    -2.087954  0.053597  3.577547
H    -3.224494  -2.648434  2.683641
H    -3.814938  -1.722830  4.087310
H    -0.919290  -2.098769  4.101733
H    -3.763569  -4.027007  4.629363
H    -0.864136  -4.413741  6.636358
H    -0.194348  -2.893680  6.166078
O    1.802738  0.669321  2.782188
H    2.421259  0.487801  3.521896
Hg    -4.130269  -4.524624  7.240035
