27
Energy: -569905.274701 eV PBE+vdW (tier 2 basis)
N    0.485118  -0.335142  0.925300
C    -0.159474  -0.229450  2.185707
C    0.855292  -0.657315  3.332106
O    0.616399  -1.622932  4.055767
H    1.235655  0.305905  0.683029
H    0.480988  -1.218645  0.423381
H    -0.346107  0.839666  2.391442
C    -1.456109  -1.049191  2.268733
C    -2.447513  -0.556329  3.350428
C    -3.272446  -1.647886  4.051750
N    -2.501145  -2.304071  5.124678
C    -1.860846  -3.473550  5.116629
N    -1.100373  -3.901114  6.194984
N    -1.909576  -4.322712  4.084887
H    -1.182754  -2.101792  2.421581
H    -1.941298  -0.987139  1.286350
H    -3.157321  0.145876  2.892914
H    -1.927717  0.026642  4.127688
H    -3.648367  -2.403741  3.349818
H    -4.158184  -1.206503  4.526492
H    -2.323916  -1.720846  5.939068
H    -1.360585  -3.403881  7.055896
H    -2.496540  -4.161418  3.274154
H    -1.594732  -5.274738  4.247899
O    1.917696  0.114116  3.365707
H    2.560828  -0.167094  4.050719
Hg    0.988847  -3.285288  5.901045
