27
Energy: -569905.414043 eV PBE+vdW (tier 2 basis)
N    -0.695538  -0.710934  0.774237
C    0.112931  -0.242856  1.973951
C    1.613488  -0.457900  1.723938
O    2.431921  -0.434077  2.599412
H    -1.645073  -0.318261  0.796603
H    -0.234583  -0.411237  -0.096362
H    -0.025785  0.848680  2.020213
C    -0.380729  -0.858503  3.285616
C    -0.127939  -2.354393  3.532133
C    -1.047057  -3.378257  2.843074
N    -0.855750  -3.493827  1.407854
C    -0.901393  -4.710975  0.855831
N    0.110848  -4.905357  -0.036104
N    -1.696672  -5.719255  1.228017
H    -1.447102  -0.612851  3.415913
H    0.141948  -0.301221  4.075018
H    -0.261001  -2.525728  4.609493
H    0.919608  -2.615899  3.322423
H    -2.103595  -3.055904  2.989202
H    -0.950452  -4.353981  3.345122
H    -0.762435  -1.769400  0.784619
H    0.528899  -4.005921  -0.300840
H    -2.440397  -5.575513  1.901933
H    -1.496924  -6.679579  0.970543
O    1.873096  -0.624550  0.395664
H    2.845803  -0.634279  0.274900
Hg    -0.184593  -6.010930  -1.930101
