27
Energy: -569907.009562 eV PBE+vdW (tier 2 basis)
N    -0.244516  0.824935  0.436784
C    -0.146162  0.530882  1.911477
C    1.354871  0.402624  2.234821
O    2.143129  0.028876  1.375807
H    -1.229007  0.894286  0.154366
H    0.191276  1.730108  0.219349
H    -0.581867  1.391313  2.442411
C    -0.917041  -0.754692  2.326656
C    -0.287260  -2.130443  1.975670
C    -0.895927  -2.884255  0.760037
N    0.005239  -3.888080  0.190426
C    0.847560  -3.770319  -0.860025
N    1.160331  -2.591180  -1.425609
N    1.390262  -4.894933  -1.353783
H    -1.947940  -0.675966  1.945929
H    -1.024317  -0.691253  3.417783
H    -0.395197  -2.781449  2.852579
H    0.802560  -2.044506  1.843692
H    -1.231952  -2.215333  -0.048958
H    -1.808856  -3.410697  1.067821
H    -0.005594  -4.799064  0.639585
H    1.639078  -2.639659  -2.321001
H    2.185726  -4.866889  -1.981543
H    0.993852  -5.808432  -1.160469
O    1.768544  0.631950  3.466582
H    1.080083  0.988174  4.061589
Hg    0.751154  -0.771353  -0.619010
