27
Energy: -569904.630799 eV PBE+vdW (tier 2 basis)
N    -0.027953  1.798179  1.239542
C    0.174009  0.554642  2.023147
C    1.400306  -0.265601  1.528687
O    2.440290  0.313892  1.025235
H    -0.542628  1.635878  0.367219
H    -0.523057  2.519815  1.770971
H    0.440963  0.879250  3.042521
C    -1.121676  -0.303962  2.077371
C    -1.275884  -1.218843  3.326845
C    -1.419452  -2.718337  3.052802
N    -0.069690  -3.401851  2.853969
C    -0.089508  -4.648246  1.981550
N    0.437303  -4.694356  0.830710
N    -0.754283  -5.677097  2.550629
H    -1.201204  -0.888383  1.149302
H    -1.968326  0.393651  2.071676
H    -2.191899  -0.924093  3.855279
H    -0.466497  -1.047614  4.053166
H    -2.002085  -2.913029  2.143817
H    -1.921727  -3.218092  3.888721
H    0.355165  -3.615391  3.768085
H    0.941257  -3.860968  0.522340
H    -0.790705  -6.552730  2.033811
H    -1.124858  -5.670670  3.493090
O    1.406576  -1.495549  1.669515
H    0.566169  -2.700945  2.382962
Hg    2.198286  2.469108  0.624013
