27
Energy: -569904.892558 eV PBE+vdW (tier 2 basis)
N    -0.653137  0.806569  0.782945
C    -0.519198  0.194072  2.082547
C    0.882190  0.592772  2.659158
O    1.268964  0.257449  3.776645
H    -1.355603  1.536112  0.683076
H    -0.622697  0.187867  -0.026104
H    -1.250471  0.644635  2.772728
C    -0.709701  -1.346518  2.027645
C    -1.012268  -2.119098  3.330054
C    0.148049  -2.522063  4.252401
N    0.269003  -1.603192  5.424426
C    1.411156  -1.831777  6.281528
N    1.146567  -2.404860  7.427628
N    2.600429  -1.447944  5.830800
H    0.144905  -1.805964  1.507061
H    -1.580664  -1.501445  1.376168
H    -1.474596  -3.061683  3.002714
H    -1.792719  -1.603823  3.911513
H    1.101290  -2.531574  3.698144
H    0.005713  -3.538028  4.641108
H    0.301170  -0.633492  5.046693
H    1.880207  -2.612859  8.108872
H    2.669995  -0.926316  4.957940
H    3.443211  -1.551076  6.389468
O    1.631397  1.318597  1.874223
H    1.079903  1.482016  1.053097
Hg    -1.066685  -2.287384  7.511710
