27
Energy: -569904.592626 eV PBE+vdW (tier 2 basis)
N    1.316747  0.200848  0.399950
C    0.451603  -0.138761  1.554046
C    0.956596  -1.376905  2.348234
O    2.215097  -1.639219  2.446920
H    1.129293  -0.367728  -0.431811
H    1.243542  1.187393  0.135628
H    0.562740  0.694826  2.267786
C    -1.052903  -0.235398  1.201607
C    -1.514910  -1.444684  0.345148
C    -2.679384  -2.224151  0.964233
N    -2.212430  -3.058782  2.141968
C    -3.223968  -3.275083  3.272642
N    -4.478679  -3.330972  3.130491
N    -2.586845  -3.440497  4.451351
H    -1.331099  0.701682  0.701780
H    -1.589152  -0.209573  2.160107
H    -0.688176  -2.139848  0.123982
H    -1.867709  -1.095225  -0.633777
H    -3.142634  -2.897800  0.235145
H    -3.451153  -1.540394  1.339544
H    -1.931011  -3.991854  1.809251
H    -4.874114  -3.212347  2.197820
H    -3.156257  -3.648958  5.268372
H    -1.585328  -3.340338  4.576382
O    0.139058  -2.083408  2.961584
H    -1.324338  -2.611999  2.526790
Hg    3.528140  -0.370086  1.189461
