27
Energy: -569906.531561 eV PBE+vdW (tier 2 basis)
N    -2.283300  0.387890  1.286490
C    -1.505657  -0.564380  2.091512
C    -0.570149  0.287405  2.963452
O    -0.058794  1.347878  2.538158
H    -2.843344  -0.090996  0.579565
H    -2.933210  0.929516  1.864184
H    -2.154762  -1.177785  2.737700
C    -0.587890  -1.481131  1.209022
C    -1.147967  -1.958135  -0.152288
C    -0.112164  -1.896408  -1.299515
N    0.428752  -0.542231  -1.497425
C    -0.124136  0.494518  -2.183792
N    -0.043949  1.719474  -1.634473
N    -0.716597  0.277871  -3.361698
H    -0.298978  -2.345700  1.819924
H    0.351465  -0.930292  1.035440
H    -2.019824  -1.373085  -0.479100
H    -1.508450  -2.991958  -0.071644
H    -0.576232  -2.259991  -2.224129
H    0.742072  -2.555548  -1.101328
H    1.257330  -0.295001  -0.965321
H    -0.191800  2.536047  -2.226715
H    -0.463555  -0.526865  -3.928452
H    -1.283952  0.992269  -3.807356
O    -0.233500  -0.087011  4.164913
H    -0.702557  -0.889951  4.472088
Hg    -0.364850  1.733598  0.407786
