27
Energy: -569905.351946 eV PBE+vdW (tier 2 basis)
N    -1.088308  0.460617  0.444716
C    -0.220075  0.188475  1.527728
C    0.684794  1.468258  1.844446
O    1.868842  1.386759  2.053017
H    -1.834364  1.142845  0.560188
H    -0.757476  0.337028  -0.509757
H    -0.828315  0.103040  2.448139
C    0.640193  -1.068050  1.308190
C    1.256125  -1.611403  2.609011
C    2.305422  -2.712200  2.419831
N    1.735614  -4.012176  2.034899
C    2.241793  -5.218609  2.370846
N    1.453148  -6.312540  2.408620
N    3.518344  -5.324606  2.764698
H    1.434640  -0.837955  0.582205
H    -0.020195  -1.815371  0.842637
H    0.470528  -1.966953  3.293314
H    1.781438  -0.800047  3.130162
H    2.841616  -2.858760  3.368057
H    3.046720  -2.402102  1.662717
H    0.863306  -4.015867  1.513996
H    0.474387  -6.128057  2.176198
H    3.817977  -6.136847  3.291763
H    4.187573  -4.574469  2.642121
O    -0.060700  2.568067  1.856399
H    0.493483  3.347570  2.078366
Hg    2.016190  -8.215151  1.372934
