27
Energy: -569905.24243 eV PBE+vdW (tier 2 basis)
N    -0.025672  0.272103  0.040687
C    -0.214715  -0.086226  1.402438
C    1.124940  -0.033797  2.187490
O    1.339870  -0.701369  3.184113
H    -0.635614  -0.105476  -0.678028
H    0.503036  1.105301  -0.204521
H    -0.785841  0.718717  1.930692
C    -1.017478  -1.388576  1.569287
C    -0.396274  -2.666399  0.964281
C    0.523320  -3.520768  1.854518
N    -0.166085  -4.286918  2.905500
C    -0.232042  -4.003717  4.214560
N    -0.692081  -5.000743  5.041898
N    0.225808  -2.852070  4.711708
H    -1.988776  -1.206695  1.087376
H    -1.251629  -1.513884  2.634381
H    0.193757  -2.407480  0.071050
H    -1.207191  -3.311709  0.599620
H    1.321106  -2.927920  2.317466
H    1.023035  -4.266982  1.223827
H    -0.404329  -5.248402  2.677392
H    -0.617423  -4.726204  6.028340
H    0.698372  -2.139429  4.138631
H    0.129361  -2.650112  5.700861
O    1.957439  0.864774  1.683311
H    2.766791  0.933041  2.234197
Hg    -2.788324  -5.714561  4.955253
