27
Energy: -569905.352669 eV PBE+vdW (tier 2 basis)
N    0.952269  -0.032828  -0.191310
C    1.024361  -0.270836  1.224603
C    2.427081  -0.895646  1.550254
O    2.698106  -1.404982  2.635599
H    0.477958  -0.730234  -0.762781
H    0.773379  0.919383  -0.501481
H    1.045562  0.707426  1.732236
C    -0.130978  -1.131186  1.805570
C    -0.455982  -0.853843  3.297829
C    -0.355709  -2.065652  4.246263
N    1.036768  -2.460618  4.439868
C    1.621014  -2.948982  5.543589
N    0.904066  -3.665121  6.443848
N    2.949939  -2.832176  5.695461
H    0.081180  -2.195812  1.625951
H    -1.023017  -0.900473  1.210370
H    -1.489745  -0.493526  3.375943
H    0.172166  -0.046356  3.700690
H    -0.923188  -2.909256  3.819325
H    -0.802479  -1.813236  5.218669
H    1.680227  -2.205152  3.652722
H    -0.099464  -3.698126  6.249127
H    3.493132  -2.294359  5.025906
H    3.457648  -3.525773  6.234687
O    3.319626  -0.827267  0.599059
H    2.861719  -0.419962  -0.187632
Hg    1.121396  -3.336038  8.589398
