27
Energy: -569904.719876 eV PBE+vdW (tier 2 basis)
N    1.149000  0.856083  1.113953
C    0.532776  -0.410821  1.558553
C    0.305114  -1.421810  0.404483
O    0.104544  -1.046832  -0.803640
H    0.898284  1.654378  1.704730
H    2.170781  0.803198  1.056456
H    1.250861  -0.914725  2.228915
C    -0.804532  -0.138798  2.296349
C    -1.259624  -1.130352  3.392118
C    -1.951858  -2.441803  2.996577
N    -0.988832  -3.604403  2.818808
C    -1.674305  -4.881030  2.340376
N    -2.295264  -5.683679  3.098260
N    -1.580368  -5.013516  1.001365
H    -1.611751  0.003479  1.560139
H    -0.692533  0.828809  2.808679
H    -2.003245  -0.582735  3.988436
H    -0.434883  -1.327134  4.096204
H    -2.504560  -2.356412  2.052557
H    -2.662597  -2.746074  3.773181
H    -0.520715  -3.817017  3.708947
H    -2.302236  -5.500717  4.102997
H    -2.009231  -5.835360  0.581940
H    -0.981265  -4.423267  0.428457
O    0.254467  -2.628715  0.710642
H    -0.263414  -3.290770  2.111871
Hg    0.413346  1.145098  -1.158198
