27
Energy: -569906.227305 eV PBE+vdW (tier 2 basis)
N    1.518348  -1.077744  1.067180
C    0.217522  -0.360062  1.328475
C    0.420111  0.613327  2.499906
O    1.265408  0.421881  3.362067
H    1.394574  -1.790741  0.338902
H    2.231048  -0.422322  0.724497
H    -0.011961  0.224135  0.422643
C    -0.989920  -1.322548  1.559883
C    -0.926920  -2.532385  2.528006
C    -1.288214  -2.451656  4.032710
N    -0.505479  -1.644491  4.996856
C    0.769988  -1.794056  5.392455
N    1.660632  -2.733875  4.871401
N    1.291334  -0.976200  6.300333
H    -1.229903  -1.735299  0.569131
H    -1.853012  -0.689394  1.814653
H    -0.014393  -3.129225  2.367910
H    -1.705624  -3.215154  2.152124
H    -1.337073  -3.487406  4.401101
H    -2.308720  -2.059538  4.119430
H    -1.068121  -0.996460  5.544581
H    1.204920  -3.635606  4.695043
H    2.225279  -1.179450  6.645269
H    0.797386  -0.182853  6.698875
O    -0.395365  1.652342  2.595761
H    -0.973079  1.782896  1.818471
Hg    2.100383  -1.963475  2.985464
