27
Energy: -569904.758906 eV PBE+vdW (tier 2 basis)
N    1.620870  1.049059  1.334812
C    0.999200  0.912504  2.631067
C    2.139050  0.407970  3.610027
O    1.925556  0.201242  4.810567
H    1.312413  0.387719  0.623829
H    1.663976  1.995366  0.962007
H    0.735307  1.905389  3.028712
C    -0.240514  -0.010512  2.639913
C    -1.064139  0.015382  3.937104
C    -2.327430  -0.853761  3.885976
N    -3.371338  -0.296732  3.036939
C    -4.417612  -0.986100  2.490594
N    -5.260139  -0.457977  1.610793
N    -4.604653  -2.289774  2.780293
H    0.069970  -1.042211  2.408915
H    -0.863147  0.322975  1.795588
H    -1.342590  1.049678  4.196810
H    -0.464315  -0.349393  4.781199
H    -2.719181  -0.972544  4.913754
H    -2.090779  -1.866144  3.517170
H    -3.413666  0.714467  2.934747
H    -5.127681  0.552400  1.472532
H    -5.361247  -2.761576  2.290689
H    -4.171544  -2.765213  3.563279
O    3.302573  0.264021  3.054852
H    3.137444  0.528326  2.082708
Hg    3.849969  -0.330134  6.277184
