27
Energy: -569905.442253 eV PBE+vdW (tier 2 basis)
N    -1.547959  -1.138797  -0.241097
C    -1.031458  -0.162617  0.646891
C    0.398745  0.319352  0.161009
O    1.382863  0.363228  0.877023
H    -1.899281  -0.874118  -1.157229
H    -1.354157  -2.125934  -0.097535
H    -1.646408  0.751772  0.544361
C    -0.993994  -0.631005  2.106185
C    -0.812078  0.533895  3.108779
C    0.155644  0.247214  4.258538
N    1.521535  0.088425  3.745770
C    2.608167  -0.310681  4.429148
N    2.645103  -0.267369  5.776468
N    3.711860  -0.680418  3.752454
H    -0.194820  -1.379503  2.219633
H    -1.938539  -1.149998  2.309725
H    -1.780348  0.793541  3.554573
H    -0.471636  1.449528  2.602138
H    -0.132200  -0.660552  4.813486
H    0.113776  1.099874  4.954772
H    1.648230  0.337881  2.753901
H    1.768290  0.023036  6.212792
H    3.704110  -0.723572  2.739261
H    4.620769  -0.580314  4.191419
O    0.363552  0.667817  -1.114489
H    1.243877  0.982210  -1.413603
Hg    3.443306  -1.931206  6.983647
