27
Energy: -569905.269084 eV PBE+vdW (tier 2 basis)
N    0.419974  -0.736025  0.468852
C    -0.252111  -0.555972  1.782178
C    0.684381  0.387535  2.557815
O    1.007667  1.469511  2.019728
H    1.369744  -1.105608  0.565744
H    -0.092809  -1.378357  -0.135207
H    -1.099502  0.130261  1.616863
C    -0.922968  -1.797500  2.375567
C    -2.004274  -2.348413  1.402935
C    -3.250552  -1.485272  1.066090
N    -3.003201  -0.136198  0.491035
C    -2.439708  0.194136  -0.681499
N    -1.982861  1.478275  -0.979845
N    -2.203736  -0.728827  -1.616771
H    -1.393263  -1.535024  3.336768
H    -0.198108  -2.602968  2.569661
H    -2.414222  -3.266288  1.848303
H    -1.521913  -2.699864  0.477171
H    -3.844254  -1.304496  1.970077
H    -3.903133  -2.056457  0.388725
H    -3.227651  0.650009  1.094884
H    -2.585845  2.206354  -0.579608
H    -2.605927  -1.661112  -1.574029
H    -1.892731  -0.397121  -2.527132
O    1.139638  0.139009  3.753796
H    0.875076  -0.737333  4.099921
Hg    -0.102396  1.688588  0.035499
