27
Energy: -569905.765184 eV PBE+vdW (tier 2 basis)
N    -0.044579  -0.617545  -0.401927
C    -0.363362  -0.118033  0.985603
C    0.842815  0.706435  1.444756
O    1.930002  0.653814  0.894038
H    -0.869686  -1.052284  -0.832748
H    0.275531  0.144348  -1.013876
H    -1.240017  0.538980  0.910786
C    -0.687402  -1.283659  1.944805
C    0.468630  -2.158730  2.451466
C    1.111557  -3.175349  1.455905
N    1.803261  -2.466243  0.409405
C    3.120199  -2.544087  0.181631
N    3.592982  -3.790065  -0.080654
N    3.850714  -1.448699  -0.020264
H    -1.475573  -1.903525  1.487543
H    -1.160425  -0.821258  2.822823
H    0.072544  -2.780702  3.267633
H    1.266003  -1.544796  2.894465
H    0.300001  -3.778407  1.015443
H    1.772369  -3.841927  2.031085
H    0.747917  -1.346129  -0.312857
H    2.956024  -4.535872  0.213873
H    4.731897  -1.473544  -0.520491
H    3.429925  -0.543458  0.190624
O    0.535842  1.439520  2.505366
H    1.313547  1.963858  2.792919
Hg    5.613972  -4.521583  0.437972
