27
Energy: -569905.826921 eV PBE+vdW (tier 2 basis)
N    -1.099612  -0.558306  0.726190
C    -0.370692  0.079897  1.800294
C    0.994336  0.784193  1.420150
O    1.369128  0.918399  0.265683
H    -0.670842  -1.487271  0.576150
H    -5.311810  -0.377267  1.270554
H    -0.986398  0.923089  2.165467
C    -0.166388  -0.968219  2.941316
C    -1.405864  -1.309519  3.786784
C    -2.425880  -2.319626  3.239599
N    -3.387688  -1.742119  2.293491
C    -4.676249  -2.105373  2.188154
N    -5.513068  -1.351957  1.455918
N    -5.141240  -3.198932  2.802437
H    0.595597  -0.581769  3.633856
H    0.285330  -1.878173  2.512677
H    -1.926488  -0.390930  4.097538
H    -1.019776  -1.754845  4.715402
H    -2.997761  -2.697786  4.096834
H    -1.908649  -3.181460  2.785393
H    -3.009342  -1.125688  1.570486
H    -6.437127  -1.686467  1.207472
H    -6.137607  -3.359740  2.900952
H    -4.524933  -3.935826  3.122393
O    1.711902  1.309249  2.393129
H    1.325977  1.184580  3.280852
Hg    -0.518128  0.289964  -1.199672
