27
Energy: -569905.394691 eV PBE+vdW (tier 2 basis)
N    0.821513  1.004718  0.252047
C    0.308006  0.868056  1.559706
C    1.372964  0.284920  2.572618
O    1.221263  0.390215  3.767463
H    1.004311  0.180347  -0.315716
H    1.336236  1.840355  -0.012161
H    0.087648  1.869648  1.954652
C    -0.965699  -0.029465  1.565492
C    -1.609276  -0.366148  2.921384
C    -2.122012  0.857625  3.701689
N    -2.718504  0.480271  4.988135
C    -4.023435  0.537788  5.334404
N    -4.373809  0.717941  6.621836
N    -4.980611  0.500730  4.395897
H    -0.724463  -0.981432  1.068042
H    -1.687202  0.481987  0.912111
H    -0.909658  -0.924178  3.558108
H    -2.446055  -1.051236  2.716729
H    -2.865414  1.426426  3.127253
H    -1.292710  1.541473  3.932804
H    -2.066201  0.256415  5.736415
H    -3.583969  0.831494  7.261656
H    -4.785728  0.238902  3.437992
H    -5.904913  0.861180  4.603141
O    2.380714  -0.319022  1.950914
H    3.015204  -0.672542  2.611875
Hg    -5.880374  -0.566848  7.651979
