27
Energy: -569904.839763 eV PBE+vdW (tier 2 basis)
N    -0.418066  -1.349965  -0.386287
C    -0.565492  -0.873272  1.048048
C    0.732366  -1.159495  1.837604
O    0.766044  -1.192049  3.035066
H    -0.517528  -2.372823  -0.438731
H    0.529636  -1.127664  -0.726413
H    -0.624013  0.224343  0.984897
C    -1.812004  -1.462193  1.732599
C    -2.996167  -0.524090  2.004057
C    -3.863408  -0.065408  0.818085
N    -3.395637  1.128969  0.099940
C    -2.775276  1.191599  -1.089808
N    -2.261080  2.318703  -1.578442
N    -2.514077  0.044750  -1.832957
H    -1.474714  -1.836717  2.708564
H    -2.154228  -2.351822  1.178117
H    -2.664142  0.353918  2.579862
H    -3.673229  -1.065953  2.679492
H    -4.860161  0.199053  1.197861
H    -4.002129  -0.877024  0.090821
H    -3.517384  2.011999  0.592826
H    -2.356624  3.219627  -1.107504
H    -1.149545  -0.901220  -1.011897
H    -3.322326  -0.580197  -1.927110
O    1.783648  -1.299882  0.993566
H    2.601429  -1.431959  1.518188
Hg    -2.015275  1.465461  -3.614100
