27
Energy: -569905.461148 eV PBE+vdW (tier 2 basis)
N    0.406285  0.340375  -0.207019
C    0.409160  -0.159568  1.116243
C    1.792750  0.048896  1.838099
O    2.017536  -0.351623  2.964681
H    0.813064  -0.200893  -0.965859
H    0.285464  1.332991  -0.387870
H    -0.285410  0.452771  1.717445
C    -0.039309  -1.645161  1.158263
C    -0.420707  -2.180682  2.557787
C    0.619250  -3.174919  3.115483
N    0.343086  -3.605350  4.487260
C    0.534851  -2.867634  5.598798
N    -0.044429  -3.235260  6.774109
N    1.228252  -1.725982  5.550694
H    0.734754  -2.273385  0.690716
H    -0.915572  -1.704211  0.501684
H    -1.393218  -2.686347  2.494506
H    -0.554319  -1.351233  3.266212
H    1.631088  -2.747414  3.079161
H    0.634359  -4.087440  2.506994
H    -0.065094  -4.527112  4.615176
H    -0.584459  -4.102502  6.692608
H    1.158384  -1.084800  6.332759
H    1.611384  -1.352733  4.681563
O    2.652605  0.721071  1.084833
H    3.493023  0.857491  1.574256
Hg    1.217492  -3.567205  8.579541
