27
Energy: -569905.306531 eV PBE+vdW (tier 2 basis)
N    0.643776  0.287724  0.287813
C    -0.304183  0.102070  1.312488
C    0.290436  0.478672  2.750528
O    -0.070615  -0.084574  3.752308
H    0.913486  1.226983  0.005933
H    1.298997  -0.447899  0.040722
H    -1.081167  0.883378  1.207769
C    -0.988870  -1.271462  1.338243
C    -0.082680  -2.496614  1.536332
C    -0.930894  -3.767823  1.700835
N    -0.091166  -4.954936  1.875721
C    -0.335216  -5.971201  2.723028
N    -1.549408  -6.074919  3.307265
N    0.665464  -6.820384  3.028872
H    -1.552681  -1.362740  0.398726
H    -1.723715  -1.227373  2.155150
H    0.541089  -2.373611  2.433583
H    0.591181  -2.626266  0.673391
H    -1.582805  -3.901820  0.820177
H    -1.572111  -3.685213  2.587388
H    0.757905  -5.010786  1.319104
H    -1.573125  -6.805905  4.024529
H    1.641999  -6.573037  2.898747
H    0.477422  -7.713317  3.471623
O    1.150858  1.486350  2.656373
H    1.448623  1.757761  3.551998
Hg    -3.391138  -6.477073  2.075340
