27
Energy: -569904.724221 eV PBE+vdW (tier 2 basis)
N    0.046582  -0.302160  -0.298196
C    0.175647  0.075943  1.075407
C    1.718510  0.069714  1.454353
O    2.075529  0.271443  2.615305
H    -0.226737  -1.259223  -0.506315
H    -0.309842  0.381240  -0.959746
H    -0.094706  1.138954  1.189115
C    -0.598242  -0.774887  2.104720
C    -2.101683  -0.498910  2.209062
C    -2.976628  -1.037390  1.054648
N    -4.399288  -0.817355  1.258451
C    -5.232561  -1.638660  1.966423
N    -4.845983  -2.701208  2.661665
N    -6.550371  -1.350041  2.027571
H    -0.149642  -0.556416  3.085708
H    -0.402043  -1.843750  1.916255
H    -2.282119  0.579228  2.338834
H    -2.455643  -0.976391  3.137873
H    -2.800307  -2.112822  0.903043
H    -2.722178  -0.540649  0.106791
H    -4.770226  0.081930  0.958891
H    -3.878692  -2.985881  2.471843
H    -7.130905  -1.955044  2.602274
H    -7.008229  -0.664262  1.436458
O    2.553059  -0.127193  0.473686
H    1.996410  -0.274302  -0.342773
Hg    4.476743  0.432288  3.239639
