27
Energy: -569906.614144 eV PBE+vdW (tier 2 basis)
N    -0.208938  1.946326  0.783768
C    -0.038235  0.816026  1.776141
C    1.434582  0.380868  1.745490
O    2.097397  0.462518  0.722154
H    -1.192977  2.239958  0.754425
H    0.337679  2.770817  1.065106
H    -0.282925  1.226419  2.767430
C    -1.020718  -0.354955  1.427922
C    -0.552730  -1.830631  1.380641
C    0.438692  -2.324639  0.295721
N    0.192397  -1.695830  -1.009942
C    1.135801  -1.372067  -1.943716
N    0.974267  -0.187324  -2.568010
N    2.169992  -2.177790  -2.166507
H    -1.498867  -0.101150  0.466757
H    -1.840530  -0.313922  2.156690
H    -1.483040  -2.408590  1.282006
H    -0.136952  -2.139080  2.350327
H    0.342638  -3.419006  0.242241
H    1.478534  -2.102403  0.564672
H    -0.769806  -1.538129  -1.297967
H    1.513802  0.015509  -3.409366
H    2.993598  -1.862606  -2.671642
H    2.126868  -3.163561  -1.922262
O    1.953599  -0.159478  2.836341
H    1.377004  -0.102585  3.623127
Hg    0.452700  1.185429  -1.129923
