27
Energy: -569905.472106 eV PBE+vdW (tier 2 basis)
N    -1.459242  1.334383  2.398238
C    -0.372997  0.667596  3.023975
C    0.988026  1.406092  2.709780
O    1.994061  0.838972  2.320742
H    -1.740310  1.090568  1.452385
H    -1.796066  2.224507  2.754807
H    -0.481624  0.793703  4.117995
C    -0.294782  -0.819576  2.654013
C    0.573217  -1.650473  3.632564
C    1.489258  -2.671792  2.959378
N    2.585701  -2.003950  2.245781
C    3.748433  -2.575211  1.895862
N    4.849640  -1.802439  1.708107
N    3.870951  -3.907273  1.830784
H    0.070196  -0.907518  1.619284
H    -1.318815  -1.212664  2.653091
H    -0.080782  -2.202798  4.318980
H    1.191683  -1.004415  4.273265
H    0.918473  -3.295359  2.248036
H    1.921257  -3.346149  3.715421
H    2.488555  -0.985314  2.127896
H    4.654636  -0.801865  1.810222
H    3.072565  -4.525438  1.913797
H    4.790158  -4.333326  1.866683
O    0.880922  2.705906  2.937920
H    1.730862  3.160708  2.756700
Hg    6.062753  -1.997608  -0.133326
