27
Energy: -569905.395257 eV PBE+vdW (tier 2 basis)
N    0.193616  1.179957  0.694771
C    -0.003923  0.286247  1.768844
C    1.332643  -0.517789  2.106162
O    1.311800  -1.644663  2.534601
H    0.083376  0.859447  -0.264518
H    0.766627  2.011077  0.818283
H    -0.145726  0.880455  2.691875
C    -1.189827  -0.669942  1.536624
C    -1.757883  -1.273557  2.832369
C    -2.920341  -2.233528  2.532767
N    -3.505975  -2.730063  3.778157
C    -4.095263  -3.931054  3.988901
N    -4.524936  -4.699675  2.979558
N    -4.312725  -4.324897  5.257222
H    -0.880469  -1.468807  0.846164
H    -1.973417  -0.087263  1.031818
H    -2.120522  -0.458839  3.479892
H    -0.979172  -1.816506  3.383442
H    -2.561589  -3.095418  1.951483
H    -3.693073  -1.719363  1.937545
H    -3.611725  -2.044675  4.524880
H    -4.385185  -4.312052  2.046113
H    -5.063235  -4.975068  5.461250
H    -3.906301  -3.830799  6.043196
O    2.405552  0.234389  1.885401
H    3.216646  -0.255751  2.142396
Hg    -4.178728  -6.899725  2.911405
