27
Energy: -569905.419762 eV PBE+vdW (tier 2 basis)
N    0.165381  0.733985  1.058146
C    0.284332  -0.358390  1.961237
C    1.725410  -0.982963  1.841745
O    1.939584  -2.150957  1.579402
H    0.651527  1.608685  1.237228
H    -0.161109  0.584262  0.107383
H    0.268242  0.050568  2.989383
C    -0.845922  -1.384130  1.774800
C    -1.207982  -2.194493  3.034137
C    -0.467369  -3.521538  3.288770
N    -0.866487  -4.581242  2.353747
C    -0.050253  -5.368235  1.610989
N    -0.414279  -6.648262  1.380427
N    1.131820  -4.918060  1.189037
H    -0.624065  -2.040399  0.919932
H    -1.735552  -0.803850  1.494927
H    -2.288451  -2.400648  3.011825
H    -1.061302  -1.582766  3.938041
H    -0.728034  -3.867714  4.300960
H    0.620352  -3.414619  3.249774
H    -1.836349  -4.885343  2.418918
H    -1.308532  -6.919110  1.796630
H    1.854016  -5.579800  0.928263
H    1.398630  -3.935125  1.288344
O    2.651670  -0.061352  2.060034
H    3.550066  -0.446225  1.973940
Hg    -0.305092  -7.591317  -0.614869
