27
Energy: -569906.766991 eV PBE+vdW (tier 2 basis)
N    1.931401  -1.531433  1.522950
C    0.829106  -0.758893  2.214440
C    0.819617  -1.084826  3.711747
O    1.225519  -2.137312  4.191333
H    1.774505  -1.524476  0.508371
H    2.833102  -1.063782  1.675948
H    1.093797  0.305730  2.130935
C    -0.580248  -0.901461  1.574730
C    -1.250722  -2.249470  1.215923
C    -1.586300  -3.319490  2.290409
N    -0.620302  -4.427414  2.187367
C    -0.006119  -5.151302  3.173618
N    1.308677  -5.365368  2.987155
N    -0.683343  -5.554759  4.245389
H    -0.552125  -0.320035  0.640908
H    -1.246622  -0.329653  2.236853
H    -0.701383  -2.741588  0.396153
H    -2.198112  -1.949226  0.747390
H    -2.608126  -3.685622  2.122837
H    -1.544771  -2.922451  3.313020
H    -0.381629  -4.724344  1.243932
H    1.805849  -6.056260  3.548962
H    -0.209778  -5.910673  5.071035
H    -1.694708  -5.650244  4.213704
O    0.288189  -0.092035  4.401799
H    0.270552  -0.305028  5.359885
Hg    2.026502  -3.568644  2.252166
