27
Energy: -569904.762875 eV PBE+vdW (tier 2 basis)
N    0.521130  0.180011  0.311612
C    0.392480  0.118883  1.768277
C    1.789086  0.242428  2.442931
O    2.797641  -0.277113  1.987644
H    -0.240201  -0.296206  -0.177030
H    0.599175  1.134554  -0.049387
H    -0.216177  0.975703  2.111346
C    -0.280932  -1.208930  2.191428
C    -0.512725  -1.369546  3.702034
C    -1.300477  -2.646192  4.026223
N    -1.470046  -2.798412  5.455057
C    -2.260128  -3.701619  6.110561
N    -2.221105  -3.560217  7.429069
N    -2.978259  -4.611005  5.422122
H    0.331638  -2.043436  1.813543
H    -1.248021  -1.254336  1.665972
H    -1.072760  -0.504902  4.092500
H    0.450241  -1.407919  4.234358
H    -0.776841  -3.532554  3.618112
H    -2.296626  -2.615002  3.548002
H    -0.949610  -2.208110  6.103121
H    -2.825274  -4.227520  7.926073
H    -3.576655  -5.258995  5.923089
H    -2.922342  -4.729455  4.416775
O    1.860197  0.879917  3.600584
H    1.027106  1.330373  3.839419
Hg    2.662177  -0.963648  -0.421716
