27
Energy: -569905.463326 eV PBE+vdW (tier 2 basis)
N    0.012890  0.767673  0.669141
C    0.182366  -0.154049  1.724108
C    1.584410  -0.921473  1.646077
O    1.777854  -1.940161  2.257352
H    0.537685  1.639002  0.674944
H    -0.223165  0.422986  -0.259061
H    0.292374  0.407970  2.669290
C    -0.949715  -1.186552  1.837422
C    -2.269668  -0.583888  2.341077
C    -3.342169  -1.669385  2.495642
N    -4.597488  -1.115360  3.012576
C    -5.474732  -1.744517  3.824503
N    -6.322570  -1.040323  4.601549
N    -5.450264  -3.080172  3.935478
H    -0.598304  -1.969958  2.523779
H    -1.094119  -1.674981  0.859892
H    -2.623422  0.191834  1.644152
H    -2.109453  -0.097926  3.315758
H    -3.000496  -2.445351  3.196895
H    -3.534219  -2.158172  1.524662
H    -4.816715  -0.153845  2.763844
H    -6.208039  -0.026620  4.524560
H    -5.889976  -3.527698  4.731427
H    -4.949229  -3.670317  3.282939
O    2.452705  -0.264968  0.882603
H    3.319171  -0.727862  0.895973
Hg    -8.531213  -1.433202  4.598779
