27
Energy: -569904.954926 eV PBE+vdW (tier 2 basis)
N    0.316173  0.285392  0.358369
C    0.783493  -0.296050  1.688400
C    2.338810  -0.127094  1.669482
O    2.836337  0.325797  0.616448
H    1.211005  0.548947  -0.132712
H    -0.196860  -0.397460  -0.214385
H    0.391041  0.350577  2.483131
C    0.303446  -1.751381  1.831901
C    0.561679  -2.435792  3.184305
C    -0.330597  -1.932706  4.343843
N    -0.097222  -2.653074  5.586510
C    -0.619275  -3.859378  5.960703
N    -0.254922  -4.508715  7.058340
N    -1.540530  -4.480504  5.192094
H    0.783053  -2.355402  1.045638
H    -0.778791  -1.763401  1.615868
H    1.615111  -2.322964  3.473505
H    0.392241  -3.512174  3.040258
H    -1.397370  -2.005795  4.078027
H    -0.139521  -0.872890  4.559791
H    0.578820  -2.260595  6.234643
H    0.410470  -3.982182  7.638214
H    -1.915566  -5.352131  5.556648
H    -2.005066  -4.053466  4.401286
O    2.940308  -0.457561  2.732688
H    -0.272034  1.120788  0.466286
Hg    5.142948  0.120777  1.972624
