27
Energy: -569906.461114 eV PBE+vdW (tier 2 basis)
N    -0.203539  0.353426  2.692503
C    0.814744  -0.607473  2.461817
C    2.218381  -0.327424  3.026171
O    3.076039  -1.240132  3.261895
H    -0.392478  0.580586  3.665553
H    -0.144301  1.196385  2.125086
H    0.516669  -1.547443  2.980544
C    0.965414  -0.897268  0.935726
C    -0.150369  -1.763080  0.322985
C    0.087705  -3.278841  0.254952
N    -0.305957  -4.061726  1.459772
C    0.402923  -5.068990  2.017353
N    1.742499  -4.955234  2.187622
N    -0.226053  -6.178392  2.418610
H    1.951171  -1.338243  0.703518
H    0.982642  0.083858  0.439158
H    -0.271172  -1.440266  -0.720425
H    -1.112697  -1.537342  0.806083
H    1.135347  -3.515186  0.025523
H    -0.503980  -3.685127  -0.577989
H    -1.313515  -4.139566  1.588700
H    2.254106  -5.805619  2.417328
H    0.195397  -6.820709  3.083169
H    -1.124286  -6.449987  2.028321
O    2.517997  0.907973  3.266896
H    3.432445  1.017620  3.616175
Hg    2.498168  -3.174068  2.764379
