27
Energy: -569905.524983 eV PBE+vdW (tier 2 basis)
N    -0.599296  -0.214210  -0.214261
C    -0.439067  0.002895  1.173762
C    1.039149  0.268173  1.592813
O    1.314925  0.890840  2.608582
H    -0.231415  -1.054279  -0.653212
H    -0.842679  0.548420  -0.838082
H    -0.980624  0.919274  1.447108
C    -0.995247  -1.217987  1.985535
C    -0.836835  -1.233172  3.513208
C    -1.557699  -0.155382  4.324836
N    -0.783920  1.086680  4.423281
C    -1.174331  2.199257  5.063392
N    -0.535871  3.375015  4.815608
N    -2.241999  2.199926  5.870996
H    -0.521233  -2.128333  1.589872
H    -2.059048  -1.279378  1.715764
H    0.219060  -1.279904  3.818245
H    -1.265079  -2.193346  3.838670
H    -1.706651  -0.541795  5.348945
H    -2.559209  0.059120  3.913432
H    0.109077  1.110307  3.897781
H    0.257111  3.254892  4.176959
H    -2.743820  1.352052  6.106326
H    -2.667664  3.078547  6.143850
O    1.918482  -0.266627  0.764892
H    2.833124  -0.100640  1.080982
Hg    0.298797  4.555788  6.506110
