27
Energy: -569905.340069 eV PBE+vdW (tier 2 basis)
N    -0.032348  0.387630  0.307399
C    0.092944  -0.230052  1.569189
C    1.615260  -0.354852  2.042111
O    1.934904  -1.097678  2.934888
H    0.179231  -0.142775  -0.535199
H    0.095920  1.393005  0.221359
H    -0.322709  0.448949  2.335418
C    -0.579226  -1.611906  1.649931
C    -2.113746  -1.524667  1.636401
C    -2.829315  -2.881275  1.632491
N    -2.705668  -3.584910  2.915675
C    -3.558734  -4.513140  3.405783
N    -4.464248  -5.124433  2.627562
N    -3.450394  -4.873747  4.697727
H    -0.199250  -2.082607  2.568751
H    -0.222539  -2.236752  0.814829
H    -2.444489  -0.999130  0.729265
H    -2.473344  -0.925860  2.487259
H    -2.435005  -3.514789  0.820237
H    -3.899385  -2.716849  1.441810
H    -1.821415  -3.486226  3.410267
H    -4.457982  -4.839550  1.647625
H    -3.778523  -5.785210  4.996098
H    -2.860769  -4.363205  5.344602
O    2.402957  0.472812  1.364350
H    3.320706  0.415185  1.710473
Hg    -6.573303  -5.439469  3.255890
