27
Energy: -569905.349695 eV PBE+vdW (tier 2 basis)
N    0.037742  0.951775  0.537858
C    0.136186  0.065076  1.628818
C    0.724068  0.772347  2.927351
O    0.902988  0.165569  3.955063
H    0.875986  1.238915  0.037308
H    -0.736123  1.609593  0.488865
H    -0.881032  -0.225013  1.939816
C    0.983267  -1.198401  1.298785
C    0.779329  -2.347619  2.291204
C    1.692422  -3.571616  2.041405
N    1.341852  -4.388519  0.882872
C    0.662789  -5.560117  0.885360
N    -0.107239  -5.943444  1.916840
N    0.709798  -6.332747  -0.214007
H    2.047382  -0.918180  1.250978
H    0.680004  -1.499197  0.285866
H    -0.273950  -2.669968  2.287291
H    1.005048  -2.008655  3.312098
H    1.687288  -4.218539  2.928262
H    2.732220  -3.242700  1.900933
H    1.605933  -4.027129  -0.031505
H    -0.133219  -5.280692  2.693385
H    -0.026355  -7.007082  -0.388900
H    1.376713  -6.169457  -0.959413
O    0.960762  2.064196  2.722060
H    1.299152  2.472983  3.549270
Hg    0.080806  -7.995914  2.804826
