27
Energy: -569906.723709 eV PBE+vdW (tier 2 basis)
N    0.472690  -1.538476  -0.547119
C    0.364677  -0.881253  0.815699
C    0.773268  -1.956377  1.829398
O    1.124992  -1.460362  2.989331
H    -0.216118  -1.185278  -1.223813
H    1.408906  -1.414426  -0.957534
H    1.051087  -0.027165  0.839578
C    -1.068458  -0.384319  1.138690
C    -2.329088  -1.261280  0.913228
C    -2.578161  -2.624152  1.594981
N    -2.374630  -2.612825  3.053903
C    -2.334960  -3.723072  3.852730
N    -1.513755  -3.688292  4.920216
N    -3.050955  -4.802015  3.536648
H    -1.230564  0.530685  0.549354
H    -1.013785  -0.030988  2.178267
H    -2.466286  -1.456794  -0.162217
H    -3.168990  -0.595841  1.164475
H    -1.920861  -3.403770  1.188162
H    -3.614218  -2.897281  1.340387
H    -2.416525  -1.723420  3.544036
H    -1.599740  -4.409002  5.635917
H    -2.879661  -5.699088  3.981423
H    -3.873390  -4.734103  2.944447
O    0.612460  -3.141566  1.537840
H    0.334841  -2.559445  -0.382361
Hg    0.223509  -2.733819  4.366092
