27
Energy: -569907.008297 eV PBE+vdW (tier 2 basis)
N    0.628972  -0.560190  0.035882
C    0.313805  -0.244927  1.475380
C    1.468662  0.632109  1.996012
O    2.097004  1.348166  1.226994
H    1.488712  -1.119527  -0.031230
H    -0.124006  -1.123182  -0.376294
H    0.283714  -1.202958  2.016981
C    -1.054414  0.473008  1.654049
C    -1.147704  1.975019  1.269797
C    -1.834173  2.304874  -0.085272
N    -1.472636  3.622471  -0.612145
C    -0.521521  3.939539  -1.518607
N    0.428943  3.078081  -1.921913
N    -0.539776  5.179013  -2.034722
H    -1.299986  0.372294  2.719724
H    -1.825378  -0.122084  1.138881
H    -0.156911  2.454252  1.303358
H    -1.714319  2.487455  2.057709
H    -2.925007  2.297304  0.038725
H    -1.647921  1.551246  -0.867662
H    -2.012671  4.405560  -0.255909
H    0.961821  3.354657  -2.742162
H    -1.365718  5.765837  -1.984882
H    0.256211  5.554216  -2.537961
O    1.724581  0.655336  3.290201
H    1.217036  0.003033  3.811561
Hg    0.855633  1.311401  -1.012924
