27
Energy: -569905.837521 eV PBE+vdW (tier 2 basis)
N    0.463974  -0.067044  -0.068784
C    0.191784  0.019001  1.332288
C    1.384782  -0.385838  2.229292
O    1.794423  0.254309  3.250990
H    1.319589  0.387982  -0.381197
H    0.401052  -1.006625  -0.458944
H    0.015788  1.090966  1.572086
C    -1.089068  -0.798801  1.664268
C    -1.800862  -0.569265  3.011971
C    -2.970076  0.438556  3.075456
N    -2.762999  1.825044  2.593846
C    -2.000537  2.783264  3.130445
N    -1.352239  2.661394  4.356582
N    -1.787237  3.931936  2.484439
H    -0.831755  -1.864400  1.579060
H    -1.775149  -0.587159  0.830817
H    -1.079240  -0.397560  3.830403
H    -2.270805  -1.518758  3.309149
H    -3.361540  0.468809  4.102715
H    -3.792624  0.057401  2.458751
H    -3.339240  2.093105  1.797671
H    -1.879741  2.066262  5.004510
H    -2.167368  4.128430  1.562547
H    -1.405757  4.713925  3.010383
O    2.041889  -1.437274  1.841235
H    2.810284  -1.637082  2.422991
Hg    0.412557  1.658819  4.002967
