27
Energy: -569905.332705 eV PBE+vdW (tier 2 basis)
N    -0.126255  -0.828699  0.184629
C    -0.128399  -0.432161  1.538891
C    1.279715  0.123334  2.006147
O    1.381410  0.807902  2.996990
H    0.362355  -1.674786  -0.100535
H    -0.273837  -0.141686  -0.550101
H    -0.801829  0.428896  1.650523
C    -0.555224  -1.607642  2.468262
C    -0.501274  -1.382979  3.986687
C    -1.440309  -0.281778  4.513992
N    -1.268919  -0.042603  5.947202
C    -2.039120  -0.483228  6.965836
N    -2.904787  -1.503735  6.826222
N    -1.883535  0.074402  8.179416
H    0.077086  -2.478023  2.236238
H    -1.573887  -1.876610  2.152820
H    0.524129  -1.155620  4.308989
H    -0.759907  -2.340021  4.465027
H    -2.495969  -0.514252  4.315465
H    -1.225770  0.678353  4.023196
H    -0.413931  0.445770  6.210510
H    -2.939912  -1.904433  5.887825
H    -1.328472  0.911845  8.315161
H    -2.138249  -0.448387  9.009884
O    2.265425  -0.273900  1.208740
H    3.121506  0.081307  1.533842
Hg    -4.997414  -1.350121  7.581982
