27
Energy: -569904.853287 eV PBE+vdW (tier 2 basis)
N    0.931178  0.203768  0.480606
C    -0.047114  -0.416967  1.409238
C    0.544879  -1.606297  2.212695
O    1.810338  -1.741309  2.418932
H    0.950901  -0.262492  -0.432892
H    0.745627  1.198619  0.323737
H    -0.272420  0.348184  2.170252
C    -1.356825  -0.808682  0.653069
C    -2.682017  -0.596247  1.416337
C    -3.129431  -1.655395  2.433883
N    -3.434876  -2.945269  1.814309
C    -3.070097  -4.206248  2.173862
N    -3.350031  -5.352294  1.708939
N    -2.129112  -4.286037  3.346002
H    -1.273248  -1.841019  0.285044
H    -1.414896  -0.165796  -0.236132
H    -3.471329  -0.489986  0.655270
H    -2.669396  0.370469  1.942434
H    -4.039705  -1.278998  2.930709
H    -2.372594  -1.791017  3.212686
H    -4.111477  -2.921189  1.052960
H    -3.988369  -5.373482  0.908693
H    -1.879312  -5.285299  3.405130
H    -2.580544  -4.015999  4.231700
O    -0.250674  -2.416062  2.707017
H    -1.267591  -3.701992  3.206577
Hg    3.078657  -0.189308  1.469372
