27
Energy: -569905.129555 eV PBE+vdW (tier 2 basis)
N    -1.507416  -0.267824  0.847117
C    -0.220190  -0.564836  1.489856
C    0.816328  -0.968521  0.422050
O    1.572038  -1.906460  0.543339
H    -1.389855  0.357831  0.045659
H    -2.143868  0.186846  1.508998
H    0.214326  0.366522  1.909692
C    -0.344375  -1.570737  2.640725
C    -0.750974  -3.016187  2.299068
C    -2.237162  -3.320297  2.028113
N    -2.722784  -2.721078  0.789173
C    -3.460207  -3.311006  -0.164360
N    -4.329722  -4.291502  0.169167
N    -3.443493  -2.838702  -1.421966
H    -1.028903  -1.149152  3.394665
H    0.635709  -1.612058  3.133047
H    -0.505025  -3.628480  3.178989
H    -0.140404  -3.403439  1.471832
H    -2.844699  -2.932440  2.864563
H    -2.376341  -4.409429  1.991142
H    -2.366404  -1.710063  0.633725
H    -4.287019  -4.588917  1.146437
H    -2.762028  -2.143385  -1.702885
H    -4.258066  -2.943452  -2.017580
O    0.786974  -0.132742  -0.627736
H    1.512464  -0.361132  -1.246845
Hg    -4.615527  -6.082487  -1.039247
