27
Energy: -569906.232485 eV PBE+vdW (tier 2 basis)
N    1.063087  -0.017794  -0.253260
C    0.004024  0.149215  0.779054
C    0.563402  0.689638  2.114441
O    1.604540  1.478036  2.168632
H    1.581728  -0.895526  -0.138181
H    0.682383  -0.001242  -1.204136
H    -0.661215  0.944804  0.403665
C    -0.817985  -1.166606  0.978986
C    -2.335355  -0.990957  1.182807
C    -2.833819  -0.301508  2.460423
N    -2.449545  -0.960395  3.710188
C    -3.224412  -1.740170  4.476643
N    -2.848125  -2.008901  5.735061
N    -4.366672  -2.260730  4.007790
H    -0.374120  -1.748137  1.798327
H    -0.698279  -1.769450  0.068825
H    -2.767542  -2.002212  1.123907
H    -2.759826  -0.439156  0.329493
H    -3.928347  -0.214961  2.423956
H    -2.458466  0.728696  2.528374
H    -1.532918  -0.700422  4.068226
H    -3.295798  -2.739524  6.275786
H    -5.045158  -2.680300  4.632648
H    -4.596228  -2.247266  3.023197
O    -0.007349  0.430861  3.171248
H    -2.138706  -1.457505  6.202670
Hg    2.607970  1.749350  0.256964
