27
Energy: -569904.726445 eV PBE+vdW (tier 2 basis)
N    0.952158  0.593571  0.687732
C    0.145295  0.016362  1.794566
C    0.813141  -1.231259  2.442344
O    2.101597  -1.341641  2.514153
H    0.831578  0.095450  -0.200113
H    0.741210  1.583289  0.529553
H    0.149719  0.773176  2.596425
C    -1.324515  -0.253968  1.405235
C    -1.564699  -1.440051  0.454099
C    -2.995858  -2.008629  0.550453
N    -3.523222  -2.180634  1.918585
C    -3.261691  -3.152496  2.842192
N    -3.870956  -3.536700  3.884072
N    -1.955404  -3.866471  2.652906
H    -1.746883  0.671473  0.988770
H    -1.858330  -0.428606  2.349596
H    -0.831797  -2.237093  0.642719
H    -1.421938  -1.151303  -0.597543
H    -3.063719  -2.954792  -0.009037
H    -3.698069  -1.321733  0.063768
H    -4.394640  -1.690540  2.104902
H    -4.772558  -3.089238  4.073963
H    -1.921329  -4.554751  3.421420
H    -1.889268  -4.373475  1.759939
O    0.106703  -2.104982  2.960261
H    -1.133636  -3.202855  2.746385
Hg    3.206113  0.226835  1.430536
