27
Energy: -569905.184606 eV PBE+vdW (tier 2 basis)
N    0.904081  1.426284  0.703520
C    0.210336  0.886474  1.815081
C    1.169787  0.189224  2.840056
O    0.989143  0.285960  4.039864
H    1.320164  2.351839  0.753904
H    1.294377  0.805012  -0.001648
H    -0.228257  1.715500  2.386090
C    -0.903957  -0.093176  1.335607
C    -1.463238  -1.175776  2.272864
C    -1.950960  -0.822347  3.693366
N    -2.726944  0.420470  3.798610
C    -2.588240  1.339028  4.790172
N    -3.689331  1.945875  5.275096
N    -1.389200  1.575232  5.329846
H    -0.519480  -0.626557  0.453549
H    -1.710194  0.551603  0.959543
H    -0.725395  -1.979685  2.418536
H    -2.285576  -1.650135  1.717713
H    -1.116711  -0.752006  4.393991
H    -2.588775  -1.650072  4.042919
H    -3.601230  0.457080  3.276982
H    -4.568537  1.658734  4.839011
H    -1.329747  1.987791  6.254249
H    -0.535015  1.157864  4.945319
O    2.135656  -0.496825  2.249436
H    2.713853  -0.921361  2.920180
Hg    -3.824806  4.105026  5.718876
