27
Energy: -569905.922467 eV PBE+vdW (tier 2 basis)
N    0.252673  -0.498095  0.034539
C    0.022614  0.069865  1.343328
C    1.293230  0.586700  2.137414
O    2.407603  0.625964  1.647386
H    0.541660  -1.481466  0.173675
H    -3.757878  -0.290988  -1.281409
H    -0.567110  0.995180  1.200693
C    -0.787995  -0.958586  2.195847
C    -2.270375  -1.125505  1.823770
C    -2.552609  -1.905158  0.529024
N    -3.967246  -2.266672  0.381737
C    -4.950490  -1.520529  -0.148226
N    -4.669414  -0.420200  -0.861874
N    -6.226482  -1.870145  0.052314
H    -0.755541  -0.649925  3.250627
H    -0.262673  -1.927696  2.172827
H    -2.763710  -0.142285  1.783631
H    -2.743046  -1.668522  2.656005
H    -1.998393  -2.853529  0.522101
H    -2.206595  -1.353504  -0.357180
H    -4.246993  -3.157367  0.780580
H    -5.414998  0.175671  -1.203017
H    -6.976641  -1.477576  -0.505419
H    -6.485763  -2.575542  0.732290
O    1.104600  1.058322  3.357569
H    0.175326  1.022909  3.651794
Hg    2.133921  0.195187  -0.805674
