27
Energy: -569904.516523 eV PBE+vdW (tier 2 basis)
N    0.419506  0.155871  -0.144499
C    -0.274962  0.333376  1.128711
C    0.562483  1.210583  2.108356
O    1.786054  1.256503  2.101774
H    0.207771  -0.733618  -0.600077
H    0.267775  0.918368  -0.809261
H    -1.214892  0.887331  0.949893
C    -0.547298  -1.022741  1.823332
C    -1.623230  -1.922787  1.183492
C    -3.071398  -1.524545  1.539588
N    -4.066791  -2.455571  1.029990
C    -4.522542  -3.564048  1.689484
N    -4.065366  -4.023538  2.846428
N    -5.504979  -4.302875  1.125464
H    -0.807380  -0.832704  2.875507
H    0.406958  -1.572144  1.858304
H    -1.448325  -2.948731  1.538144
H    -1.515619  -1.971830  0.087712
H    -3.327885  -0.536253  1.130766
H    -3.186354  -1.443494  2.630605
H    -4.414573  -2.287735  0.089361
H    -3.397665  -3.392399  3.302036
H    -5.797895  -5.137206  1.627141
H    -6.044789  -4.013035  0.316844
O    -0.090182  1.885799  3.035249
H    -1.061131  1.845173  2.938124
Hg    2.923115  0.139813  0.240214
