27
Energy: -569905.420392 eV PBE+vdW (tier 2 basis)
N    -1.435217  0.655714  -0.186622
C    -0.810804  0.452241  1.080747
C    0.617760  -0.201367  0.887051
O    1.367751  -0.387968  1.829515
H    -2.292620  0.149788  -0.395036
H    -1.397792  1.584617  -0.602793
H    -1.377907  -0.311103  1.636966
C    -0.700898  1.754278  1.919159
C    -0.271531  1.513290  3.389454
C    1.084649  2.187014  3.701321
N    1.611463  1.806119  5.010938
C    2.575297  0.884520  5.234069
N    3.325098  0.983043  6.361283
N    2.870006  -0.037496  4.318473
H    -1.689474  2.229352  1.895819
H    -0.011940  2.448876  1.414401
H    -0.186070  0.440569  3.602117
H    -1.046417  1.903516  4.063184
H    0.976804  3.280233  3.697756
H    1.833152  1.921591  2.944881
H    1.259793  2.310324  5.821898
H    3.056136  1.758879  6.973032
H    2.306326  -0.178813  3.475112
H    3.773596  -0.497059  4.351411
O    0.940218  -0.540939  -0.339281
H    0.178377  -0.302230  -0.925757
Hg    3.668653  -0.746801  7.675068
