27
Energy: -569905.420978 eV PBE+vdW (tier 2 basis)
N    -1.434417  0.228992  -0.129504
C    -0.633251  0.210813  1.051758
C    0.895576  0.378606  0.677486
O    1.771428  0.307331  1.522095
H    -2.105878  0.983071  -0.252125
H    -1.742074  -0.659454  -0.521230
H    -0.859846  1.109251  1.647721
C    -0.843766  -1.066827  1.908169
C    -0.190065  -0.989784  3.312081
C    0.909215  -2.063152  3.484521
N    1.680113  -1.883416  4.713762
C    2.906107  -1.319614  4.798724
N    3.713326  -1.664781  5.833851
N    3.367864  -0.529408  3.830394
H    -0.475030  -1.939382  1.347283
H    -1.927436  -1.202541  2.011873
H    -0.963589  -1.120022  4.081071
H    0.255633  -0.002239  3.483477
H    1.608635  -2.041737  2.639967
H    0.460649  -3.065173  3.523574
H    1.284936  -2.258027  5.573443
H    3.286117  -2.321013  6.493624
H    2.782508  -0.206649  3.054425
H    4.367814  -0.382115  3.745763
O    1.162400  0.611247  -0.586595
H    0.300813  0.633128  -1.074963
Hg    4.744358  -0.150531  7.050337
