27
Energy: -569906.554911 eV PBE+vdW (tier 2 basis)
N    1.616559  -0.879264  1.966751
C    0.320527  -0.180094  1.996729
C    0.505449  1.033598  2.910068
O    1.206382  1.009242  3.948096
H    2.334168  -0.323694  1.491060
H    1.547531  -1.759352  1.453321
H    0.020421  0.186630  1.003345
C    -0.825316  -1.052913  2.598143
C    -0.957977  -2.511127  2.104487
C    -0.142543  -3.610462  2.825023
N    -0.441584  -3.741772  4.260638
C    0.319419  -3.329847  5.288162
N    1.662298  -3.004854  5.176967
N    -0.201667  -3.219162  6.511216
H    -1.759544  -0.521905  2.372806
H    -0.760425  -1.050063  3.701954
H    -0.736534  -2.586960  1.028175
H    -2.021518  -2.778833  2.183395
H    0.939247  -3.476662  2.716282
H    -0.371750  -4.576174  2.355483
H    -1.344890  -4.157400  4.486326
H    2.123024  -3.584366  4.468853
H    -1.188066  -3.356730  6.711647
H    0.435876  -3.150100  7.299647
O    -0.147789  2.096417  2.537339
H    -0.032587  2.842578  3.169482
Hg    1.852031  -1.048378  4.463515
