27
Energy: -569905.402684 eV PBE+vdW (tier 2 basis)
N    -0.110908  1.098794  0.738822
C    0.068856  0.315799  1.905697
C    1.587298  0.160431  2.305340
O    1.979974  -0.696370  3.074238
H    0.012613  2.107538  0.773389
H    0.001964  0.676650  -0.180020
H    -0.339887  0.892494  2.756233
C    -0.614348  -1.076100  1.804912
C    -1.493731  -1.471209  3.003818
C    -0.809974  -1.637966  4.373868
N    0.296178  -2.592181  4.381073
C    0.295721  -3.855382  4.839239
N    -0.849320  -4.556750  4.997144
N    1.468791  -4.470047  5.068656
H    0.139568  -1.848116  1.600738
H    -1.272849  -1.051659  0.927331
H    -1.992082  -2.417287  2.739818
H    -2.296545  -0.730330  3.135935
H    -1.551134  -1.932150  5.128593
H    -0.386169  -0.684258  4.721196
H    1.152809  -2.227750  3.945077
H    -1.696741  -4.027490  4.782128
H    2.344438  -3.959432  5.044891
H    1.524565  -5.481804  5.033327
O    2.346146  1.085834  1.738203
H    3.276921  0.990238  2.036345
Hg    -1.243571  -5.676189  6.861681
