27
Energy: -569906.814775 eV PBE+vdW (tier 2 basis)
N    -0.300444  -0.110158  0.178050
C    -0.335225  0.016177  1.692711
C    0.516681  -1.163113  2.192014
O    0.431307  -2.232097  1.599340
H    0.554746  0.300612  -0.223345
H    -0.286381  -1.131586  -0.027652
H    0.069918  0.995967  1.969525
C    -1.803199  -0.181639  2.165035
C    -2.205285  0.219456  3.604569
C    -1.883619  -0.651631  4.832767
N    -2.407146  -2.037494  4.755116
C    -2.005474  -3.124609  5.475735
N    -0.713627  -3.364769  5.755943
N    -2.944002  -3.996942  5.871322
H    -2.094564  -1.222057  1.951865
H    -2.424683  0.452602  1.512895
H    -3.297489  0.353994  3.573377
H    -1.810618  1.219928  3.836340
H    -2.331151  -0.152476  5.706209
H    -0.807175  -0.666502  5.031189
H    -3.382259  -2.087482  4.467447
H    -0.506011  -4.114890  6.410327
H    -2.700509  -4.937735  6.164391
H    -3.914248  -3.721445  5.984635
O    1.151763  -0.919967  3.315078
H    -1.110565  0.328894  -0.280241
Hg    0.695347  -2.506434  4.558955
