27
Energy: -569905.416716 eV PBE+vdW (tier 2 basis)
N    -1.645953  -0.992118  -0.581387
C    -1.237218  -0.444297  0.659790
C    -0.040843  0.574275  0.497366
O    0.882836  0.655436  1.287284
H    -2.127201  -0.419552  -1.269366
H    -1.281394  -1.880613  -0.910731
H    -2.044060  0.225745  1.018685
C    -0.945015  -1.485995  1.742622
C    0.234084  -2.451390  1.463355
C    1.123586  -2.689757  2.687702
N    1.837030  -1.455618  3.039090
C    2.888527  -1.334918  3.865529
N    3.177564  -2.283798  4.782029
N    3.623096  -0.207533  3.835340
H    -1.868093  -2.055463  1.910017
H    -0.774610  -0.921895  2.671536
H    0.869670  -2.090544  0.639893
H    -0.144752  -3.431924  1.148162
H    1.857091  -3.482402  2.475541
H    0.500328  -3.019913  3.535083
H    1.484737  -0.596242  2.589617
H    2.574984  -3.107761  4.739650
H    4.124423  0.084706  4.667029
H    3.443390  0.508104  3.139505
O    -0.210849  1.342266  -0.566410
H    0.504078  2.011532  -0.629203
Hg    5.235891  -3.006019  5.086212
