27
Energy: -569904.966784 eV PBE+vdW (tier 2 basis)
N    0.352084  0.442788  0.903850
C    0.330508  -0.467201  2.119592
C    1.650868  -1.313332  2.115344
O    2.487639  -1.040817  1.225891
H    1.307649  0.804329  0.759362
H    0.107460  -0.073929  0.047120
H    0.411201  0.190472  2.996465
C    -0.924514  -1.336516  2.166367
C    -2.269288  -0.597426  2.057582
C    -2.665336  0.266188  3.274537
N    -1.714646  1.285322  3.695659
C    -1.330697  2.445754  3.054964
N    -0.582643  3.240792  3.748435
N    -1.660909  2.548374  1.690931
H    -0.870331  -1.915431  3.099488
H    -0.877838  -2.080640  1.354453
H    -3.057056  -1.356861  1.953737
H    -2.327097  -0.015602  1.126008
H    -2.821443  -0.379353  4.146934
H    -3.644986  0.732585  3.059102
H    -1.466687  1.319752  4.685313
H    -0.341223  4.118889  3.278006
H    -1.512735  3.491822  1.330154
H    -2.604378  2.241050  1.444517
O    1.744525  -2.174457  3.029155
H    -0.329372  1.240077  1.023054
Hg    3.914595  -2.836792  2.349567
