27
Energy: -19683.2691641 eV PBE+vdW (tier 2 basis)
C    -0.425927  -0.848502  0.511454
C    -0.261750  -0.035201  1.791235
O    0.796840  0.539191  2.059357
H    0.545050  -1.275057  0.237293
H    -0.750740  -0.182360  -0.301138
H    -1.167912  -1.649717  0.621743
N    -1.398033  -0.000488  2.550307
C    -1.413031  0.481412  3.923092
C    -1.261303  2.002035  4.031502
O    -1.057877  2.757630  3.088154
H    -1.983840  -0.866035  2.537963
H    -2.449200  0.276902  4.250604
C    -0.494175  -0.374992  4.838315
C    -1.178527  -1.642166  5.380207
C    -1.749261  -2.685476  4.353145
O    -1.418019  -3.875936  4.540507
O    -2.540629  -2.237414  3.452855
H    -0.125554  0.225436  5.684318
H    0.399025  -0.630589  4.253024
H    -2.030389  -1.340392  6.019028
H    -0.472337  -2.179412  6.027993
N    -1.434596  2.534848  5.299788
C    -1.953113  1.905929  6.499940
H    -1.360267  3.546325  5.292232
H    -2.568331  2.629990  7.051905
H    -1.160684  1.542848  7.174891
H    -2.593708  1.049764  6.254376
