27
Energy: -19683.0982314 eV PBE+vdW (tier 2 basis)
C    0.044173  0.299802  0.277090
C    -0.133101  -0.237657  1.679577
O    0.837680  -0.531270  2.387955
H    -0.283371  1.345928  0.217748
H    -0.544621  -0.282502  -0.441191
H    1.108734  0.240161  0.032917
N    -1.398576  -0.374748  2.195131
C    -2.749002  -0.257674  1.622212
C    -3.088273  -1.512370  0.792637
O    -2.341380  -1.926488  -0.095437
H    -1.358296  -0.775143  3.127867
H    -3.403701  -0.219309  2.504719
C    -3.040412  1.027365  0.822384
C    -4.528858  1.318923  0.649328
C    -4.842822  2.786820  0.155328
O    -3.913881  3.626315  0.297691
O    -6.007249  2.942628  -0.293867
H    -2.563601  0.974697  -0.164593
H    -2.592648  1.886011  1.344200
H    -5.051327  1.213178  1.617341
H    -5.012100  0.621337  -0.051729
N    -4.249379  -2.186842  1.077877
C    -5.340052  -1.822245  1.968061
H    -4.428245  -2.928718  0.407289
H    -5.978999  -2.703295  2.106920
H    -5.951998  -0.996466  1.577215
H    -4.963997  -1.531482  2.957173
