27
Energy: -19683.9607037 eV PBE+vdW (tier 2 basis)
C    0.089438  0.651130  0.438013
C    -0.727078  -0.227403  1.371664
O    -1.223821  -1.293537  0.928225
H    0.186022  1.676366  0.814433
H    -0.396665  0.658562  -0.544647
H    1.089946  0.212259  0.311098
N    -0.796465  0.235704  2.632374
C    -1.718173  -0.118336  3.723179
C    -1.939323  -1.583706  4.143631
O    -2.230915  -1.827216  5.325049
H    -0.634017  1.301584  2.728726
H    -1.254923  0.317037  4.621438
C    -3.071232  0.612920  3.523710
C    -3.042946  2.127151  3.811607
C    -2.172051  3.080829  2.928823
O    -2.750907  4.065930  2.430861
O    -0.916326  2.812439  2.836242
H    -3.800032  0.152341  4.208671
H    -3.422995  0.416072  2.498332
H    -2.703055  2.266494  4.853322
H    -4.072426  2.506267  3.758426
N    -1.838984  -2.535361  3.194484
C    -2.072154  -3.926746  3.504443
H    -1.642609  -2.212177  2.218213
H    -1.774652  -4.534777  2.641471
H    -3.132089  -4.129969  3.731611
H    -1.488565  -4.236856  4.383604
