27
Energy: -19683.4891601 eV PBE+vdW (tier 2 basis)
C    0.024233  0.790121  0.450730
C    -0.156758  -0.069417  1.686594
O    0.812033  -0.387199  2.387446
H    1.085441  0.765529  0.184567
H    -0.583111  0.431890  -0.387214
H    -0.255325  1.828291  0.680018
N    -1.416497  -0.463293  2.046022
C    -2.735261  -0.300960  1.438169
C    -2.914877  -1.169618  0.182952
O    -1.979769  -1.491194  -0.559276
H    -1.402875  -0.990264  2.913264
H    -3.444928  -0.639880  2.209138
C    -3.175587  1.160283  1.181793
C    -3.310666  1.969377  2.472697
C    -4.446857  1.511887  3.454994
O    -4.635222  2.261286  4.438211
O    -5.056956  0.431416  3.162307
H    -4.156105  1.118275  0.685980
H    -2.491119  1.645568  0.470366
H    -3.502366  3.025300  2.229001
H    -2.363422  1.962148  3.035259
N    -4.190900  -1.563530  -0.112227
C    -5.422075  -1.399428  0.648396
H    -4.228833  -2.106658  -0.970316
H    -5.779342  -2.368896  1.031569
H    -6.207228  -0.972791  0.005825
H    -5.285265  -0.719081  1.507530
