27
Energy: -19682.9012236 eV PBE+vdW (tier 2 basis)
C    -0.084230  -0.719090  0.529978
C    -0.415214  -0.171070  1.903705
O    0.465452  0.275590  2.646714
H    -0.887398  -0.593104  -0.202422
H    0.814645  -0.202152  0.180803
H    0.147288  -1.791732  0.612077
N    -1.711251  -0.232848  2.346021
C    -2.955770  -0.637007  1.678327
C    -2.807677  -1.956137  0.889708
O    -3.162430  -2.087823  -0.277361
H    -1.822613  0.237835  3.239762
H    -3.625485  -0.920069  2.514663
C    -3.674993  0.491062  0.917987
C    -2.896136  1.310237  -0.102054
C    -3.614738  2.678570  -0.450703
O    -3.338328  3.142972  -1.585663
O    -4.348765  3.160931  0.456064
H    -4.059649  1.214812  1.655770
H    -4.560574  0.043450  0.441568
H    -1.913298  1.601281  0.306343
H    -2.716400  0.760022  -1.034697
N    -2.311517  -3.042060  1.578684
C    -1.888125  -3.153361  2.962366
H    -2.239631  -3.866818  0.992226
H    -2.563214  -2.600966  3.629124
H    -0.867165  -2.779406  3.133771
H    -1.927456  -4.210988  3.253870
