27
Energy: -19684.2398721 eV PBE+vdW (tier 2 basis)
C    0.333633  0.551165  0.863762
C    -0.260144  0.822435  2.240938
O    0.161434  1.746452  2.948859
H    0.254619  1.464530  0.260127
H    -0.159455  -0.274391  0.335726
H    1.401731  0.323000  0.978281
N    -1.256279  -0.026206  2.588614
C    -2.000634  0.070314  3.834344
C    -1.804313  -1.151026  4.762172
O    -1.700208  -1.008674  5.988489
H    -1.597374  -0.744792  1.931864
H    -1.584713  0.926001  4.379644
C    -3.507857  0.333449  3.574091
C    -4.360651  -0.817987  3.000331
C    -3.921179  -1.377186  1.615027
O    -4.641436  -1.134337  0.631498
O    -2.819423  -2.056923  1.604319
H    -3.567564  1.202887  2.900742
H    -3.947931  0.644704  4.534786
H    -5.391581  -0.454565  2.895100
H    -4.377499  -1.649228  3.724210
N    -1.795471  -2.350072  4.134008
C    -1.746100  -3.578164  4.893573
H    -2.139254  -2.368565  3.136628
H    -1.636038  -4.418649  4.197763
H    -0.894495  -3.570881  5.588370
H    -2.656818  -3.736293  5.497736
