27
Energy: -19683.3046214 eV PBE+vdW (tier 2 basis)
C    -0.097480  0.340995  0.430380
C    0.141317  0.104922  1.911078
O    1.161360  0.523105  2.468498
H    0.534775  1.177512  0.119038
H    -1.144621  0.560745  0.189524
H    0.194797  -0.558270  -0.129529
N    -0.788249  -0.614354  2.605325
C    -2.093863  -1.128606  2.185583
C    -1.955220  -2.036013  0.935317
O    -1.008027  -2.806282  0.768672
H    -0.557273  -0.703930  3.588905
H    -2.375454  -1.843385  2.978458
C    -3.204518  -0.070156  2.142840
C    -3.532023  0.591948  3.479124
C    -5.038017  1.071410  3.555829
O    -5.832941  0.508089  2.748148
O    -5.275951  1.934781  4.434361
H    -4.173700  -0.519764  1.852377
H    -2.971512  0.699312  1.388760
H    -2.874085  1.440187  3.708850
H    -3.404447  -0.136003  4.301290
N    -2.983179  -1.954541  0.048395
C    -3.042936  -2.800390  -1.124475
H    -3.746573  -1.320089  0.254982
H    -3.971361  -2.588812  -1.665947
H    -3.021414  -3.865059  -0.849369
H    -2.188300  -2.615287  -1.791723
