27
Energy: -19683.6485233 eV PBE+vdW (tier 2 basis)
C    0.243439  0.854413  0.392281
C    0.044351  -0.137321  1.535712
O    0.998392  -0.707185  2.054836
H    -0.670577  1.062743  -0.180626
H    1.012436  0.464171  -0.283475
H    0.612598  1.797970  0.817703
N    -1.259483  -0.309334  1.908052
C    -1.722406  -0.973824  3.137475
C    -0.881971  -0.491208  4.354181
O    -0.669886  0.727186  4.484966
H    -1.919158  0.326941  1.480287
H    -2.704313  -0.509423  3.332418
C    -1.994809  -2.477685  2.960692
C    -0.809755  -3.430809  2.689603
C    -0.598317  -4.493810  3.806400
O    -0.704555  -4.048975  5.007590
O    -0.333209  -5.662606  3.462194
H    -2.727700  -2.561521  2.141859
H    -2.513409  -2.814215  3.871938
H    -0.943775  -3.957175  1.736449
H    0.126264  -2.858511  2.606745
N    -0.517313  -1.429635  5.236849
C    0.239729  -1.050530  6.409602
H    -0.650559  -2.493443  5.075418
H    0.478101  -1.963594  6.967423
H    -0.329370  -0.366012  7.059306
H    1.175408  -0.536940  6.137156
