27
Energy: -19683.8359637 eV PBE+vdW (tier 2 basis)
C    -0.517712  0.082349  0.286886
C    0.316744  0.541151  1.464003
O    1.550880  0.606240  1.398797
H    -0.928665  -0.916036  0.492206
H    0.141025  0.030532  -0.584383
H    -1.358664  0.749842  0.066289
N    -0.316608  0.865328  2.633585
C    -1.733568  0.906751  3.004171
C    -2.488709  -0.365055  2.526657
O    -2.061132  -1.480106  2.870505
H    0.347943  1.125660  3.355233
H    -1.727827  0.736363  4.093342
C    -2.373845  2.308932  2.811665
C    -2.179320  3.058438  1.487724
C    -3.194674  2.826121  0.325812
O    -2.969898  3.459592  -0.723087
O    -4.182249  2.041225  0.556011
H    -1.945627  2.931675  3.615923
H    -3.449502  2.228803  3.030885
H    -1.164721  2.909670  1.090603
H    -2.235977  4.138925  1.693038
N    -3.607112  -0.168086  1.815470
C    -4.358778  -1.304601  1.330340
H    -3.841520  0.795078  1.388713
H    -3.726688  -1.989110  0.741327
H    -5.170755  -0.929974  0.696763
H    -4.785064  -1.892421  2.158456
