27
Energy: -19683.9748053 eV PBE+vdW (tier 2 basis)
C    -0.368066  0.469712  0.091706
C    -1.095364  -0.292779  1.188539
O    -1.718790  -1.343087  0.893582
H    0.531976  -0.088936  -0.202359
H    -0.078151  1.479241  0.405886
H    -1.022306  0.526203  -0.786903
N    -0.955637  0.243676  2.410811
C    -1.746729  0.001872  3.628481
C    -1.846093  -1.413965  4.218759
O    -1.935174  -1.560463  5.446053
H    -0.712485  1.301768  2.454436
H    -1.208669  0.566522  4.401173
C    -3.153966  0.646441  3.504881
C    -3.160165  2.005095  2.773100
C    -2.085174  3.044824  3.229483
O    -2.477506  4.033933  3.876925
O    -0.871458  2.795549  2.873634
H    -3.546858  0.761107  4.525299
H    -3.824709  -0.049106  2.975055
H    -4.147900  2.465004  2.908596
H    -3.026520  1.827780  1.693688
N    -1.870400  -2.444138  3.343366
C    -2.019048  -3.807698  3.794737
H    -1.873285  -2.201586  2.329496
H    -1.703689  -4.487051  2.992935
H    -3.060562  -4.049143  4.069539
H    -1.399982  -3.982637  4.685264
