27
Energy: -19683.8736521 eV PBE+vdW (tier 2 basis)
C    -0.293617  -0.011606  0.246041
C    -0.262942  -0.140700  1.770764
O    0.811824  -0.059527  2.375996
H    -0.657905  -0.936233  -0.225823
H    -0.953641  0.800637  -0.090740
H    0.726802  0.185710  -0.094928
N    -1.453572  -0.331214  2.407477
C    -2.728993  -0.479499  1.724113
C    -3.322784  0.854681  1.226461
O    -4.162221  0.910143  0.323386
H    -1.472186  -0.677979  3.444055
H    -2.638589  -1.113521  0.825651
C    -3.768240  -1.135053  2.661246
C    -3.340119  -2.477767  3.275869
C    -2.581767  -2.375231  4.638744
O    -1.826381  -1.349753  4.787644
O    -2.774722  -3.294794  5.458377
H    -4.686460  -1.256273  2.068850
H    -3.999334  -0.428543  3.473934
H    -2.691994  -3.030529  2.573199
H    -4.220999  -3.112083  3.442511
N    -2.867689  1.942650  1.907003
C    -3.332592  3.284703  1.658439
H    -2.146908  1.752093  2.600182
H    -2.511601  3.946146  1.341178
H    -3.805526  3.720759  2.551781
H    -4.076523  3.231654  0.854108
