27
Energy: -19683.2901311 eV PBE+vdW (tier 2 basis)
C    0.177546  0.036760  -0.215941
C    0.354583  -0.185531  1.282955
O    1.392765  -0.666088  1.739029
H    0.280467  -0.929320  -0.726587
H    0.986135  0.686531  -0.574151
H    -0.787939  0.482116  -0.489694
N    -0.710638  0.188359  2.041691
C    -0.782405  0.101324  3.497375
C    -1.242648  -1.275250  4.032796
O    -0.649932  -1.765025  4.997843
H    -1.509764  0.607110  1.579757
H    0.249117  0.154665  3.866587
C    -1.602859  1.311037  4.017089
C    -2.386909  1.128586  5.318838
C    -3.915118  0.802556  5.108410
O    -4.363413  0.923123  3.924088
O    -4.538447  0.480545  6.145674
H    -2.374966  1.553484  3.265022
H    -0.907371  2.163361  4.070044
H    -2.356136  2.060008  5.904684
H    -1.957689  0.353911  5.968459
N    -2.267494  -1.945939  3.433091
C    -3.229906  -1.495586  2.433110
H    -2.484377  -2.802061  3.932851
H    -3.642696  -0.503504  2.693326
H    -2.797580  -1.504695  1.419659
H    -4.071051  -2.198583  2.444472
