27
Energy: -19683.3036902 eV PBE+vdW (tier 2 basis)
C    -0.221893  -1.276796  0.642990
C    -0.196810  0.029098  1.416138
O    0.870244  0.574667  1.714880
H    -0.418180  -1.070826  -0.418420
H    -0.988336  -1.975454  0.999135
H    0.765730  -1.738053  0.734939
N    -1.390177  0.603433  1.745356
C    -2.757836  0.128536  1.535969
C    -3.015822  -1.178149  2.339456
O    -2.437293  -1.430795  3.396239
H    -1.273628  1.469948  2.258112
H    -3.385454  0.874447  2.053414
C    -3.229343  0.121157  0.074855
C    -3.163335  1.462828  -0.649127
C    -4.291182  1.599907  -1.749523
O    -4.068697  2.458975  -2.636399
O    -5.301708  0.853552  -1.592373
H    -2.698141  -0.651713  -0.501700
H    -4.307327  -0.126912  0.016172
H    -2.185075  1.652017  -1.110191
H    -3.333606  2.287519  0.066220
N    -3.966868  -1.994517  1.800372
C    -4.412969  -3.207130  2.448396
H    -4.386945  -1.707727  0.922206
H    -5.483509  -3.159181  2.698728
H    -3.834436  -3.319148  3.372533
H    -4.242791  -4.087609  1.810967
