27
Energy: -19684.1903682 eV PBE+vdW (tier 2 basis)
C    0.196606  0.322773  0.784869
C    -0.232170  0.401077  2.239142
O    0.584753  0.775598  3.119719
H    0.938050  -0.480529  0.669844
H    -0.649060  0.139938  0.111733
H    0.690364  1.264912  0.514144
N    -1.497886  0.031703  2.473655
C    -2.175819  0.245708  3.751952
C    -1.798696  -0.818418  4.820326
O    -2.623458  -1.564134  5.356124
H    -2.202180  -0.083070  1.630765
H    -1.837154  1.218866  4.158110
C    -3.687994  0.290892  3.513925
C    -4.150685  1.312850  2.458273
C    -4.173778  0.845737  0.967037
O    -3.273720  -0.003064  0.608476
O    -5.052298  1.340736  0.237137
H    -4.162018  0.511155  4.480980
H    -4.030524  -0.716238  3.236033
H    -3.519396  2.218741  2.503207
H    -5.170419  1.648225  2.688442
N    -0.471103  -0.812939  5.120000
C    0.119095  -1.770083  6.024583
H    0.119741  -0.185862  4.543184
H    -0.690535  -2.356281  6.476155
H    0.802729  -2.457967  5.500566
H    0.685555  -1.268323  6.824620
