27
Energy: -19683.2127688 eV PBE+vdW (tier 2 basis)
C    0.106307  0.024988  0.149120
C    0.067713  -0.051655  1.657816
O    1.105235  -0.083745  2.332151
H    1.155744  0.008115  -0.158591
H    -0.368302  0.943278  -0.219189
H    -0.432126  -0.823507  -0.289081
N    -1.145924  -0.050258  2.299271
C    -2.530764  -0.170079  1.831927
C    -2.841563  -1.605412  1.351790
O    -1.976747  -2.337367  0.863094
H    -1.014647  -0.178069  3.297944
H    -3.117101  -0.005381  2.747715
C    -2.990114  0.925258  0.815721
C    -3.216632  0.522025  -0.647770
C    -4.727231  0.357768  -1.067314
O    -5.599443  0.755715  -0.234076
O    -4.904967  -0.140380  -2.203439
H    -2.271568  1.752157  0.912868
H    -3.966826  1.307840  1.153168
H    -2.702450  -0.408650  -0.921647
H    -2.803072  1.291559  -1.317901
N    -4.124955  -2.034505  1.506443
C    -5.285759  -1.305285  2.012346
H    -4.296788  -2.914690  1.030820
H    -5.076983  -0.888281  3.009266
H    -6.106489  -2.023777  2.125397
H    -5.598988  -0.498423  1.322000
