27
Energy: -19683.0339031 eV PBE+vdW (tier 2 basis)
C    -0.397237  -0.845225  0.163436
C    -0.139842  -0.403081  1.603894
O    0.894192  -0.734233  2.182442
H    0.387980  -0.420394  -0.475353
H    -1.376972  -0.548547  -0.233465
H    -0.308068  -1.937540  0.113551
N    -1.146017  0.340189  2.144973
C    -1.206955  1.023634  3.457242
C    -0.673035  2.469780  3.252455
O    -1.491241  3.325359  2.878164
H    -1.866700  0.639180  1.498622
H    -2.279650  1.219738  3.592305
C    -0.786073  0.152880  4.653009
C    -1.411286  0.626992  5.971495
C    -0.647230  1.747000  6.767616
O    0.614524  1.750924  6.643023
O    -1.366665  2.480328  7.487755
H    0.299180  0.095208  4.776457
H    -1.132808  -0.866323  4.413476
H    -2.453150  0.952762  5.824754
H    -1.452803  -0.233401  6.660214
N    0.642176  2.774027  3.360927
C    1.775794  1.996121  3.863254
H    0.790923  3.770802  3.236679
H    2.687017  2.556058  3.615648
H    1.825834  1.023570  3.360185
H    1.691450  1.859669  4.956054
