27
Energy: -19682.9697649 eV PBE+vdW (tier 2 basis)
C    0.027476  -0.339993  0.456801
C    -0.418210  -0.960684  1.770081
O    -0.017862  -2.076306  2.118690
H    0.382410  0.690561  0.585276
H    -0.801510  -0.327013  -0.264135
H    0.838214  -0.954924  0.056485
N    -1.290969  -0.254627  2.542765
C    -1.856280  1.089382  2.355280
C    -2.624101  1.152463  1.005762
O    -3.493370  0.307727  0.773073
H    -1.529448  -0.732796  3.404919
H    -2.698769  1.121725  3.066400
C    -0.918075  2.224245  2.768742
C    -0.560632  2.248411  4.251819
C    -0.087947  3.680982  4.727711
O    0.576970  3.693502  5.792528
O    -0.456019  4.648428  4.000545
H    -1.393148  3.200284  2.586735
H    0.007028  2.211998  2.172321
H    0.211422  1.513517  4.517266
H    -1.452378  2.001069  4.857608
N    -2.423234  2.158078  0.095064
C    -1.405404  3.193143  -0.051146
H    -3.066163  2.048340  -0.683028
H    -1.558047  3.662336  -1.030407
H    -0.387666  2.781947  -0.032283
H    -1.472637  3.969731  0.719928
