27
Energy: -19684.1931027 eV PBE+vdW (tier 2 basis)
C    -1.074255  -1.714241  0.240889
C    -0.297258  -0.480357  0.676804
O    0.926983  -0.397282  0.511047
H    -1.695397  -1.484839  -0.637399
H    -1.752595  -2.093969  1.015917
H    -0.352322  -2.489575  -0.030965
N    -1.013869  0.529207  1.236835
C    -2.449027  0.598468  1.461365
C    -2.855028  2.083374  1.334668
O    -2.028602  2.986399  1.558047
H    -0.517693  1.397360  1.442309
H    -2.978100  0.031651  0.683984
C    -2.845398  0.018913  2.844285
C    -4.358264  -0.066309  3.110274
C    -5.117142  -0.782518  1.952410
O    -5.504313  -0.023779  0.989207
O    -5.252002  -2.019885  2.031598
H    -2.345939  0.619186  3.622149
H    -2.418112  -0.993716  2.903957
H    -4.770869  0.942709  3.259394
H    -4.515856  -0.638057  4.034951
N    -4.144425  2.259822  0.996851
C    -4.743836  3.573387  0.963019
H    -4.766926  1.378549  0.948482
H    -5.094159  3.827941  -0.050131
H    -4.000556  4.317685  1.274943
H    -5.611039  3.620878  1.640110
