27
Energy: -19684.0792014 eV PBE+vdW (tier 2 basis)
C    -0.124613  0.462503  0.311351
C    -0.720158  -0.715735  1.078196
O    -0.283294  -1.859799  0.909803
H    0.677835  0.071586  -0.320724
H    0.280120  1.228262  0.987756
H    -0.874785  0.953747  -0.325548
N    -1.752110  -0.450903  1.925823
C    -2.221605  0.877094  2.312310
C    -1.425356  1.499593  3.488798
O    -1.023461  2.673795  3.427697
H    -2.042883  -1.214441  2.554223
H    -2.032861  1.558464  1.474840
C    -3.752338  0.902160  2.559743
C    -4.313819  0.340023  3.879588
C    -4.053464  -1.169655  4.151275
O    -5.034210  -1.933342  4.185635
O    -2.816729  -1.499333  4.320452
H    -4.218866  0.376398  1.711106
H    -4.059259  1.957550  2.483454
H    -5.401272  0.493734  3.875974
H    -3.904868  0.921442  4.722417
N    -1.226520  0.670812  4.531432
C    -0.558211  1.124179  5.728624
H    -1.779149  -0.239915  4.532941
H    -1.139860  1.892165  6.267504
H    0.419278  1.567398  5.488824
H    -0.409541  0.265217  6.393504
