27
Energy: -19683.6508799 eV PBE+vdW (tier 2 basis)
C    -1.031760  -0.930258  -0.156954
C    -1.156536  -1.331424  1.310052
O    -0.578137  -2.339820  1.746673
H    -1.299781  -1.793926  -0.778945
H    -1.668858  -0.077068  -0.419845
H    0.016404  -0.682210  -0.374752
N    -1.896319  -0.477523  2.045028
C    -2.357163  -0.723367  3.408917
C    -1.363099  -1.473484  4.312412
O    -1.661561  -2.497042  4.925433
H    -2.539851  0.262102  1.603535
H    -2.464237  0.284527  3.850166
C    -3.755232  -1.372846  3.421710
C    -4.696390  -0.851464  2.315600
C    -4.770020  0.702234  2.177692
O    -3.792036  1.250143  1.543086
O    -5.749516  1.286314  2.683563
H    -4.202777  -1.190283  4.409873
H    -3.633662  -2.461436  3.330476
H    -5.708460  -1.224226  2.522094
H    -4.377039  -1.271472  1.348881
N    -0.148773  -0.865545  4.543233
C    0.452283  0.233646  3.812182
H    0.478946  -1.476896  5.056182
H    -0.299334  0.995242  3.578287
H    0.915355  -0.087314  2.864519
H    1.221553  0.700398  4.442903
