27
Energy: -19683.144826 eV PBE+vdW (tier 2 basis)
C    -0.282978  0.445224  -0.050228
C    -0.058836  0.006281  1.382583
O    1.079421  -0.186304  1.825255
H    -0.678881  -0.394574  -0.638553
H    -0.995780  1.273400  -0.132867
H    0.683316  0.743260  -0.466233
N    -1.151315  -0.190345  2.179733
C    -2.599537  -0.109682  1.898411
C    -2.996190  -1.270942  0.939038
O    -2.875661  -2.423656  1.376626
H    -0.894470  -0.596617  3.073371
H    -3.054520  -0.462282  2.835409
C    -3.117132  1.316818  1.679322
C    -4.641171  1.445932  1.788221
C    -5.221528  2.656030  0.967130
O    -6.168465  3.283113  1.495521
O    -4.678726  2.834888  -0.166711
H    -2.815884  1.740650  0.713673
H    -2.637178  1.943355  2.447218
H    -4.960206  1.531258  2.836516
H    -5.132658  0.542388  1.385417
N    -3.455728  -1.090871  -0.333126
C    -3.654886  0.060987  -1.210401
H    -3.625232  -2.001191  -0.753771
H    -4.442671  -0.203306  -1.927202
H    -3.989652  0.979871  -0.697440
H    -2.743320  0.296158  -1.783614
