27
Energy: -19683.8195807 eV PBE+vdW (tier 2 basis)
C    -0.443844  -0.013057  0.063604
C    -0.440387  -0.345094  1.552144
O    0.209294  -1.303718  1.993739
H    0.513905  0.453272  -0.209461
H    -1.260645  0.665581  -0.211057
H    -0.529171  -0.948058  -0.502741
N    -1.156455  0.531537  2.308207
C    -1.565899  0.224024  3.682359
C    -0.402846  -0.023812  4.650712
O    -0.506844  -0.725469  5.656475
H    -1.989929  1.042126  1.850828
H    -2.031714  1.161493  4.032636
C    -2.657628  -0.862960  3.740030
C    -3.692925  -0.743140  2.601168
C    -4.273856  0.687542  2.360223
O    -5.424405  0.923606  2.779266
O    -3.504399  1.510438  1.733828
H    -3.158583  -0.783094  4.714517
H    -2.183725  -1.854419  3.708428
H    -4.532380  -1.414508  2.824892
H    -3.233430  -1.092491  1.662446
N    0.723395  0.701760  4.360959
C    1.968581  0.472614  5.056112
H    0.748467  1.091587  3.423656
H    1.730121  0.047291  6.037909
H    2.516642  1.415412  5.194815
H    2.616547  -0.240958  4.519647
