27
Energy: -19683.4369411 eV PBE+vdW (tier 2 basis)
C    -0.083213  -2.023127  2.112725
C    0.003218  -0.537799  2.398747
O    0.928153  -0.066900  3.074255
H    -1.108257  -2.394922  2.225823
H    0.594432  -2.533949  2.803621
H    0.247570  -2.223053  1.083879
N    -0.948565  0.297258  1.877938
C    -2.160871  0.091068  1.069742
C    -3.303577  -0.470498  1.938860
O    -3.235534  -1.582189  2.480625
H    -0.757186  1.265216  2.118744
H    -2.425938  1.090473  0.695983
C    -1.980796  -0.740515  -0.212574
C    -3.109208  -0.515187  -1.235852
C    -3.142557  0.908357  -1.886349
O    -3.146282  0.950728  -3.137439
O    -3.172435  1.892391  -1.072539
H    -1.915005  -1.809483  0.036128
H    -1.019700  -0.444746  -0.662331
H    -4.086470  -0.700233  -0.755171
H    -3.008832  -1.253484  -2.042411
N    -4.413726  0.303261  2.104279
C    -4.707468  1.636758  1.593713
H    -5.097812  -0.137847  2.712936
H    -4.395413  2.423286  2.301721
H    -5.792038  1.722374  1.445090
H    -4.218929  1.804126  0.615142
