27
Energy: -19683.8986847 eV PBE+vdW (tier 2 basis)
C    0.086975  -0.985689  0.479963
C    -0.094616  0.127739  1.492946
O    0.879181  0.762198  1.916682
H    0.930619  -0.721628  -0.166952
H    -0.801246  -1.188789  -0.127091
H    0.326020  -1.903894  1.031156
N    -1.355651  0.425187  1.930182
C    -2.633963  -0.227797  1.666146
C    -2.660677  -1.713301  2.138611
O    -1.684495  -2.270395  2.659916
H    -1.340980  1.116930  2.671896
H    -3.345907  0.278687  2.335975
C    -3.165574  -0.006836  0.217288
C    -4.329481  0.982992  0.130670
C    -5.700483  0.531806  0.731092
O    -5.807991  -0.688133  1.107688
O    -6.587459  1.407371  0.764254
H    -2.330350  0.363696  -0.394374
H    -3.479009  -0.968010  -0.212088
H    -4.058622  1.942154  0.600508
H    -4.527931  1.222657  -0.926605
N    -3.863303  -2.284140  1.949066
C    -4.127103  -3.632559  2.393674
H    -4.656757  -1.675688  1.568150
H    -3.940039  -3.752517  3.473336
H    -3.491305  -4.366389  1.872599
H    -5.178339  -3.864248  2.186618
