27
Energy: -19683.9613221 eV PBE+vdW (tier 2 basis)
C    -1.486839  0.128789  -0.573653
C    -0.532212  -0.579245  0.376713
O    0.350730  -1.326322  -0.062307
H    -2.446239  -0.405258  -0.613624
H    -1.037928  0.114899  -1.571330
H    -1.699483  1.164063  -0.274103
N    -0.698059  -0.379486  1.712815
C    -1.535053  0.599251  2.404960
C    -0.898748  0.759431  3.815468
O    0.317451  0.535049  3.962490
H    0.081003  -0.704209  2.290222
H    -1.396608  1.592287  1.931829
C    -3.042022  0.292335  2.395773
C    -3.514545  -0.930059  3.204467
C    -4.485821  -0.572787  4.374716
O    -5.386435  -1.388088  4.645335
O    -4.249564  0.543853  4.967452
H    -3.364878  0.197801  1.350307
H    -3.554869  1.184191  2.785993
H    -2.652372  -1.454396  3.650612
H    -4.014082  -1.667724  2.565216
N    -1.715554  1.187566  4.789476
C    -1.181066  1.353615  6.127919
H    -2.788537  1.009998  4.748036
H    -2.023822  1.517103  6.808903
H    -0.497309  2.214691  6.184090
H    -0.616137  0.466653  6.455224
