27
Energy: -19683.8029661 eV PBE+vdW (tier 2 basis)
C    0.130617  -0.190554  0.338378
C    0.049840  0.151463  1.818303
O    1.077812  0.435088  2.467039
H    0.765250  0.552115  -0.161092
H    -0.856918  -0.217994  -0.137212
H    0.618434  -1.169611  0.222280
N    -1.192131  0.064799  2.338951
C    -1.488704  0.591705  3.659927
C    -1.894992  -0.464930  4.711998
O    -2.740843  -0.222113  5.579192
H    -2.063549  0.092558  1.660229
H    -0.554137  1.040809  4.046243
C    -2.559992  1.696330  3.550316
C    -3.942589  1.297677  2.989095
C    -4.119665  1.114621  1.451215
O    -5.117910  1.649431  0.930890
O    -3.250102  0.388350  0.836776
H    -2.126488  2.500927  2.935746
H    -2.708415  2.103633  4.560084
H    -4.668493  2.064029  3.290506
H    -4.270000  0.363748  3.474492
N    -1.277594  -1.688469  4.709877
C    -0.138978  -2.181567  3.950949
H    -1.641597  -2.282012  5.448075
H    -0.440387  -2.637046  2.995199
H    0.371671  -2.943632  4.555689
H    0.579122  -1.379760  3.737357
