27
Energy: -19683.9534092 eV PBE+vdW (tier 2 basis)
C    0.288597  -0.735569  0.729406
C    -0.029532  -0.097959  2.067641
O    0.873506  0.254143  2.838183
H    1.341915  -1.031559  0.748347
H    0.142717  -0.007319  -0.080614
H    -0.348149  -1.608734  0.546864
N    -1.336495  0.122124  2.408687
C    -2.614893  -0.240392  1.791150
C    -2.919850  -1.760172  1.885778
O    -2.038824  -2.630610  1.802855
H    -1.404776  0.528048  3.336602
H    -3.370864  0.266426  2.406505
C    -2.803506  0.313158  0.358831
C    -4.243899  0.220358  -0.181702
C    -5.301299  0.883357  0.751799
O    -5.734336  0.149117  1.715842
O    -5.622526  2.063517  0.511277
H    -2.496781  1.370210  0.384185
H    -2.127788  -0.204690  -0.336759
H    -4.274267  0.734575  -1.151781
H    -4.508275  -0.834860  -0.350552
N    -4.233365  -2.011478  2.047190
C    -4.731762  -3.367319  2.014417
H    -4.916440  -1.180756  1.948956
H    -4.474133  -3.880832  1.072666
H    -5.823316  -3.337883  2.115415
H    -4.313658  -3.970900  2.834813
