27
Energy: -19683.4225095 eV PBE+vdW (tier 2 basis)
C    -0.506545  -0.124448  -0.171457
C    -0.212195  -0.324804  1.318781
O    0.925396  -0.642631  1.682209
H    0.363401  -0.477366  -0.733001
H    -0.669197  0.939094  -0.397154
H    -1.398881  -0.676590  -0.504037
N    -1.238351  -0.130362  2.185616
C    -2.600498  0.170082  1.806195
C    -2.763880  1.554286  1.148597
O    -2.097495  2.540823  1.446940
H    -1.128037  -0.389548  3.215389
H    -2.974955  -0.593980  1.098728
C    -3.522558  0.133546  3.046564
C    -3.645517  -1.237944  3.725143
C    -2.564595  -1.572151  4.810723
O    -2.889672  -2.447676  5.641215
O    -1.469110  -0.925014  4.736604
H    -4.518860  0.484358  2.729537
H    -3.138878  0.871533  3.766427
H    -3.612330  -2.043937  2.971174
H    -4.626197  -1.325336  4.214403
N    -3.758664  1.656644  0.198437
C    -4.628729  0.616311  -0.318226
H    -3.854685  2.594596  -0.174955
H    -5.341019  1.075573  -1.014515
H    -5.209921  0.124741  0.475770
H    -4.074849  -0.160523  -0.869213
