27
Energy: -19683.2451907 eV PBE+vdW (tier 2 basis)
C    -0.000600  1.623411  0.578059
C    0.112777  0.128845  0.753951
O    1.185969  -0.470860  0.631607
H    -0.592663  2.098493  1.373618
H    1.008157  2.046393  0.565800
H    -0.507029  1.806315  -0.387080
N    -1.036996  -0.575184  1.007812
C    -2.338954  -0.108746  1.492054
C    -3.168297  -1.273938  2.056776
O    -3.854569  -1.084661  3.069417
H    -0.851942  -1.570516  1.060911
H    -2.179358  0.515301  2.386599
C    -3.208217  0.752356  0.533250
C    -3.623144  0.136518  -0.800076
C    -2.434844  -0.013950  -1.810035
O    -2.254623  -1.166348  -2.294231
O    -1.787774  1.046196  -2.032705
H    -2.663745  1.681017  0.314470
H    -4.089706  1.033630  1.132807
H    -4.139459  -0.824866  -0.662088
H    -4.348128  0.820924  -1.269438
N    -3.162975  -2.507181  1.466150
C    -2.585091  -3.025589  0.225411
H    -3.741392  -3.149374  2.000331
H    -3.278515  -3.771442  -0.184667
H    -1.620126  -3.529960  0.405268
H    -2.449801  -2.261434  -0.560999
