27
Energy: -19683.4118064 eV PBE+vdW (tier 2 basis)
C    -0.161933  2.279957  2.621290
C    0.428058  1.045654  1.986991
O    1.642840  0.902752  1.808507
H    -0.885976  2.028855  3.410238
H    0.656451  2.866863  3.048348
H    -0.703137  2.884014  1.865649
N    -0.436304  0.059108  1.574953
C    -1.888808  -0.064620  1.762351
C    -2.313571  -1.465031  1.296188
O    -2.829654  -2.289364  2.052308
H    0.047449  -0.731665  1.160702
H    -2.123875  -0.057261  2.838378
C    -2.729926  1.041840  1.070987
C    -2.370377  1.419551  -0.368131
C    -2.399733  2.983883  -0.633384
O    -2.651664  3.317658  -1.813972
O    -2.126876  3.705960  0.367919
H    -2.634388  1.969171  1.654422
H    -3.785799  0.736234  1.146188
H    -3.020914  0.941358  -1.114022
H    -1.327892  1.133240  -0.597409
N    -2.064771  -1.714959  -0.026873
C    -2.509949  -2.928566  -0.677834
H    -1.846800  -0.904610  -0.605052
H    -2.666949  -3.688335  0.095630
H    -3.460178  -2.783556  -1.217048
H    -1.752715  -3.282764  -1.390252
