27
Energy: -19683.4432173 eV PBE+vdW (tier 2 basis)
C    -0.493128  0.235808  -0.198843
C    0.076529  0.348974  1.210722
O    1.298628  0.378850  1.401036
H    0.345193  0.123659  -0.892100
H    -1.061414  1.138447  -0.468597
H    -1.172670  -0.620714  -0.302301
N    -0.814776  0.426486  2.230915
C    -2.270304  0.458940  2.164759
C    -2.719691  1.277945  3.392861
O    -1.951433  1.454694  4.345596
H    -0.442863  0.596463  3.167223
H    -2.570623  1.008433  1.258119
C    -2.918584  -0.953999  2.115424
C    -3.068477  -1.680793  3.456077
C    -4.508048  -1.600353  4.095766
O    -4.572176  -1.924599  5.303543
O    -5.453537  -1.255041  3.319376
H    -2.316187  -1.540820  1.404134
H    -3.933959  -0.873503  1.696287
H    -2.341614  -1.338703  4.205998
H    -2.868459  -2.754735  3.317777
N    -3.968339  1.810734  3.382926
C    -5.041527  1.594878  2.418045
H    -4.238620  2.160227  4.297527
H    -5.500565  0.598237  2.561566
H    -4.654137  1.685225  1.393851
H    -5.787533  2.387657  2.558164
