27
Energy: -19683.2460024 eV PBE+vdW (tier 2 basis)
C    -0.497402  0.375938  -0.184618
C    -0.141843  0.124264  1.274805
O    1.027399  0.166169  1.667890
H    0.433479  0.542221  -0.733428
H    -1.143455  1.259238  -0.290754
H    -1.028991  -0.479544  -0.625055
N    -1.174798  -0.169284  2.113345
C    -2.604689  -0.136038  1.816543
C    -3.108608  1.321533  1.815963
O    -2.786087  2.110971  2.702792
H    -0.914754  -0.239903  3.093412
H    -2.757782  -0.597201  0.830958
C    -3.380908  -0.971613  2.850310
C    -4.859071  -1.171614  2.532864
C    -5.551783  -2.307658  3.385895
O    -6.808095  -2.255626  3.395524
O    -4.774226  -3.143502  3.919909
H    -3.267038  -0.496373  3.837926
H    -2.919524  -1.967927  2.924975
H    -4.978004  -1.485091  1.480190
H    -5.443167  -0.247732  2.659600
N    -3.912289  1.732649  0.780749
C    -4.518787  0.943195  -0.279189
H    -4.285528  2.664341  0.937161
H    -4.918957  1.631187  -1.034233
H    -5.333886  0.298827  0.081055
H    -3.772079  0.310558  -0.776312
