27
Energy: -19683.5130286 eV PBE+vdW (tier 2 basis)
C    0.706517  0.029177  0.747058
C    0.157246  -0.198247  2.150359
O    0.909742  -0.343910  3.115292
H    1.385984  0.890152  0.771349
H    -0.069127  0.206702  -0.009204
H    1.294583  -0.850417  0.454785
N    -1.199456  -0.205060  2.242599
C    -1.918642  -0.517774  3.472206
C    -1.948921  -2.048325  3.659211
O    -2.325858  -2.790056  2.741090
H    -1.738029  -0.248013  1.384963
H    -1.383148  -0.026577  4.292515
C    -3.346667  0.047728  3.391581
C    -4.140002  -0.118516  4.687084
C    -3.559733  0.745605  5.864174
O    -3.413486  0.146303  6.969205
O    -3.300075  1.943294  5.576354
H    -3.858521  -0.440075  2.542923
H    -3.261474  1.125776  3.188376
H    -4.200330  -1.173451  4.992614
H    -5.171623  0.225464  4.508365
N    -1.557955  -2.541022  4.859898
C    -1.048329  -1.814822  6.023988
H    -1.648926  -3.549725  4.923177
H    -0.174722  -1.208506  5.746884
H    -1.821726  -1.176726  6.487213
H    -0.721587  -2.559865  6.759660
