27
Energy: -19684.113602 eV PBE+vdW (tier 2 basis)
C    -0.412811  -1.698419  1.436166
C    -0.078196  -0.265687  1.819036
O    1.071877  0.055223  2.148104
H    -0.995422  -2.184941  2.230696
H    0.526197  -2.242681  1.300741
H    -1.013903  -1.758333  0.518765
N    -1.093328  0.636275  1.799892
C    -2.472927  0.480911  1.367822
C    -2.976037  1.923151  1.080801
O    -2.260619  2.913977  1.319406
H    -0.846037  1.619004  1.955492
H    -2.511260  -0.065412  0.410271
C    -3.393797  -0.259942  2.389106
C    -4.053088  -1.547369  1.881509
C    -5.138891  -1.461534  0.761063
O    -5.500278  -0.301402  0.353214
O    -5.581574  -2.558144  0.368185
H    -4.176382  0.430809  2.734574
H    -2.773878  -0.487061  3.270161
H    -4.546709  -2.048526  2.729564
H    -3.296563  -2.264005  1.528317
N    -4.214670  1.966676  0.581444
C    -4.862966  3.225116  0.294074
H    -4.757335  1.037202  0.494292
H    -5.003322  3.835242  1.201829
H    -5.844958  3.013435  -0.144478
H    -4.276121  3.829434  -0.415046
