27
Energy: -19683.3696114 eV PBE+vdW (tier 2 basis)
C    0.687907  0.531921  0.828699
C    0.345149  -0.110882  2.178620
O    1.256862  -0.444540  2.944666
H    0.390797  1.590549  0.813617
H    0.188267  0.033537  -0.016390
H    1.771422  0.465605  0.693127
N    -0.967772  -0.287700  2.465464
C    -2.056917  0.056824  1.583319
C    -2.240366  1.579195  1.398747
O    -1.940221  2.416818  2.242699
H    -1.281982  -0.754006  3.387629
H    -1.875216  -0.372574  0.580851
C    -3.383702  -0.564607  2.092453
C    -3.862029  -0.136910  3.491026
C    -3.324300  -1.007285  4.672525
O    -4.111094  -1.200924  5.623565
O    -2.125131  -1.433393  4.555364
H    -3.250301  -1.656990  2.071271
H    -4.163009  -0.325081  1.350257
H    -4.959142  -0.172138  3.531033
H    -3.575125  0.908319  3.690935
N    -2.808402  1.980427  0.205552
C    -3.087699  1.186248  -0.976189
H    -2.899369  2.988370  0.136342
H    -2.175441  0.766875  -1.432294
H    -3.569015  1.831316  -1.721459
H    -3.777903  0.357396  -0.763663
