27
Energy: -19683.2375797 eV PBE+vdW (tier 2 basis)
C    -0.830446  -2.137588  0.208477
C    -0.314910  -1.205814  1.307531
O    0.631419  -1.538655  2.015194
H    -0.092388  -2.148696  -0.605093
H    -1.805638  -1.849993  -0.207600
H    -0.897735  -3.153827  0.613789
N    -1.009656  -0.033998  1.403899
C    -0.723335  1.142008  2.226731
C    0.333109  2.016216  1.520942
O    1.255304  1.526969  0.861878
H    -1.752247  0.093112  0.728199
H    -1.679305  1.684792  2.322860
C    -0.331723  0.793295  3.684189
C    -0.675142  1.879409  4.719110
C    -2.203285  2.166860  4.883912
O    -2.690136  2.009170  6.026538
O    -2.813085  2.542665  3.823960
H    0.733457  0.530032  3.726768
H    -0.884748  -0.120572  3.946948
H    -0.157696  2.821736  4.469997
H    -0.285997  1.555499  5.693877
N    0.242359  3.376266  1.661203
C    -0.856908  4.206467  2.132725
H    1.002527  3.840756  1.170638
H    -1.595022  3.617903  2.711275
H    -0.472154  4.995818  2.795270
H    -1.376771  4.689661  1.287652
