27
Energy: -19683.1002952 eV PBE+vdW (tier 2 basis)
C    0.088755  -0.388765  0.072487
C    -0.106477  0.194794  1.451112
O    0.674981  1.059094  1.874769
H    1.080784  -0.861268  0.050874
H    0.133334  0.455275  -0.627887
H    -0.657999  -1.098028  -0.305525
N    -1.144287  -0.185663  2.272186
C    -2.225711  -1.188240  2.310686
C    -1.956157  -2.247914  3.400233
O    -2.767884  -2.416275  4.317247
H    -1.088844  0.356879  3.131881
H    -3.095292  -0.651369  2.719155
C    -2.680088  -1.844718  0.999842
C    -3.276672  -0.907692  -0.052208
C    -3.066698  -1.431230  -1.526641
O    -2.041894  -2.154562  -1.706143
O    -3.917100  -1.041512  -2.361277
H    -1.877822  -2.410468  0.505562
H    -3.431633  -2.594030  1.294100
H    -2.799305  0.085357  -0.008716
H    -4.349307  -0.740489  0.115736
N    -0.825099  -3.015962  3.342254
C    0.273293  -3.001846  2.389162
H    -0.759678  -3.654557  4.127937
H    -0.090153  -2.959676  1.356848
H    0.962530  -2.160055  2.553427
H    0.835207  -3.936862  2.501820
