27
Energy: -19684.0525754 eV PBE+vdW (tier 2 basis)
C    -0.868431  0.403623  -0.121399
C    -0.537382  -0.186993  1.244074
O    0.573506  -0.025585  1.763233
H    -1.940204  0.364117  -0.353250
H    -0.315565  -0.152273  -0.891389
H    -0.521429  1.443728  -0.149045
N    -1.555270  -0.899441  1.790151
C    -1.498447  -1.447044  3.140874
C    -1.792330  -2.969643  3.091801
O    -0.870506  -3.769111  2.878893
H    -2.502611  -0.799947  1.382636
H    -0.441778  -1.393947  3.431451
C    -2.349740  -0.608256  4.141845
C    -3.502570  0.208181  3.522473
C    -4.453574  -0.668077  2.661798
O    -5.180043  -1.486196  3.304533
O    -4.354260  -0.562579  1.404975
H    -1.667932  0.088301  4.653452
H    -2.751788  -1.278593  4.915264
H    -3.094817  1.021817  2.906448
H    -4.083671  0.657321  4.341581
N    -3.071538  -3.367715  3.283226
C    -3.435035  -4.760917  3.147398
H    -3.849545  -2.687309  3.367827
H    -4.527790  -4.833742  3.187585
H    -3.002548  -5.375595  3.952913
H    -3.076791  -5.176100  2.193065
