27
Energy: -19683.3750496 eV PBE+vdW (tier 2 basis)
C    -0.614004  -0.746201  0.202072
C    -0.222159  -0.556573  1.667037
O    0.934164  -0.748847  2.037009
H    -0.163759  0.067722  -0.382079
H    -1.697590  -0.749098  0.023096
H    -0.188195  -1.691173  -0.154805
N    -1.254432  -0.174029  2.471468
C    -1.205217  0.176238  3.885403
C    -0.616400  1.583292  4.079994
O    -0.013725  2.194164  3.194158
H    -2.153059  -0.058694  2.023061
H    -2.253704  0.193989  4.233311
C    -0.551386  -0.916639  4.761810
C    -1.393903  -2.194429  4.810460
C    -2.845553  -2.070176  5.391376
O    -3.234518  -0.904820  5.735753
O    -3.489312  -3.142187  5.454318
H    -0.447622  -0.514611  5.778310
H    0.459767  -1.119218  4.385222
H    -1.479322  -2.637287  3.805364
H    -0.872240  -2.951856  5.415611
N    -0.805324  2.161135  5.309534
C    -1.656392  1.744776  6.415438
H    -0.376888  3.080807  5.359000
H    -1.062848  1.581408  7.329643
H    -2.192970  0.807675  6.185267
H    -2.409133  2.520140  6.629026
