27
Energy: -19683.062312 eV PBE+vdW (tier 2 basis)
C    0.310432  -0.068382  0.027657
C    0.470822  -0.297653  1.523967
O    1.541759  -0.700407  1.994925
H    -0.312473  -0.859897  -0.412277
H    -0.159652  0.897552  -0.197936
H    1.305045  -0.105484  -0.425926
N    -0.611629  -0.057425  2.309084
C    -1.940807  0.436136  1.947566
C    -2.608626  -0.530639  0.960701
O    -2.592287  -1.742630  1.192981
H    -0.460971  -0.251923  3.294616
H    -2.537810  0.325583  2.885660
C    -1.987936  1.969248  1.771137
C    -3.347211  2.571979  2.155623
C    -3.744992  2.412910  3.670546
O    -4.592929  3.234585  4.086399
O    -3.188130  1.462678  4.305123
H    -1.656339  2.298021  0.773450
H    -1.240716  2.358439  2.477428
H    -4.170749  2.121409  1.575207
H    -3.364406  3.646326  1.924113
N    -3.320166  -0.097556  -0.143061
C    -3.227260  1.112832  -0.946573
H    -3.716012  -0.906032  -0.613982
H    -3.924882  1.006496  -1.786381
H    -3.521539  2.004712  -0.383011
H    -2.219780  1.273069  -1.363863
