27
Energy: -19684.1988089 eV PBE+vdW (tier 2 basis)
C    -0.294568  -1.383812  0.437119
C    0.063584  -0.118465  1.203185
O    1.239627  0.163211  1.468955
H    -0.643884  -1.133385  -0.575316
H    -1.096495  -1.963091  0.912926
H    0.607252  -1.997490  0.357617
N    -0.965703  0.692528  1.562498
C    -2.384410  0.524054  1.291356
C    -2.986689  1.939826  1.152145
O    -2.452378  2.918650  1.704829
H    -0.727941  1.590105  1.987321
H    -2.525016  -0.002144  0.337864
C    -3.093269  -0.286878  2.407062
C    -4.575950  -0.605253  2.147401
C    -4.803663  -1.252547  0.748095
O    -4.999035  -0.429790  -0.221270
O    -4.742728  -2.495641  0.672173
H    -2.974165  0.261872  3.355492
H    -2.542403  -1.233302  2.518548
H    -5.177900  0.311220  2.237486
H    -4.917361  -1.312680  2.915292
N    -4.111453  1.980982  0.421276
C    -4.868681  3.205345  0.296027
H    -4.536879  1.038395  0.102494
H    -5.189210  3.595428  1.276456
H    -5.758019  3.001200  -0.311936
H    -4.278666  3.997663  -0.190094
