27
Energy: -19683.0555872 eV PBE+vdW (tier 2 basis)
C    -0.578428  0.954107  0.600728
C    0.011811  0.012036  1.616220
O    1.221698  -0.011570  1.873802
H    0.240224  1.549390  0.186070
H    -1.343538  1.627054  1.027232
H    -1.058220  0.383808  -0.205224
N    -0.818309  -0.843742  2.311901
C    -2.230661  -1.187055  2.176298
C    -2.482674  -2.099184  0.955852
O    -1.725852  -2.158610  -0.009609
H    -0.267549  -1.474920  2.885246
H    -2.428374  -1.807852  3.064829
C    -3.215745  0.024464  2.240430
C    -3.950389  0.455887  0.969400
C    -4.226421  2.010284  0.929577
O    -5.277691  2.356687  0.337671
O    -3.336558  2.728608  1.470271
H    -2.649880  0.902884  2.584412
H    -3.953789  -0.180310  3.030910
H    -4.911542  -0.061773  0.839570
H    -3.352946  0.231751  0.071746
N    -3.600377  -2.901407  1.008041
C    -4.691024  -2.869481  1.965747
H    -3.775775  -3.364157  0.121234
H    -5.373084  -2.018261  1.811926
H    -4.307633  -2.819549  2.992883
H    -5.264471  -3.800707  1.875520
