27
Energy: -19683.8978595 eV PBE+vdW (tier 2 basis)
C    -0.467687  -1.456322  0.396371
C    0.009872  -0.372462  1.342713
O    1.208482  -0.078109  1.434437
H    -0.697191  -2.364892  0.971003
H    0.344634  -1.670947  -0.303995
H    -1.374848  -1.182775  -0.154723
N    -0.917861  0.261297  2.117751
C    -2.379695  0.119773  2.178574
C    -2.773195  -1.367511  2.412346
O    -2.244977  -1.989091  3.349439
H    -0.492387  0.918524  2.762768
H    -2.659291  0.601144  3.129785
C    -3.082543  0.896768  1.047714
C    -4.589921  1.160966  1.250976
C    -5.519145  0.511097  0.178332
O    -5.163001  -0.657621  -0.215088
O    -6.518516  1.158194  -0.186229
H    -2.548583  1.853973  0.957520
H    -2.939909  0.372370  0.091734
H    -4.919170  0.766439  2.228432
H    -4.799825  2.237570  1.269774
N    -3.683712  -1.889906  1.576570
C    -4.136623  -3.249950  1.773617
H    -4.203812  -1.322139  0.815046
H    -4.474771  -3.417766  2.807860
H    -3.334138  -3.979280  1.574922
H    -4.967185  -3.433346  1.082351
