27
Energy: -19683.7038471 eV PBE+vdW (tier 2 basis)
C    -1.182079  -0.183981  0.216436
C    -0.354746  -0.451553  1.461281
O    0.556315  -1.290075  1.476151
H    -0.766066  0.688251  -0.311550
H    -2.241561  0.042213  0.412586
H    -1.087614  -1.052727  -0.442432
N    -0.632936  0.303411  2.562435
C    -1.736114  1.238962  2.738717
C    -1.259709  2.308048  3.724765
O    -0.630364  1.992104  4.744311
H    -0.075675  0.113862  3.393089
H    -1.992874  1.675187  1.767625
C    -3.017274  0.541699  3.261318
C    -4.260186  1.428457  3.236176
C    -4.631748  2.001379  1.822468
O    -5.358768  3.029708  1.833012
O    -4.155848  1.384662  0.824611
H    -2.813113  0.153050  4.272723
H    -3.183614  -0.318494  2.597896
H    -4.176827  2.268959  3.942412
H    -5.126768  0.840482  3.580529
N    -1.554838  3.610456  3.462057
C    -2.268184  4.202371  2.333370
H    -1.276329  4.228987  4.218023
H    -3.362510  4.178500  2.448841
H    -1.933398  5.242180  2.225864
H    -2.029653  3.675192  1.403092
