27
Energy: -19683.0914283 eV PBE+vdW (tier 2 basis)
C    -1.479810  -1.518441  1.387057
C    -0.481980  -0.487271  1.852895
O    0.706756  -0.747115  2.056104
H    -0.936632  -2.421380  1.094310
H    -2.100022  -1.172947  0.547096
H    -2.147644  -1.720841  2.248630
N    -0.961620  0.776455  2.100754
C    -2.272502  1.341993  1.782621
C    -2.035451  2.809070  1.359269
O    -2.483422  3.779233  1.966645
H    -0.309451  1.357357  2.619803
H    -2.622640  0.825783  0.873179
C    -3.369531  1.194292  2.854870
C    -2.887262  1.182537  4.304449
C    -2.474261  -0.235750  4.849961
O    -1.824566  -0.221797  5.922736
O    -2.870229  -1.236257  4.175983
H    -3.864580  0.224674  2.694637
H    -4.099659  1.997967  2.676589
H    -3.705050  1.529588  4.956183
H    -2.058132  1.882918  4.482243
N    -1.279903  3.000188  0.223765
C    -0.620594  2.015488  -0.616480
H    -1.098213  3.980963  0.037884
H    0.320761  1.642776  -0.185985
H    -0.411066  2.473976  -1.591612
H    -1.271128  1.149085  -0.792352
