27
Energy: -19683.9708252 eV PBE+vdW (tier 2 basis)
C    -0.078699  0.800850  -0.091855
C    -0.474213  -0.562678  0.448011
O    -0.026928  -1.607849  -0.038693
H    0.433025  1.377041  0.690249
H    -0.956755  1.376996  -0.419205
H    0.585482  0.643482  -0.946464
N    -1.363603  -0.592945  1.481397
C    -1.934226  0.510682  2.249277
C    -0.987438  0.916918  3.419982
O    0.210735  1.138775  3.171240
H    -1.548794  -1.529495  1.832606
H    -1.929695  1.394389  1.593075
C    -3.399018  0.207136  2.599492
C    -3.669305  -1.051518  3.454966
C    -4.378638  -0.750141  4.814827
O    -5.270558  -1.533814  5.188586
O    -3.943264  0.288135  5.429756
H    -3.943801  0.128406  1.646768
H    -3.808316  1.080402  3.127143
H    -2.724253  -1.558220  3.721176
H    -4.271175  -1.786433  2.907484
N    -1.542293  1.053021  4.634439
C    -0.719671  1.452339  5.757520
H    -2.556313  0.762283  4.870205
H    -0.322048  2.471531  5.628041
H    0.144892  0.782387  5.885268
H    -1.341130  1.419319  6.659708
