27
Energy: -19683.4716683 eV PBE+vdW (tier 2 basis)
C    0.022428  0.087663  -0.094786
C    0.012494  0.212284  1.423675
O    1.024101  0.543308  2.045673
H    0.842966  -0.578452  -0.388884
H    0.228053  1.076396  -0.525429
H    -0.919794  -0.290160  -0.512286
N    -1.187611  -0.044237  2.007746
C    -1.399383  -0.059481  3.445043
C    -2.245109  -1.304916  3.746172
O    -2.890017  -1.890241  2.867635
H    -1.924593  -0.498280  1.473493
H    -0.409488  -0.150063  3.919077
C    -2.070628  1.244746  3.952698
C    -2.151296  1.415785  5.467122
C    -2.456712  2.898344  5.949503
O    -2.785863  2.976982  7.160728
O    -2.321271  3.801544  5.085652
H    -3.074344  1.321311  3.504971
H    -1.495308  2.092700  3.554675
H    -1.187723  1.143590  5.938535
H    -2.928165  0.786053  5.926244
N    -2.232954  -1.699969  5.049728
C    -3.152134  -2.696128  5.561636
H    -1.840156  -1.031044  5.708583
H    -2.643201  -3.359842  6.273630
H    -3.516558  -3.285904  4.713866
H    -4.015995  -2.233605  6.065138
