27
Energy: -19683.3110116 eV PBE+vdW (tier 2 basis)
C    -0.075771  0.229678  0.457761
C    0.156727  0.025179  1.944123
O    1.180070  0.444774  2.494387
H    0.561193  1.056526  0.130527
H    -1.120962  0.448074  0.207654
H    0.215283  -0.682679  -0.081200
N    -0.782580  -0.667281  2.652115
C    -2.091482  -1.179355  2.239946
C    -1.955041  -2.120532  1.013470
O    -1.014076  -2.904615  0.884865
H    -0.554687  -0.737892  3.637950
H    -2.381962  -1.872944  3.048235
C    -3.191258  -0.111171  2.171032
C    -3.510473  0.585764  3.491820
C    -5.012272  1.079260  3.560082
O    -5.241008  1.965512  4.418022
O    -5.813497  0.502974  2.767995
H    -4.165989  -0.556865  1.892686
H    -2.950470  0.638189  1.399252
H    -2.844891  1.433649  3.699653
H    -3.387092  -0.123192  4.331031
N    -2.979398  -2.037721  0.117961
C    -3.075260  -2.898805  -1.038657
H    -3.724411  -1.378858  0.319625
H    -3.974690  -3.531327  -0.996209
H    -2.187056  -3.540910  -1.046222
H    -3.102700  -2.314393  -1.970392
