27
Energy: -19683.1922387 eV PBE+vdW (tier 2 basis)
C    0.329383  -0.031090  0.122889
C    -0.157776  0.665627  1.389393
O    0.093395  1.851126  1.606979
H    1.425604  0.017156  0.095917
H    -0.046244  0.519613  -0.748756
H    0.017393  -1.080768  0.044924
N    -0.870110  -0.129427  2.232630
C    -1.500533  0.321158  3.463752
C    -0.533128  0.522145  4.652709
O    -0.575400  1.574873  5.294395
H    -1.101400  -1.072132  1.934635
H    -1.859716  1.343018  3.288778
C    -2.704952  -0.598640  3.864818
C    -2.822038  -2.001287  3.246514
C    -3.228111  -3.123373  4.288942
O    -3.999291  -4.010019  3.854332
O    -2.676185  -3.015702  5.421295
H    -3.625816  -0.041970  3.645624
H    -2.671615  -0.744994  4.954371
H    -1.860281  -2.383044  2.858642
H    -3.525792  -2.021305  2.404148
N    0.352601  -0.463866  4.992854
C    0.321323  -1.883188  4.643608
H    0.845076  -0.222181  5.847409
H    0.452014  -2.022769  3.562198
H    1.173891  -2.364789  5.137869
H    -0.609923  -2.378754  4.974251
