27
Energy: -19683.7716291 eV PBE+vdW (tier 2 basis)
C    0.207071  -1.182510  -0.463206
C    0.233105  -0.632805  0.955022
O    1.102835  0.192675  1.308037
H    0.186980  -0.344215  -1.172196
H    -0.652010  -1.839847  -0.641636
H    1.135302  -1.742427  -0.641875
N    -0.731706  -1.106674  1.757131
C    -0.841225  -0.647973  3.124380
C    0.313815  -1.181508  3.995538
O    0.573490  -2.378545  4.110964
H    -1.548033  -1.762860  1.422369
H    -0.790508  0.452109  3.131684
C    -2.211933  -1.055132  3.715960
C    -2.628929  -2.536665  3.606255
C    -3.327386  -2.965276  2.279571
O    -4.343322  -3.681556  2.378916
O    -2.788593  -2.559773  1.183603
H    -2.972570  -0.426097  3.226392
H    -2.202063  -0.758566  4.777821
H    -3.327174  -2.772543  4.419914
H    -1.744095  -3.176031  3.750585
N    1.015610  -0.247802  4.724918
C    1.118001  1.179897  4.445105
H    1.782155  -0.675168  5.235653
H    1.250300  1.357296  3.367324
H    0.236199  1.733329  4.803218
H    1.991677  1.572164  4.980915
