27
Energy: -19683.4223867 eV PBE+vdW (tier 2 basis)
C    -0.219117  -0.950095  0.076677
C    -0.074645  0.123071  1.143203
O    0.821229  0.970391  1.092426
H    -0.302578  -1.956630  0.509520
H    0.659293  -0.902977  -0.572735
H    -1.122237  -0.769611  -0.522906
N    -0.972218  0.091999  2.170102
C    -2.131997  -0.768868  2.330039
C    -3.233160  -0.433746  1.294812
O    -3.280479  0.628774  0.678291
H    -0.881019  0.863858  2.824363
H    -1.823105  -1.815882  2.169271
C    -2.657495  -0.662611  3.778818
C    -3.657420  -1.728751  4.219784
C    -3.685274  -1.972634  5.789975
O    -4.716490  -2.563153  6.196262
O    -2.671338  -1.579203  6.422952
H    -3.083226  0.343517  3.928259
H    -1.802226  -0.747944  4.469157
H    -4.688883  -1.509494  3.909536
H    -3.385945  -2.712264  3.789135
N    -4.142726  -1.443188  1.119508
C    -5.371194  -1.236915  0.379064
H    -4.141190  -2.168102  1.833849
H    -5.625723  -2.133706  -0.201858
H    -6.216690  -0.994426  1.043011
H    -5.214475  -0.394649  -0.303531
