27
Energy: -19684.0493165 eV PBE+vdW (tier 2 basis)
C    -0.320181  1.157543  0.191688
C    -0.179903  0.132103  1.311944
O    0.815872  0.120260  2.042813
H    0.581630  1.123519  -0.432257
H    -0.376597  2.159732  0.636958
H    -1.205480  1.001511  -0.437736
N    -1.232895  -0.713546  1.440054
C    -1.256008  -1.861196  2.341067
C    -2.317189  -2.818774  1.743105
O    -2.577498  -2.752657  0.522205
H    -1.865835  -0.842832  0.648272
H    -0.285552  -2.384914  2.248412
C    -1.425369  -1.482636  3.821803
C    -2.801353  -0.942171  4.253434
C    -3.586903  -1.871353  5.231965
O    -4.333010  -1.325989  6.066494
O    -3.400837  -3.135187  5.077092
H    -0.633725  -0.756030  4.046870
H    -1.201056  -2.380128  4.416646
H    -3.450242  -0.783663  3.374343
H    -2.711027  0.039337  4.734505
N    -2.867910  -3.697966  2.589517
C    -3.879926  -4.611691  2.094843
H    -2.935465  -3.474532  3.657440
H    -4.651470  -4.088672  1.507893
H    -4.349426  -5.094408  2.959315
H    -3.441644  -5.383661  1.443318
