27
Energy: -19683.2288557 eV PBE+vdW (tier 2 basis)
C    -0.087153  -0.241956  -0.428980
C    0.093138  -0.392981  1.069340
O    1.199798  -0.603765  1.576572
H    -0.946867  -0.809548  -0.808139
H    -0.269613  0.809979  -0.689627
H    0.832351  -0.577751  -0.916285
N    -1.025633  -0.273893  1.845138
C    -2.419370  -0.050023  1.447460
C    -2.643185  1.292993  0.718544
O    -3.133652  1.308615  -0.412400
H    -0.857216  -0.424987  2.836693
H    -2.712544  -0.791508  0.688665
C    -3.319608  -0.238882  2.683110
C    -4.772367  0.188270  2.520067
C    -5.649052  -0.208835  3.770273
O    -5.296034  -1.266759  4.362280
O    -6.606432  0.566825  4.020794
H    -2.879076  0.303262  3.536537
H    -3.311966  -1.300341  2.973913
H    -5.214153  -0.301089  1.635406
H    -4.867760  1.272531  2.357680
N    -2.252212  2.465860  1.312927
C    -1.891462  2.714430  2.700039
H    -2.540655  3.269696  0.763313
H    -1.470018  3.724783  2.768940
H    -1.119201  2.011910  3.032279
H    -2.752357  2.647560  3.382589
