27
Energy: -19684.1360127 eV PBE+vdW (tier 2 basis)
C    -0.654514  0.576121  0.176043
C    -0.479498  -0.180125  1.487350
O    0.645325  -0.451627  1.932071
H    -0.343926  -0.069926  -0.657760
H    0.014388  1.445692  0.181360
H    -1.688722  0.903820  0.015443
N    -1.648833  -0.538229  2.079301
C    -1.666472  -1.075098  3.430097
C    -1.404671  -2.590110  3.508708
O    -1.150196  -3.157496  4.573993
H    -2.581780  -0.042098  1.798181
H    -0.857599  -0.614807  4.021676
C    -3.031370  -0.771004  4.084225
C    -3.444916  0.712455  4.078452
C    -4.215933  1.228488  2.820256
O    -5.075021  2.109600  3.011897
O    -3.891707  0.709279  1.688381
H    -2.976466  -1.146170  5.115615
H    -3.805803  -1.364233  3.571393
H    -2.552431  1.351113  4.201687
H    -4.087403  0.921682  4.943923
N    -1.535839  -3.238916  2.319142
C    -1.302385  -4.652534  2.163099
H    -1.686622  -2.636011  1.514113
H    -2.164037  -5.154197  1.696788
H    -1.145581  -5.071168  3.164892
H    -0.406987  -4.854502  1.553672
