27
Energy: -19683.5392321 eV PBE+vdW (tier 2 basis)
C    0.285424  -0.395077  0.290978
C    0.131165  0.044437  1.750066
O    1.129682  0.372659  2.399724
H    1.353661  -0.526305  0.094852
H    -0.109401  0.372001  -0.390546
H    -0.242170  -1.335740  0.072704
N    -1.123851  0.059821  2.268927
C    -2.319266  -0.371589  1.583495
C    -2.676533  0.484557  0.350525
O    -2.574838  1.705838  0.299192
H    -1.269446  0.229179  3.316830
H    -2.212712  -1.422886  1.236183
C    -3.528332  -0.333606  2.544516
C    -3.445410  -1.300000  3.735309
C    -2.707754  -0.769919  5.012252
O    -3.017124  -1.330630  6.085291
O    -1.866619  0.171346  4.831691
H    -4.425229  -0.559066  1.944240
H    -3.633258  0.698776  2.909024
H    -2.944866  -2.237187  3.433948
H    -4.458154  -1.589720  4.049701
N    -3.176651  -0.257167  -0.695244
C    -3.674344  0.342368  -1.911060
H    -3.211076  -1.262924  -0.583151
H    -4.749221  0.150523  -2.055605
H    -3.129534  -0.020177  -2.796228
H    -3.518678  1.424148  -1.819329
