27
Energy: -19683.4033532 eV PBE+vdW (tier 2 basis)
C    -0.195356  0.260698  -0.072982
C    -0.446805  0.453702  1.412902
O    -0.176094  1.528901  1.971195
H    -0.422961  -0.751638  -0.429560
H    0.855237  0.491202  -0.288904
H    -0.812476  0.978765  -0.628601
N    -0.981009  -0.606054  2.062918
C    -1.441788  -0.578361  3.462497
C    -0.215079  -0.794272  4.388105
O    0.089331  -1.881706  4.871780
H    -1.210946  -1.441689  1.536530
H    -1.829813  0.436536  3.641764
C    -2.554238  -1.597203  3.666978
C    -3.370807  -1.408228  4.943499
C    -4.838804  -1.986984  4.836235
O    -5.281824  -2.162219  3.666304
O    -5.409527  -2.174649  5.940639
H    -2.121132  -2.610043  3.640869
H    -3.277174  -1.524884  2.836127
H    -3.487938  -0.330676  5.158679
H    -2.879752  -1.849582  5.820559
N    0.500420  0.354689  4.586835
C    1.764157  0.353635  5.290057
H    0.285692  1.121335  3.944804
H    1.845245  1.234557  5.941842
H    2.625203  0.347845  4.600546
H    1.808661  -0.554129  5.902435
