27
Energy: -19683.3986568 eV PBE+vdW (tier 2 basis)
C    -0.106476  0.643977  0.271980
C    -0.137911  0.411924  1.770979
O    0.834809  0.662728  2.492026
H    0.926831  0.852632  -0.018695
H    -0.740657  1.500069  0.002132
H    -0.491417  -0.216096  -0.291798
N    -1.295897  -0.086021  2.293714
C    -2.557065  -0.392451  1.615509
C    -3.262803  0.844019  1.007004
O    -3.586418  0.817436  -0.186721
H    -1.284658  -0.192307  3.304827
H    -2.341533  -0.998032  0.722859
C    -3.428976  -1.229742  2.572643
C    -4.887634  -1.431778  2.150128
C    -5.935938  -0.577387  2.963050
O    -7.112569  -0.651803  2.541656
O    -5.491156  0.068717  3.961677
H    -3.471709  -0.732712  3.557806
H    -2.903936  -2.190292  2.703480
H    -5.180786  -2.482548  2.292255
H    -5.045991  -1.220925  1.082956
N    -3.462318  1.959314  1.760943
C    -3.356414  2.135483  3.209022
H    -4.004191  2.651718  1.253419
H    -3.639409  3.170511  3.434386
H    -2.320351  1.995316  3.545618
H    -4.044004  1.451959  3.740914
