27
Energy: -19683.4966441 eV PBE+vdW (tier 2 basis)
C    0.573439  -0.674179  -0.028133
C    -0.023229  -0.431893  1.353947
O    0.329899  -1.105722  2.328078
H    0.150476  -0.029794  -0.809445
H    0.414061  -1.724966  -0.301699
H    1.657324  -0.507692  0.023041
N    -0.939090  0.562297  1.410183
C    -1.667305  0.954696  2.609387
C    -3.057168  1.375341  2.103369
O    -3.165390  1.890003  0.980137
H    -1.263377  1.041678  0.571339
H    -1.712662  0.076856  3.268332
C    -0.926651  2.104855  3.344944
C    -1.441729  2.458471  4.740902
C    -2.689023  3.415107  4.778633
O    -3.516315  3.194182  5.713321
O    -2.720563  4.307592  3.894643
H    -0.981961  3.011407  2.722708
H    0.124651  1.780235  3.391745
H    -0.639767  3.001170  5.268483
H    -1.641032  1.557589  5.341494
N    -4.141344  1.162356  2.886916
C    -4.238613  0.569733  4.215964
H    -4.960096  1.659818  2.548442
H    -5.196514  0.034968  4.287450
H    -4.166617  1.338595  5.006421
H    -3.438551  -0.165458  4.356611
