27
Energy: -19683.50874 eV PBE+vdW (tier 2 basis)
C    -1.207824  -1.303202  0.462551
C    -1.181461  -0.506132  1.764783
O    -1.330183  -1.064703  2.852118
H    -0.404649  -2.050794  0.493174
H    -1.086841  -0.687426  -0.438338
H    -2.160311  -1.844946  0.402668
N    -0.963892  0.825286  1.601980
C    -0.979339  1.823833  2.665623
C    -1.976158  2.898283  2.210034
O    -1.999665  3.251994  1.018495
H    -0.996543  1.224658  0.667467
H    -1.284098  1.326941  3.592291
C    0.438773  2.419926  2.862406
C    0.534008  3.684801  3.717016
C    0.099720  3.557057  5.216970
O    -0.003263  4.646980  5.835775
O    -0.120349  2.383056  5.640219
H    0.847587  2.621127  1.856921
H    1.039452  1.620546  3.318863
H    1.582022  4.026748  3.716763
H    -0.039394  4.511176  3.268010
N    -2.813485  3.455214  3.117988
C    -2.997331  3.166838  4.534298
H    -3.389859  4.185571  2.708164
H    -3.953455  2.647407  4.706879
H    -2.980431  4.103525  5.105835
H    -2.169571  2.562612  4.927004
