27
Energy: -19683.0780546 eV PBE+vdW (tier 2 basis)
C    0.736031  0.250821  2.192300
C    -0.341395  -0.530944  2.904182
O    -0.109337  -1.089733  3.986477
H    1.459920  -0.478752  1.806508
H    1.246869  0.864018  2.945936
H    0.425132  0.882251  1.352791
N    -1.603383  -0.657742  2.372726
C    -2.274273  -0.141403  1.179496
C    -1.525354  -0.567949  -0.115939
O    -0.456769  -1.174918  -0.072939
H    -2.174825  -1.239539  2.976945
H    -3.206643  -0.732491  1.131495
C    -2.766885  1.326654  1.348786
C    -1.752681  2.469466  1.306903
C    -1.163074  2.716259  -0.122313
O    0.079828  2.584070  -0.253075
O    -2.024550  3.019053  -1.003908
H    -3.294983  1.327015  2.317791
H    -3.526273  1.536864  0.583860
H    -0.949143  2.324102  2.039529
H    -2.292306  3.386372  1.593787
N    -2.148566  -0.369399  -1.316366
C    -3.363142  0.361765  -1.655301
H    -1.514696  -0.570645  -2.083114
H    -3.205747  1.453812  -1.584032
H    -4.196383  0.052037  -1.007851
H    -3.636692  0.091406  -2.683759
