27
Energy: -19683.2447182 eV PBE+vdW (tier 2 basis)
C    0.105151  -0.567079  0.300570
C    0.077343  0.338750  1.510578
O    1.111512  0.709637  2.076644
H    -0.587622  -0.236105  -0.487448
H    -0.197117  -1.592542  0.591019
H    1.126405  -0.581101  -0.091853
N    -1.144955  0.733056  1.987072
C    -2.479253  0.428593  1.502462
C    -3.439336  1.249893  2.369532
O    -3.113125  1.708725  3.466269
H    -1.129877  1.246361  2.867957
H    -2.577650  0.789951  0.460594
C    -2.860652  -1.082056  1.506505
C    -2.522809  -1.887510  2.757406
C    -2.040542  -3.346393  2.394649
O    -2.329835  -4.240597  3.224537
O    -1.383446  -3.443690  1.314203
H    -2.323262  -1.571750  0.680719
H    -3.931507  -1.174569  1.270291
H    -3.361672  -1.944997  3.463596
H    -1.683333  -1.420730  3.296676
N    -4.706126  1.467203  1.888902
C    -5.316329  1.008699  0.656396
H    -5.301850  1.928083  2.569057
H    -4.571765  0.953146  -0.146151
H    -6.085503  1.729203  0.347465
H    -5.783567  0.015557  0.751193
