27
Energy: -19683.4280144 eV PBE+vdW (tier 2 basis)
C    0.220888  0.975667  0.970674
C    -0.005607  -0.514237  1.125489
O    0.946543  -1.304074  1.185327
H    1.248273  1.119842  0.622026
H    0.110782  1.467424  1.947497
H    -0.494353  1.423014  0.270954
N    -1.285327  -0.990197  1.222204
C    -2.617084  -0.365734  1.197539
C    -3.019228  0.036236  -0.233059
O    -2.372496  0.861461  -0.891925
H    -1.289621  -1.996431  1.358913
H    -3.288072  -1.145558  1.579141
C    -2.831231  0.794603  2.187623
C    -4.310713  1.174433  2.308136
C    -5.281170  0.009966  2.714753
O    -6.492695  0.197544  2.421293
O    -4.753580  -0.996979  3.269596
H    -2.240200  1.672222  1.889373
H    -2.464967  0.438998  3.161180
H    -4.683321  1.619065  1.372258
H    -4.414281  1.962932  3.071226
N    -4.125625  -0.551680  -0.773102
C    -5.112820  -1.447979  -0.176355
H    -4.358377  -0.149567  -1.677106
H    -5.590635  -2.015816  -0.985752
H    -5.879178  -0.910367  0.403767
H    -4.633652  -2.164247  0.498748
