27
Energy: -19683.3649081 eV PBE+vdW (tier 2 basis)
C    -0.759667  0.183920  -0.125084
C    -0.280749  -0.131983  1.270675
O    0.902721  -0.399258  1.509641
H    0.103484  0.107351  -0.792830
H    -1.204374  1.195161  -0.207525
H    -1.521598  -0.539979  -0.448384
N    -1.175171  -0.105243  2.317603
C    -2.637628  0.045427  2.387994
C    -3.310370  -1.299790  2.017449
O    -3.325353  -2.252070  2.801018
H    -0.728672  -0.396844  3.181096
H    -2.840219  0.142852  3.464544
C    -3.215886  1.278069  1.678897
C    -2.579336  2.624055  2.030417
C    -2.515934  3.601334  0.793721
O    -2.396635  3.035144  -0.336395
O    -2.554938  4.824285  1.061495
H    -4.295370  1.298771  1.900406
H    -3.118264  1.212827  0.580928
H    -1.535448  2.475661  2.351362
H    -3.098956  3.125901  2.857815
N    -3.851806  -1.356140  0.767149
C    -4.472173  -2.545579  0.229880
H    -3.829311  -0.505984  0.213548
H    -3.972861  -2.874201  -0.693887
H    -5.538983  -2.383346  0.012877
H    -4.379543  -3.333653  0.985975
