27
Energy: -19683.2238229 eV PBE+vdW (tier 2 basis)
C    -0.445896  -1.007790  0.043993
C    -0.041438  -0.308792  1.320135
O    1.088675  -0.405667  1.813831
H    0.399847  -1.615245  -0.290465
H    -0.698111  -0.277732  -0.739072
H    -1.343702  -1.633268  0.198126
N    -0.991082  0.467018  1.941276
C    -2.413908  0.546720  1.609857
C    -2.839155  1.996937  1.320159
O    -3.308500  2.322735  0.230803
H    -0.677593  0.791844  2.851348
H    -2.548266  0.026000  0.656949
C    -3.324505  -0.196514  2.612130
C    -4.666715  -0.605396  2.001146
C    -4.576116  -1.774106  0.949335
O    -5.679536  -2.166462  0.503979
O    -3.410636  -2.193361  0.673168
H    -3.474710  0.396902  3.531359
H    -2.780651  -1.111318  2.887851
H    -5.165243  0.247865  1.513627
H    -5.352371  -0.937244  2.795714
N    -2.717509  2.953666  2.308237
C    -2.040907  2.887292  3.588541
H    -2.969644  3.875557  1.964958
H    -0.949375  3.033495  3.509918
H    -2.230015  1.926676  4.081930
H    -2.443100  3.669195  4.245942
