27
Energy: -19683.8954239 eV PBE+vdW (tier 2 basis)
C    0.151024  -1.267689  0.976849
C    -0.134962  -0.061565  1.852222
O    0.788935  0.575329  2.372382
H    0.382518  -0.923525  -0.041644
H    -0.671496  -1.986556  0.933725
H    1.041477  -1.760896  1.379736
N    -1.430134  0.349733  2.004880
C    -2.681023  -0.293741  1.619751
C    -2.909482  -1.653010  2.350360
O    -2.063176  -2.172913  3.090672
H    -1.499564  1.126439  2.653922
H    -3.466793  0.364950  2.019458
C    -2.911231  -0.363578  0.081200
C    -3.931786  0.653485  -0.433386
C    -5.425420  0.437658  -0.024347
O    -5.718685  -0.640597  0.602727
O    -6.213130  1.339528  -0.371877
H    -1.945927  -0.195718  -0.416668
H    -3.239990  -1.374684  -0.194153
H    -3.648003  1.674069  -0.129822
H    -3.917934  0.663474  -1.535242
N    -4.130293  -2.157020  2.097823
C    -4.575146  -3.387598  2.708183
H    -4.785178  -1.590574  1.470866
H    -5.618487  -3.558886  2.418717
H    -4.510535  -3.343702  3.807221
H    -3.970581  -4.250412  2.383444
