27
Energy: -19683.6898115 eV PBE+vdW (tier 2 basis)
C    -0.059586  -0.403454  -0.060760
C    -0.274837  0.437154  1.197684
O    0.555089  1.295713  1.524435
H    -0.837692  -0.208425  -0.812845
H    0.916859  -0.138825  -0.476537
H    -0.084615  -1.481988  0.152331
N    -1.401191  0.197252  1.915975
C    -2.436230  -0.760270  1.568897
C    -3.335849  -0.430272  0.355111
O    -3.788377  -1.368478  -0.315623
H    -1.623243  0.757154  2.789486
H    -1.968921  -1.706000  1.253702
C    -3.303769  -1.101991  2.806580
C    -4.320990  -0.059082  3.280102
C    -3.793906  1.285459  3.880885
O    -4.679958  2.117632  4.177232
O    -2.531724  1.410784  4.017605
H    -2.603506  -1.331874  3.623902
H    -3.836551  -2.033635  2.561162
H    -4.943278  -0.515746  4.066553
H    -5.029897  0.189161  2.474254
N    -3.614051  0.857269  -0.008873
C    -3.442619  2.129438  0.690936
H    -4.257620  0.864454  -0.796126
H    -3.413832  2.929463  -0.060321
H    -2.504695  2.148582  1.248043
H    -4.258501  2.333578  1.399446
