27
Energy: -19684.1628087 eV PBE+vdW (tier 2 basis)
C    0.151177  0.716567  -0.112496
C    -0.358886  1.079531  1.271406
O    -0.126878  2.223251  1.747738
H    1.244704  0.820427  -0.130638
H    -0.256110  1.434799  -0.837143
H    -0.129302  -0.300884  -0.408057
N    -1.027528  0.106882  1.895998
C    -1.756928  0.276795  3.148752
C    -0.856487  0.348599  4.416849
O    -1.089154  -0.284575  5.451714
H    -1.251817  -0.856346  1.374037
H    -2.266172  1.260440  3.119414
C    -2.821418  -0.823308  3.268480
C    -2.334213  -2.282624  3.129967
C    -2.228684  -2.865387  1.690547
O    -1.679144  -2.111441  0.798106
O    -2.659075  -4.018303  1.503645
H    -3.598185  -0.625139  2.513460
H    -3.288293  -0.702276  4.255583
H    -3.013018  -2.941556  3.685682
H    -1.348939  -2.388257  3.613003
N    0.177179  1.218694  4.296405
C    1.093882  1.458819  5.386303
H    0.216507  1.778643  3.424870
H    1.967166  2.001270  5.004123
H    1.425091  0.508157  5.826785
H    0.637788  2.052364  6.197542
