27
Energy: -19683.0106294 eV PBE+vdW (tier 2 basis)
C    -0.064135  -0.376818  0.222717
C    -0.312112  -1.005760  1.579564
O    0.187463  -2.096622  1.879764
H    0.794226  -0.884842  -0.225736
H    -0.946665  -0.521593  -0.415660
H    0.140006  0.698209  0.282347
N    -1.137697  -0.366709  2.459805
C    -1.812835  0.938151  2.426849
C    -2.504047  1.161134  1.053012
O    -3.273221  0.277418  0.651315
H    -1.236314  -0.889510  3.324606
H    -2.717111  0.779648  3.040491
C    -1.021641  2.047530  3.140341
C    0.423645  2.331604  2.731116
C    0.855253  3.820229  3.024373
O    -0.051682  4.687899  2.832035
O    2.046568  3.990145  3.371931
H    -1.028315  1.782826  4.211729
H    -1.585540  2.991641  3.079212
H    1.127661  1.647694  3.221009
H    0.567039  2.192689  1.647811
N    -2.398818  2.317707  0.335659
C    -1.456862  3.435478  0.317685
H    -2.989240  2.235642  -0.488626
H    -1.170550  3.812425  1.313789
H    -0.533111  3.178150  -0.225781
H    -1.941803  4.262675  -0.215974
