27
Energy: -19683.6329614 eV PBE+vdW (tier 2 basis)
C    -0.365870  -0.208290  0.281420
C    -0.031098  -0.145084  1.752831
O    1.115713  -0.294369  2.190176
H    -0.782367  0.748404  -0.067980
H    -1.136346  -0.977802  0.093912
H    0.553230  -0.426911  -0.269282
N    -1.069193  0.118557  2.615412
C    -2.500275  0.179122  2.327795
C    -3.063832  1.597956  2.419025
O    -4.273201  1.837089  2.419740
H    -0.794727  0.031100  3.592742
H    -2.668735  -0.199804  1.293225
C    -3.291589  -0.823446  3.180696
C    -2.992576  -2.287038  2.827772
C    -3.323801  -2.734803  1.362824
O    -3.786551  -3.890008  1.233858
O    -3.059099  -1.894858  0.438522
H    -4.355977  -0.602895  3.021943
H    -3.088914  -0.633972  4.252721
H    -3.548338  -2.946112  3.508375
H    -1.921957  -2.501029  2.994430
N    -2.118675  2.592298  2.456360
C    -2.462148  3.993045  2.451633
H    -1.149640  2.292392  2.462006
H    -2.085022  4.504745  1.552017
H    -2.068312  4.512901  3.338902
H    -3.557371  4.057332  2.460194
