27
Energy: -19683.0856288 eV PBE+vdW (tier 2 basis)
C    0.023290  -0.261574  0.382862
C    -0.137622  0.203849  1.817331
O    0.735374  0.882479  2.364048
H    0.786753  -1.053481  0.359001
H    -0.892593  -0.629854  -0.086386
H    0.401662  0.585382  -0.198941
N    -1.227880  -0.221910  2.548055
C    -2.504547  -0.819441  2.118984
C    -2.309729  -2.160765  1.372600
O    -3.112214  -2.587656  0.548996
H    -1.249831  0.239440  3.454037
H    -2.966903  -1.150162  3.067945
C    -3.515356  0.148597  1.476365
C    -3.089428  0.987183  0.280776
C    -4.111094  2.157642  -0.033133
O    -4.136431  2.522711  -1.235795
O    -4.748360  2.608237  0.957755
H    -3.857016  0.857794  2.247065
H    -4.394673  -0.456746  1.210195
H    -2.132011  1.496912  0.484057
H    -2.958647  0.386255  -0.629653
N    -1.220978  -2.882889  1.791969
C    -0.842864  -4.136379  1.181605
H    -0.573878  -2.406146  2.410570
H    0.054622  -4.033067  0.550138
H    -1.678008  -4.457777  0.548356
H    -0.650404  -4.907576  1.941528
