27
Energy: -19683.809951 eV PBE+vdW (tier 2 basis)
C    -0.331056  0.548261  0.159980
C    -0.107419  -0.131756  1.510720
O    0.972592  -0.649876  1.780977
H    0.083725  1.564372  0.218546
H    -1.388202  0.621305  -0.130388
H    0.220315  -0.002357  -0.609870
N    -1.211309  -0.113181  2.322029
C    -1.254298  -0.322474  3.770434
C    -0.780930  0.968761  4.502867
O    -0.065838  1.818955  3.951158
H    -1.963506  0.472595  1.978268
H    -2.318649  -0.451405  4.020385
C    -0.539235  -1.617899  4.214488
C    -0.774014  -2.025722  5.682053
C    -2.274548  -2.088241  6.087289
O    -2.795265  -0.970927  6.460994
O    -2.858603  -3.186744  5.998939
H    0.534820  -1.524238  4.014220
H    -0.914567  -2.420099  3.560648
H    -0.339156  -3.024870  5.821315
H    -0.241670  -1.330831  6.348950
N    -1.255092  1.059083  5.759444
C    -0.888992  2.165217  6.611354
H    -1.888656  0.263215  6.128498
H    -1.217636  3.131716  6.194635
H    0.202336  2.231309  6.752593
H    -1.364872  2.021509  7.589202
