27
Energy: -19683.6323009 eV PBE+vdW (tier 2 basis)
C    -0.954232  -0.557797  0.426817
C    -0.285978  -0.315337  1.779461
O    0.822316  -0.812818  2.006908
H    -1.493281  -1.516059  0.456124
H    -0.160596  -0.642822  -0.322934
H    -1.666633  0.216984  0.122226
N    -0.967187  0.390866  2.732617
C    -2.130018  1.262473  2.517246
C    -3.379785  0.519830  2.028337
O    -4.239647  1.029056  1.307698
H    -0.397144  0.836848  3.504895
H    -2.383660  1.581728  3.543363
C    -1.811633  2.560257  1.755830
C    -0.524345  3.233508  2.272176
C    -0.459849  3.364756  3.830362
O    -0.215123  2.278346  4.465452
O    -0.662103  4.497057  4.319778
H    -2.668775  3.237237  1.878735
H    -1.729265  2.361704  0.675040
H    0.349418  2.653274  1.935976
H    -0.450921  4.237148  1.832776
N    -3.485862  -0.748286  2.532775
C    -4.574069  -1.635202  2.203079
H    -2.680234  -1.084636  3.052788
H    -4.236010  -2.496134  1.603441
H    -5.297653  -1.060033  1.612874
H    -5.073358  -2.015133  3.107209
