27
Energy: -19683.3399754 eV PBE+vdW (tier 2 basis)
C    0.352836  -2.133404  0.958319
C    0.619382  -0.693072  1.359221
O    1.757281  -0.210426  1.337692
H    -0.209511  -2.678368  1.729105
H    -0.247872  -2.174289  0.038890
H    1.315683  -2.622674  0.787928
N    -0.460906  0.047131  1.739732
C    -1.858697  -0.364073  1.807707
C    -2.557391  -0.697163  0.463994
O    -3.355131  -1.640691  0.464415
H    -0.249153  1.012703  1.979496
H    -1.900662  -1.344722  2.304061
C    -2.668336  0.594608  2.715957
C    -2.545728  2.099275  2.469334
C    -3.365496  2.674130  1.260089
O    -3.002979  3.815255  0.870243
O    -4.287107  1.935770  0.815882
H    -2.369892  0.357666  3.751773
H    -3.726170  0.322391  2.597231
H    -2.916902  2.619292  3.368011
H    -1.503287  2.446491  2.367253
N    -2.217883  -0.080530  -0.706332
C    -1.633675  1.237058  -0.936000
H    -2.838646  -0.403425  -1.445023
H    -0.877035  1.461647  -0.182034
H    -2.392668  2.030285  -0.905119
H    -1.133830  1.229837  -1.914660
