27
Energy: -19683.7029599 eV PBE+vdW (tier 2 basis)
C    -0.595113  -0.103780  -0.217284
C    -0.272195  0.156772  1.241717
O    0.875867  0.407924  1.630741
H    0.349683  -0.245432  -0.750398
H    -1.106566  0.771376  -0.647389
H    -1.262334  -0.965712  -0.383015
N    -1.319361  0.139071  2.118100
C    -2.692245  -0.268739  1.846499
C    -3.575416  0.489046  2.844405
O    -3.251752  0.567719  4.037650
H    -1.091425  0.294761  3.097902
H    -2.942330  0.012636  0.816553
C    -2.895835  -1.798977  1.987037
C    -4.186061  -2.297693  1.340099
C    -4.229369  -1.995893  -0.199159
O    -5.322550  -1.543781  -0.644810
O    -3.159081  -2.219119  -0.829496
H    -2.831096  -2.061779  3.055187
H    -2.052427  -2.274834  1.467826
H    -5.079879  -1.875451  1.823226
H    -4.244766  -3.391125  1.465608
N    -4.726003  1.052660  2.390040
C    -5.211515  1.185538  1.017004
H    -5.240658  1.526878  3.125509
H    -6.204411  1.648602  1.061956
H    -5.318400  0.216122  0.499220
H    -4.560647  1.843061  0.419350
