27
Energy: -19684.1365069 eV PBE+vdW (tier 2 basis)
C    0.472927  0.889062  0.420561
C    -0.024474  0.126085  1.646377
O    0.593025  0.169145  2.714157
H    0.525237  1.957297  0.667967
H    -0.158532  0.757751  -0.467704
H    1.492549  0.554761  0.189539
N    -1.170661  -0.566445  1.450089
C    -1.819937  -1.439582  2.415154
C    -2.626371  -2.448524  1.562421
O    -2.899899  -2.189764  0.369133
H    -1.592418  -0.652947  0.522315
H    -1.057073  -1.977273  2.995366
C    -2.704076  -0.621747  3.394026
C    -3.600987  -1.406670  4.368208
C    -2.858391  -2.409277  5.301240
O    -2.670300  -2.073240  6.484114
O    -2.501050  -3.523522  4.757967
H    -3.333429  0.045716  2.782020
H    -2.019010  0.020364  3.966975
H    -4.373556  -1.949393  3.800409
H    -4.112736  -0.677997  5.011123
N    -2.981643  -3.559350  2.212245
C    -3.820053  -4.549313  1.576584
H    -2.779162  -3.605884  3.298641
H    -4.028331  -5.343163  2.304084
H    -3.329899  -4.994045  0.695740
H    -4.776750  -4.122045  1.232246
