27
Energy: -19683.9996192 eV PBE+vdW (tier 2 basis)
C    -0.265558  0.149916  -0.219937
C    -0.099346  0.118149  1.288793
O    1.015532  0.097069  1.821106
H    -0.933555  -0.644796  -0.579249
H    0.722671  0.031184  -0.672851
H    -0.696283  1.111336  -0.533329
N    -1.243125  0.091184  2.033525
C    -2.608076  0.277125  1.574486
C    -2.941887  1.764049  1.264267
O    -2.180461  2.695911  1.554278
H    -1.073386  0.212058  3.028184
H    -2.727879  -0.264578  0.625503
C    -3.612069  -0.342682  2.580516
C    -4.184791  -1.683118  2.120764
C    -5.134974  -1.636274  0.877021
O    -5.571475  -2.740152  0.494823
O    -5.390028  -0.487898  0.371067
H    -4.439858  0.360132  2.742686
H    -3.101821  -0.454867  3.552440
H    -4.763067  -2.145366  2.936201
H    -3.374379  -2.394341  1.893915
N    -4.132951  1.876382  0.639765
C    -4.694972  3.155161  0.280006
H    -4.686686  0.978494  0.512150
H    -5.565835  3.410196  0.907239
H    -5.025934  3.151838  -0.769234
H    -3.929809  3.929888  0.415864
