20
Energy: -165067.483205 eV PBE+vdW (tier 2 basis)
N    1.023810  -1.598093  0.519805
C    0.251923  -0.470068  1.112537
C    1.207937  0.445054  1.893189
O    2.203657  -0.007331  2.502159
H    0.380369  -2.318483  0.170077
H    1.604976  -1.299390  -0.272580
H    -0.227996  0.105175  0.304838
C    -0.870869  -1.015692  2.072088
C    -1.948132  -1.753993  1.266613
C    -0.336249  -1.864891  3.239630
H    -1.332164  -0.120988  2.520209
H    -2.348927  -1.132605  0.455687
H    -2.787173  -2.014001  1.923954
H    -1.592395  -2.702592  0.833342
H    0.081685  -2.855559  2.919203
H    -1.167815  -2.206822  3.877017
H    0.326016  -1.324011  3.937797
O    0.962724  1.715438  2.015504
H    0.206152  2.044276  1.486114
Cd    2.257471  -2.189426  2.327816
