20
Energy: -165067.730344 eV PBE+vdW (tier 2 basis)
N    1.006798  -2.090036  0.530099
C    0.153747  -0.934879  0.940812
C    0.866039  -0.181946  2.066208
O    1.529332  -0.760510  2.959275
H    1.844289  -1.791889  0.014711
H    0.482502  -2.718980  -0.089583
H    0.020822  -0.243024  0.095657
C    -1.261936  -1.444343  1.396615
C    -1.240443  -2.412560  2.591316
C    -2.219466  -0.278389  1.671306
H    -1.641744  -1.991459  0.516899
H    -0.713211  -3.393070  2.403164
H    -2.253169  -2.801410  2.787239
H    -0.927830  -1.947395  3.540272
H    -2.238443  0.426229  0.829237
H    -1.958447  0.278357  2.581310
H    -3.239573  -0.659631  1.800075
O    0.682467  1.102939  2.044093
H    1.109205  1.561205  2.805924
Cd    1.478058  -2.936209  2.577373
