20
Energy: -165067.74013 eV PBE+vdW (tier 2 basis)
N    0.765573  -1.187613  0.550767
C    0.179689  -0.526876  1.750622
C    1.123945  -0.716116  2.937706
O    1.815042  -1.748193  3.105870
H    1.570785  -0.672532  0.175055
H    0.063962  -1.241643  -0.197682
H    0.065229  0.552852  1.572843
C    -1.233714  -1.134424  2.079470
C    -2.243243  -0.751767  0.989819
C    -1.215319  -2.651084  2.343628
H    -1.542088  -0.648625  3.018476
H    -3.249038  -1.072786  1.288291
H    -2.041513  -1.234674  0.019870
H    -2.278709  0.333936  0.835030
H    -2.227504  -3.012806  2.588687
H    -0.613573  -2.962362  3.216813
H    -1.009616  -3.265809  1.427761
O    1.094551  0.264658  3.788238
H    1.661670  0.103328  4.578423
Cd    1.337869  -3.168466  1.476316
