20
Energy: -165066.8005 eV PBE+vdW (tier 2 basis)
N    -0.276079  -0.157750  -0.277865
C    -0.315841  0.039458  1.098769
C    1.154660  0.409133  1.626840
O    1.312946  1.546822  2.081610
H    -0.703613  0.509200  -0.916265
H    0.080364  -1.013190  -0.699197
H    -0.921112  0.920912  1.340005
C    -0.802837  -1.202162  1.974007
C    -0.616887  -0.940906  3.463295
C    -2.266896  -1.455052  1.596735
H    -0.190017  -2.068666  1.658314
H    -1.020156  -1.793152  4.028505
H    -1.169536  -0.049924  3.792018
H    0.434093  -0.846595  3.774144
H    -2.915835  -0.611884  1.871961
H    -2.615385  -2.328870  2.167123
H    -2.393155  -1.663408  0.527962
O    2.151236  -0.427907  1.554624
H    1.914216  -1.328610  1.247218
Cd    3.259807  2.418044  2.853356
