20
Energy: -165067.886568 eV PBE+vdW (tier 2 basis)
N    -1.158218  0.850779  0.434764
C    -0.450839  0.148035  1.586432
C    1.025309  -0.060872  1.197340
O    1.396271  0.240396  0.018294
H    -2.096239  1.157813  0.734435
H    -1.280235  0.208538  -0.364397
H    -0.464336  0.846399  2.436483
C    -1.193628  -1.163999  1.950552
C    -1.072221  -2.240420  0.865104
C    -0.788052  -1.664670  3.337861
H    -2.255356  -0.853131  2.017439
H    -1.376388  -1.908553  -0.140367
H    -1.725325  -3.085640  1.112161
H    -0.047918  -2.636278  0.803002
H    -1.423767  -2.516711  3.611060
H    -0.911010  -0.895008  4.110347
H    0.251597  -2.019654  3.363213
O    1.815697  -0.523683  2.075737
H    -0.644729  1.675738  0.090659
Cd    3.485383  -0.433077  0.610883
