20
Energy: -165067.373202 eV PBE+vdW (tier 2 basis)
N    0.825570  -0.140574  0.391431
C    0.044372  0.194941  1.626194
C    0.942071  0.788280  2.731104
O    2.162018  1.048652  2.592972
H    0.348069  0.207696  -0.447517
H    0.891456  -1.162978  0.293595
H    -0.642887  1.014185  1.354668
C    -0.793202  -1.052390  2.088507
C    0.089562  -2.198345  2.594459
C    -1.897122  -0.675526  3.094139
H    -1.310600  -1.368806  1.167553
H    -0.536269  -3.071305  2.816787
H    0.620213  -1.936611  3.521406
H    0.833400  -2.548746  1.860952
H    -2.639677  -1.484269  3.119730
H    -2.444979  0.238444  2.823228
H    -1.533916  -0.614255  4.135920
O    0.414036  1.082431  3.875681
H    -0.527429  0.793910  3.953446
Cd    2.923569  0.688755  0.612270
