20
Energy: -165067.923419 eV PBE+vdW (tier 2 basis)
N    0.315934  -0.162517  -0.520017
C    -0.046304  0.445032  0.826052
C    1.169765  1.194590  1.390238
O    0.997843  1.876040  2.447182
H    1.129085  -0.791870  -0.441727
H    0.536623  0.544457  -1.235592
H    -0.827816  1.194038  0.630999
C    -0.581598  -0.637549  1.799187
C    -1.861124  -1.268904  1.226398
C    0.474161  -1.684031  2.174380
H    -0.853286  -0.065258  2.699926
H    -2.317640  -1.903876  1.996528
H    -1.669054  -1.939825  0.372697
H    -2.609997  -0.519987  0.936151
H    1.377741  -1.240467  2.616510
H    0.774773  -2.315218  1.323740
H    0.059229  -2.367814  2.924316
O    2.291321  1.105332  0.795075
H    -0.486029  -0.721955  -0.854433
Cd    3.137374  2.455783  2.409388
