20
Energy: -165067.592059 eV PBE+vdW (tier 2 basis)
N    1.453279  -1.088192  0.669292
C    0.327657  -0.596014  1.510071
C    0.861845  -0.275209  2.908193
O    1.677755  -1.019890  3.500981
H    2.123336  -0.351882  0.412289
H    1.087429  -1.492913  -0.201939
H    -0.094318  0.326303  1.078110
C    -0.769363  -1.699523  1.604699
C    -1.850035  -1.379089  2.639430
C    -1.366254  -2.022063  0.229420
H    -0.223341  -2.624560  1.967142
H    -2.600072  -2.178170  2.645712
H    -2.369328  -0.444600  2.383373
H    -1.463556  -1.290539  3.662857
H    -2.079836  -2.849542  0.326563
H    -0.637103  -2.340663  -0.531035
H    -1.918679  -1.156432  -0.161893
O    0.364362  0.797749  3.439406
H    0.677292  0.950788  4.362467
Cd    2.293934  -2.623557  2.110861
