32
Energy: -35247.8232874 eV PBE+vdW (tier 2 basis)
C    0.020551  2.637322  1.344259
C    -0.354024  1.928273  2.601655
O    0.267453  2.177600  3.688423
H    -0.141568  3.715116  1.492039
H    -0.554036  2.307065  0.472936
H    1.092007  2.502213  1.146982
N    -1.351335  1.041546  2.571271
C    -2.000473  0.397512  3.723752
C    -1.136540  -0.760696  4.274038
O    -0.099322  -0.457831  4.962141
H    -1.816458  0.900295  1.675917
H    -1.972520  1.131976  4.545172
C    -3.510534  0.133235  3.421748
C    -3.863359  -0.324413  1.987452
C    -4.302091  1.405715  3.768446
C    -3.294923  -1.649193  1.474291
H    -3.830356  -0.655001  4.123299
H    -3.642545  0.485175  1.267530
H    -4.960078  -0.387714  1.960383
H    -4.166208  1.696900  4.818377
H    -5.374713  1.244607  3.610477
H    -4.003632  2.253036  3.134017
H    -3.687576  -1.867219  0.473550
H    -3.611448  -2.499707  2.101552
H    -2.197948  -1.659807  1.381524
N    -1.486970  -2.011429  4.077852
C    -0.786087  -3.192121  4.582818
H    -2.307132  -2.174414  3.492972
H    -0.052469  -2.890289  5.332962
H    -0.280005  -3.706600  3.755849
H    -1.516891  -3.873843  5.032032
Ca    1.111231  1.235692  5.373283
