32
Energy: -35247.8905014 eV PBE+vdW (tier 2 basis)
C    -2.062413  0.318353  -0.451153
C    -1.608948  0.505094  0.960255
O    -0.484948  0.047733  1.323599
H    -1.332572  0.790446  -1.123557
H    -3.056085  0.729869  -0.654821
H    -2.059589  -0.755006  -0.685111
N    -2.427976  1.162683  1.798535
C    -2.299237  1.521979  3.236258
C    -1.066686  2.401560  3.502759
O    0.113248  1.939596  3.433143
H    -3.302439  1.462831  1.376894
H    -3.170892  2.169647  3.398244
C    -2.523106  0.349444  4.249472
C    -1.490281  -0.808820  4.290220
C    -3.934284  -0.218749  4.027688
C    -0.302896  -0.656045  5.262794
H    -2.509481  0.839651  5.238125
H    -1.198367  -1.077673  3.256878
H    -2.026117  -1.712575  4.611469
H    -4.005850  -0.774104  3.082212
H    -4.698532  0.569759  4.020852
H    -4.193136  -0.912351  4.836466
H    0.405404  -1.501808  5.195311
H    -0.658696  -0.683070  6.301080
H    0.234689  0.309525  5.210191
N    -1.294918  3.662114  3.839997
C    -0.269399  4.654600  4.165668
H    -2.261487  3.977238  3.871900
H    -0.491009  5.096170  5.144175
H    -0.268740  5.446894  3.406923
H    0.708222  4.169168  4.190772
Ca    0.945519  0.032848  2.903762
