32
Energy: -35247.2122479 eV PBE+vdW (tier 2 basis)
C    -0.888624  0.738860  5.977450
C    -2.327499  0.356046  5.961213
O    -2.970167  0.186275  7.052402
H    -0.773979  1.797616  6.256964
H    -0.384687  0.562369  5.022792
H    -0.394239  0.156774  6.766922
N    -2.994878  0.198968  4.798276
C    -2.902308  1.142230  3.684305
C    -3.387025  2.525148  4.197340
O    -3.968844  2.634330  5.330859
H    -3.906999  -0.250373  4.891575
H    -1.848057  1.235825  3.383542
C    -3.721263  0.651577  2.451352
C    -5.256599  0.790277  2.593275
C    -3.262407  -0.750014  2.031675
C    -5.965976  -0.006289  3.695458
H    -3.436403  1.337532  1.636543
H    -5.679814  0.477427  1.628276
H    -5.525338  1.854339  2.687523
H    -3.510581  -1.523420  2.770447
H    -2.177887  -0.787802  1.865951
H    -3.750501  -1.030929  1.090575
H    -7.052405  0.019477  3.548133
H    -5.800095  0.423738  4.704347
H    -5.677803  -1.066675  3.718849
N    -3.192233  3.578179  3.429914
C    -3.633353  4.941448  3.747864
H    -2.719033  3.434303  2.540474
H    -3.317879  5.602529  2.936945
H    -3.177025  5.279531  4.685341
H    -4.725435  4.976745  3.838562
Ca    -4.513214  1.684022  7.186085
