32
Energy: -35247.199516 eV PBE+vdW (tier 2 basis)
C    0.354328  -0.055189  0.445562
C    0.028516  0.147532  1.884923
O    0.953401  0.394443  2.731588
H    0.606378  0.903050  -0.034389
H    -0.451056  -0.537677  -0.115493
H    1.259990  -0.674739  0.391225
N    -1.245969  0.085923  2.324633
C    -2.357697  0.762023  1.657441
C    -2.093987  2.292390  1.787496
O    -1.094176  2.727883  2.461410
H    -1.337726  0.047646  3.341691
H    -2.334594  0.510688  0.586675
C    -3.716631  0.278068  2.245933
C    -4.920585  0.667936  1.359486
C    -3.903516  0.702389  3.707307
C    -6.144639  -0.227657  1.576902
H    -3.633693  -0.820696  2.202969
H    -4.630287  0.606040  0.295940
H    -5.218341  1.711647  1.562310
H    -3.116433  0.326551  4.379639
H    -4.840290  0.293969  4.102729
H    -3.958727  1.796126  3.813453
H    -6.963190  0.079131  0.915519
H    -6.521433  -0.170793  2.605590
H    -5.912330  -1.277231  1.354647
N    -2.911835  3.124584  1.180208
C    -2.806541  4.587067  1.218318
H    -3.700846  2.718239  0.679433
H    -3.621433  5.004821  0.621981
H    -1.849406  4.910929  0.793277
H    -2.891200  4.950059  2.249404
Ca    0.757607  2.394910  3.493816
