32
Energy: -35247.788472 eV PBE+vdW (tier 2 basis)
C    -1.769992  -0.709672  -0.086916
C    -1.261137  -0.666951  1.317524
O    -0.029610  -0.855084  1.543354
H    -1.506096  -1.679986  -0.529396
H    -1.250179  0.058412  -0.676317
H    -2.850545  -0.556374  -0.171439
N    -2.151399  -0.426883  2.296215
C    -2.011394  -0.324692  3.772540
C    -1.055413  0.802160  4.181584
O    0.191968  0.734155  3.944727
H    -3.106026  -0.311749  1.967985
H    -3.011471  -0.003109  4.082798
C    -1.809122  -1.676804  4.536684
C    -0.488172  -2.464320  4.326234
C    -3.011638  -2.585531  4.235115
C    0.685847  -2.136434  5.271005
H    -1.859275  -1.395231  5.602944
H    -0.221897  -2.451884  3.252058
H    -0.714620  -3.527311  4.487561
H    -3.967441  -2.070437  4.399208
H    -2.998315  -3.461116  4.894954
H    -2.994175  -2.953271  3.199787
H    0.441870  -2.439476  6.297690
H    0.925546  -1.061930  5.379455
H    1.594323  -2.715228  5.024368
N    -1.537178  1.856048  4.824520
C    -2.923096  2.163747  5.203190
H    -0.829130  2.545581  5.080107
H    -3.564317  2.262002  4.318943
H    -2.919278  3.124065  5.726015
H    -3.327227  1.407489  5.886736
Ca    1.486588  -0.712189  3.035767
