32
Energy: -35247.5111324 eV PBE+vdW (tier 2 basis)
C    0.192751  -1.522216  0.409687
C    -0.053019  -1.067352  1.806632
O    0.910144  -0.641896  2.528601
H    0.602410  -0.680681  -0.167605
H    -0.708876  -1.891766  -0.089040
H    0.958590  -2.309429  0.409452
N    -1.295744  -1.098030  2.299937
C    -1.681765  -0.532402  3.598615
C    -1.126665  -1.407170  4.753975
O    -0.052422  -0.978242  5.315134
H    -2.046628  -1.413447  1.688180
H    -1.084189  0.383279  3.718300
C    -3.153545  -0.015230  3.620569
C    -3.493954  0.467100  5.046223
C    -4.248392  -0.900129  3.011257
C    -4.764283  1.315786  5.128711
H    -3.089317  0.882284  2.981236
H    -2.647502  1.057217  5.437007
H    -3.594089  -0.406039  5.713197
H    -3.959645  -1.411967  2.079397
H    -5.098381  -0.266373  2.733511
H    -4.629939  -1.653543  3.707560
H    -4.903725  1.692095  6.148782
H    -5.663429  0.743722  4.869528
H    -4.709467  2.185526  4.459942
N    -1.630768  -2.552427  5.170612
C    -2.774961  -3.330413  4.697989
H    -1.122006  -2.952315  5.961090
H    -2.539586  -4.391246  4.833244
H    -2.962300  -3.145732  3.639030
H    -3.672247  -3.092269  5.282247
Ca    1.751213  -0.271012  4.438268
