32
Energy: -35247.5621452 eV PBE+vdW (tier 2 basis)
C    0.608298  1.879945  1.278951
C    0.047223  0.712994  2.018809
O    0.134636  0.657446  3.290923
H    1.667917  2.007581  1.536445
H    0.088098  2.788131  1.616990
H    0.505785  1.794048  0.192436
N    -0.552981  -0.260288  1.328949
C    -1.338894  -1.378200  1.875521
C    -0.403255  -2.495742  2.403531
O    0.134613  -2.273690  3.549982
H    -0.595647  -0.153948  0.316469
H    -1.783240  -1.007091  2.812497
C    -2.531312  -1.726767  0.934759
C    -2.248053  -1.526799  -0.573392
C    -3.753740  -0.905219  1.374965
C    -3.164860  -2.355092  -1.477077
H    -2.766830  -2.787795  1.107486
H    -1.200870  -1.771238  -0.826810
H    -2.379956  -0.459931  -0.823150
H    -4.059574  -1.147876  2.401464
H    -4.612868  -1.110282  0.726491
H    -3.552371  0.174547  1.316913
H    -2.951651  -2.153975  -2.533200
H    -4.222705  -2.120232  -1.307687
H    -3.032273  -3.432699  -1.309237
N    -0.138235  -3.649629  1.819762
C    -0.550564  -4.237250  0.540707
H    0.461391  -4.244335  2.394688
H    0.158457  -5.035940  0.304896
H    -0.520958  -3.499325  -0.262606
H    -1.554913  -4.671218  0.615616
Ca    0.547861  -0.669707  4.875633
