32
Energy: -35246.3037514 eV PBE+vdW (tier 2 basis)
C    0.012648  0.360116  0.103118
C    -0.243874  -0.022654  1.517641
O    0.757867  -0.338658  2.289796
H    0.717843  1.201629  0.067115
H    -0.904949  0.633008  -0.426875
H    0.488580  -0.483863  -0.416814
N    -1.464121  -0.044824  1.991897
C    -1.898784  -0.426956  3.334626
C    -3.452883  -0.424174  3.178155
O    -3.922172  0.197285  2.220239
H    -2.300470  0.254147  1.439671
H    -1.549140  -1.451381  3.534018
C    -1.328665  0.560617  4.422385
C    -0.361888  -0.163249  5.389720
C    -2.382257  1.378760  5.180171
C    0.760654  0.733757  5.939212
H    -0.733810  1.290903  3.849046
H    0.022133  -1.091836  4.894355
H    -0.906098  -0.590307  6.245205
H    -3.042007  1.909748  4.483337
H    -1.901801  2.141510  5.806170
H    -3.002630  0.756706  5.835839
H    1.514108  0.193699  6.540169
H    0.353877  1.491902  6.621605
H    1.251817  1.371566  5.166589
N    -4.201806  -1.098720  4.064729
C    -3.785782  -1.913543  5.197579
H    -5.202680  -1.019413  3.889759
H    -4.475931  -2.757782  5.300541
H    -3.795267  -1.347230  6.140015
H    -2.784922  -2.330564  5.037052
Ca    2.010722  -0.502269  3.868471
