32
Energy: -35247.8929098 eV PBE+vdW (tier 2 basis)
C    -0.723973  -0.892229  0.024048
C    -0.549712  -0.700240  1.493384
O    0.478910  -1.172992  2.076928
H    0.158505  -0.504909  -0.502380
H    -1.623645  -0.414389  -0.376583
H    -0.768291  -1.971257  -0.183514
N    -1.491830  -0.031735  2.166994
C    -1.647989  0.160041  3.627643
C    -0.584315  1.114848  4.191086
O    0.628609  0.739932  4.308703
H    -2.277681  0.288350  1.606983
H    -2.623784  0.654459  3.725558
C    -1.735334  -1.152974  4.454779
C    -2.731947  -2.161229  3.841578
C    -2.046964  -0.812680  5.918942
C    -4.176451  -1.676833  3.695611
H    -0.743486  -1.649011  4.430375
H    -2.713322  -3.051838  4.486429
H    -2.355096  -2.503293  2.865703
H    -3.000689  -0.277180  6.016305
H    -1.268513  -0.195084  6.387640
H    -2.130884  -1.733155  6.508745
H    -4.802824  -2.488905  3.308108
H    -4.283587  -0.840006  2.988515
H    -4.614022  -1.366028  4.652453
N    -0.977353  2.313369  4.581740
C    -0.128978  3.339821  5.189815
H    -1.961227  2.544437  4.462789
H    0.858736  2.920877  5.392096
H    -0.588186  3.676823  6.126276
H    -0.036876  4.194735  4.508452
Ca    1.823196  -0.898725  3.668801
