32
Energy: -35247.798046 eV PBE+vdW (tier 2 basis)
C    1.622739  -0.103616  0.673101
C    0.946875  -0.762008  1.829109
O    1.641695  -1.352890  2.716468
H    2.181383  -0.868616  0.114491
H    2.361534  0.618618  1.045260
H    0.932253  0.403105  -0.008632
N    -0.389308  -0.717762  1.896211
C    -1.310800  -1.406425  2.830177
C    -1.227869  -0.795901  4.235953
O    -0.202644  -1.009650  4.967568
H    -0.842084  -0.235050  1.124826
H    -2.306509  -1.193480  2.423210
C    -1.183914  -2.955833  2.878599
C    -1.227372  -3.557168  1.460941
C    -2.278659  -3.515962  3.796829
C    -0.983190  -5.066688  1.416663
H    -0.197807  -3.222853  3.313443
H    -0.476705  -3.061614  0.827739
H    -2.208541  -3.326583  1.013041
H    -2.242958  -3.101010  4.813562
H    -2.180811  -4.602376  3.893568
H    -3.276982  -3.317694  3.381266
H    -1.776379  -5.636553  1.914758
H    -0.024589  -5.336552  1.883601
H    -0.945344  -5.411008  0.376574
N    -2.226718  -0.075452  4.713117
C    -3.503241  0.273200  4.074485
H    -2.091165  0.249581  5.671604
H    -4.008216  1.001646  4.714720
H    -4.147886  -0.608915  3.977380
H    -3.343000  0.737717  3.095299
Ca    1.735211  -1.851208  4.759069
