32
Energy: -35247.9053451 eV PBE+vdW (tier 2 basis)
C    0.091624  -0.039954  -0.423640
C    -0.053456  -0.398816  1.018641
O    0.964166  -0.758194  1.685171
H    0.507352  -0.904216  -0.960555
H    0.823347  0.773685  -0.519999
H    -0.846981  0.260914  -0.899744
N    -1.274724  -0.329811  1.566373
C    -1.762247  -0.680740  2.924247
C    -1.180692  0.245879  4.002556
O    0.056603  0.244049  4.293942
H    -2.007805  -0.038484  0.925789
H    -2.832954  -0.447510  2.857992
C    -1.739793  -2.204518  3.298786
C    -0.406338  -2.824105  3.785913
C    -2.362158  -3.011223  2.150615
C    -0.539879  -4.261139  4.306403
H    -2.425280  -2.262101  4.161981
H    -0.030111  -2.216650  4.637688
H    0.319888  -2.827984  2.946716
H    -3.303748  -2.562124  1.807756
H    -2.600214  -4.029059  2.475998
H    -1.685763  -3.087136  1.288331
H    0.398919  -4.605840  4.756770
H    -0.790747  -4.960847  3.502047
H    -1.319695  -4.328040  5.075955
N    -2.023015  1.030597  4.654443
C    -1.631097  1.934771  5.741034
H    -3.002505  1.018382  4.383575
H    -0.980754  2.730400  5.357826
H    -1.099927  1.378666  6.521644
H    -2.536081  2.378500  6.163173
Ca    1.747066  -0.904353  3.643573
