32
Energy: -35246.0345649 eV PBE+vdW (tier 2 basis)
C    0.074545  1.300992  0.678161
C    -0.457240  1.194116  2.063887
O    0.327801  1.583685  3.058618
H    0.455226  2.316647  0.506122
H    -0.677607  1.066478  -0.079674
H    0.919995  0.608544  0.555170
N    -1.635760  0.750257  2.368630
C    -2.735485  0.238321  1.538510
C    -3.916578  0.370771  2.551303
O    -3.604906  0.423242  3.758793
H    -2.013969  0.709731  3.363252
H    -2.872230  0.881183  0.658991
C    -2.442201  -1.233674  1.084944
C    -3.402983  -1.696255  -0.025141
C    -2.383974  -2.207936  2.265448
C    -2.931892  -2.962627  -0.744973
H    -1.436104  -1.183527  0.630417
H    -3.514736  -0.890296  -0.768217
H    -4.401196  -1.873314  0.402205
H    -3.370367  -2.341903  2.729558
H    -2.043003  -3.191406  1.924409
H    -1.689395  -1.881460  3.051270
H    -3.609834  -3.201549  -1.573024
H    -2.912570  -3.836392  -0.082427
H    -1.926160  -2.834754  -1.169425
N    -5.186126  0.408450  2.138894
C    -5.747190  0.555358  0.798589
H    -5.849367  0.442028  2.912419
H    -6.476976  1.373386  0.807446
H    -6.251366  -0.363989  0.477047
H    -4.968501  0.800522  0.072199
Ca    1.462579  2.173550  4.562606
