32
Energy: -35247.8495652 eV PBE+vdW (tier 2 basis)
C    -1.312775  0.049565  -0.302912
C    -0.786719  -0.204257  1.071507
O    0.276490  -0.879607  1.224230
H    -2.235698  0.637839  -0.320644
H    -1.490408  -0.915735  -0.797140
H    -0.542197  0.568453  -0.889680
N    -1.468780  0.298827  2.111123
C    -1.246175  0.202275  3.579769
C    0.107755  0.804282  3.990293
O    1.198664  0.187205  3.779105
H    -2.307090  0.813980  1.855003
H    -2.018474  0.869959  3.983764
C    -1.592635  -1.190995  4.199807
C    -1.928051  -1.069081  5.708018
C    -0.629406  -2.360793  3.935110
C    -0.759504  -0.925979  6.686958
H    -2.536190  -1.454472  3.695333
H    -2.503127  -1.967396  5.976107
H    -2.631694  -0.232251  5.840511
H    -0.510856  -2.571427  2.859097
H    -1.045352  -3.282017  4.363944
H    0.334347  -2.229002  4.464683
H    -1.146592  -0.844902  7.709649
H    -0.146042  -0.031860  6.511838
H    -0.094181  -1.799741  6.678845
N    0.086030  1.983926  4.589984
C    1.253968  2.702504  5.100408
H    -0.820812  2.418820  4.742422
H    2.158853  2.144082  4.853372
H    1.170793  2.808556  6.189281
H    1.296480  3.699461  4.646223
Ca    1.777377  -1.485221  2.585992
