32
Energy: -35246.1988141 eV PBE+vdW (tier 2 basis)
C    -2.086396  -1.233869  -1.071436
C    -2.427206  -0.198320  -0.058409
O    -2.451493  1.067092  -0.452749
H    -1.026174  -1.140842  -1.349630
H    -2.679378  -1.071311  -1.980827
H    -2.258735  -2.249860  -0.706042
N    -2.704053  -0.445423  1.183070
C    -2.790418  -1.702276  1.935035
C    -3.594423  -1.217201  3.185357
O    -3.717548  0.012718  3.344869
H    -3.019868  0.301223  1.878930
H    -3.379534  -2.436731  1.366208
C    -1.383667  -2.294287  2.261562
C    -1.492807  -3.742972  2.781288
C    -0.575807  -1.382913  3.190181
C    -0.177093  -4.520817  2.692346
H    -0.863234  -2.349238  1.289047
H    -2.260843  -4.282583  2.201117
H    -1.828894  -3.734870  3.830440
H    -0.477969  -0.362439  2.795024
H    0.438832  -1.774513  3.321642
H    -1.034411  -1.312835  4.186109
H    -0.320100  -5.552149  3.036013
H    0.608629  -4.078293  3.316915
H    0.193441  -4.565503  1.658943
N    -4.094782  -2.145439  3.998698
C    -4.836062  -1.843267  5.222817
H    -3.930077  -3.121477  3.773116
H    -5.788509  -2.385143  5.220950
H    -5.025948  -0.767893  5.260520
H    -4.254100  -2.139974  6.104221
Ca    -2.532483  2.956727  -1.017584
