32
Energy: -35247.8282784 eV PBE+vdW (tier 2 basis)
C    -1.486437  -0.343149  -0.400497
C    -1.410580  0.121419  1.014635
O    -0.535035  -0.371418  1.797184
H    -1.799005  -1.398528  -0.396217
H    -0.489409  -0.307385  -0.857039
H    -2.190426  0.229957  -1.012466
N    -2.289814  1.038854  1.430579
C    -2.557747  1.540870  2.799599
C    -1.396880  2.421519  3.293706
O    -0.279572  1.901849  3.621768
H    -2.946614  1.355664  0.722540
H    -3.436081  2.190479  2.676271
C    -2.957658  0.467395  3.851310
C    -4.230732  -0.321439  3.467162
C    -3.157124  1.151749  5.213517
C    -4.133004  -1.358815  2.344863
H    -2.133092  -0.267572  3.941961
H    -5.040494  0.396073  3.254519
H    -4.544817  -0.839948  4.384253
H    -3.418668  0.404114  5.971213
H    -3.987015  1.871823  5.175647
H    -2.265953  1.683010  5.574364
H    -3.250996  -2.005927  2.461128
H    -4.110123  -0.918380  1.340655
H    -5.011474  -2.014329  2.371857
N    -1.609656  3.720641  3.395157
C    -0.652354  4.712741  3.887357
H    -2.526717  4.067024  3.122133
H    0.237324  4.203309  4.262653
H    -1.116737  5.291322  4.694337
H    -0.374507  5.393403  3.073126
Ca    0.695395  0.022675  3.451727
