32
Energy: -35246.3739315 eV PBE+vdW (tier 2 basis)
C    -0.668607  -2.089993  1.565900
C    -0.999372  -1.115421  2.637606
O    -0.566844  -1.309117  3.847584
H    0.419616  -2.226185  1.506650
H    -1.054170  -1.784302  0.588470
H    -1.098651  -3.066909  1.832268
N    -1.732048  -0.053715  2.380082
C    -2.197184  0.925366  3.354458
C    -3.210603  1.782451  2.526065
O    -3.122464  1.740437  1.299323
H    -2.075128  0.189835  1.429596
H    -2.734113  0.387832  4.154447
C    -1.005478  1.742995  3.975500
C    -1.142639  1.850797  5.512022
C    -0.752211  3.102510  3.310042
C    0.138509  2.257906  6.258151
H    -0.090313  1.147991  3.740339
H    -1.593146  0.912424  5.930921
H    -1.928683  2.577807  5.767666
H    -0.680528  2.993955  2.221249
H    0.187837  3.548742  3.655479
H    -1.564714  3.806702  3.528954
H    0.042390  2.168601  7.348217
H    0.398894  3.302148  6.045829
H    1.063782  1.721327  5.934950
N    -4.087966  2.523949  3.219125
C    -5.086109  3.377309  2.566421
H    -4.171322  2.383067  4.220195
H    -5.275615  4.253686  3.194113
H    -6.024925  2.830952  2.409510
H    -4.695863  3.697001  1.596211
Ca    0.230271  -0.509510  5.551471
