32
Energy: -35247.6961633 eV PBE+vdW (tier 2 basis)
C    0.847726  0.625869  0.074597
C    0.190955  0.038049  1.275636
O    0.454887  0.484626  2.442027
H    1.938642  0.578631  0.191737
H    0.580500  1.690968  0.014667
H    0.561193  0.132975  -0.859970
N    -0.688131  -0.957494  1.122851
C    -1.514088  -1.514355  2.207805
C    -0.622376  -2.361353  3.143739
O    -0.194458  -1.794709  4.212563
H    -0.898748  -1.257342  0.173113
H    -1.817649  -0.663767  2.839660
C    -2.824972  -2.146152  1.682517
C    -3.677342  -1.058934  0.988421
C    -3.578695  -2.812826  2.840407
C    -4.923443  -1.601101  0.285469
H    -2.576871  -2.911985  0.929331
H    -3.067852  -0.519353  0.245189
H    -3.969066  -0.307323  1.741563
H    -2.992793  -3.588109  3.352108
H    -4.488742  -3.297393  2.472023
H    -3.887075  -2.071404  3.591744
H    -5.435878  -0.792626  -0.248960
H    -5.646177  -2.030209  0.989435
H    -4.667740  -2.373424  -0.452972
N    -0.248875  -3.602050  2.889187
C    -0.556001  -4.473022  1.750315
H    0.326112  -4.015487  3.624852
H    0.222845  -5.239575  1.697992
H    -0.547549  -3.912106  0.811853
H    -1.526561  -4.966761  1.883649
Ca    0.602185  0.153141  4.527803
