32
Energy: -35247.2229908 eV PBE+vdW (tier 2 basis)
C    -3.479409  -0.381025  -0.664925
C    -2.617966  0.300403  0.340720
O    -2.530296  1.574923  0.364394
H    -3.296082  0.096668  -1.637761
H    -4.544349  -0.218658  -0.439559
H    -3.284455  -1.453931  -0.746017
N    -1.919441  -0.408752  1.252688
C    -2.501878  -1.494390  2.039905
C    -3.616017  -0.867811  2.921817
O    -3.770320  0.404127  2.976813
H    -1.219205  0.136283  1.759501
H    -2.975695  -2.216123  1.359390
C    -1.381584  -2.230356  2.839017
C    -1.833229  -3.568802  3.457714
C    -0.727408  -1.329973  3.893496
C    -2.543637  -4.542800  2.515289
H    -0.636571  -2.471063  2.062350
H    -2.430645  -3.386408  4.367436
H    -0.919326  -4.050105  3.834514
H    -0.267351  -0.419247  3.478815
H    0.089242  -1.869726  4.387983
H    -1.437650  -1.033337  4.679582
H    -3.541685  -4.205233  2.184958
H    -2.697355  -5.509337  3.009186
H    -1.953042  -4.732473  1.608478
N    -4.399871  -1.673870  3.605696
C    -5.477409  -1.242580  4.502288
H    -4.234584  -2.674575  3.510711
H    -5.855386  -2.120786  5.031715
H    -6.296149  -0.791379  3.928397
H    -5.097380  -0.517827  5.230660
Ca    -3.399293  2.356817  2.170720
