32
Energy: -35247.7576461 eV PBE+vdW (tier 2 basis)
C    0.090130  0.130757  -0.110478
C    0.014151  0.121120  1.381076
O    1.080818  0.085852  2.066152
H    0.676584  1.002462  -0.432304
H    -0.887526  0.153332  -0.602288
H    0.640379  -0.760814  -0.441921
N    -1.200864  0.150346  1.950500
C    -1.622167  0.104293  3.376750
C    -1.073839  1.312831  4.149417
O    0.147435  1.365920  4.505420
H    -1.974651  0.164353  1.291305
H    -2.707480  0.237836  3.311136
C    -1.456558  -1.291701  4.062765
C    -2.465316  -1.467938  5.225265
C    -0.044200  -1.740190  4.476403
C    -2.188311  -0.709915  6.525771
H    -1.777432  -1.989801  3.272823
H    -2.507404  -2.544756  5.445109
H    -3.469855  -1.215147  4.851439
H    0.638411  -1.811600  3.612295
H    -0.088961  -2.757446  4.887130
H    0.360371  -1.128443  5.305356
H    -2.196083  0.381983  6.406482
H    -1.230376  -0.991332  6.983443
H    -2.963783  -0.949121  7.263134
N    -1.882854  2.315764  4.454356
C    -3.318926  2.462067  4.186034
H    -1.436152  3.066042  4.983064
H    -3.902018  1.711439  4.734233
H    -3.531875  2.401503  3.112501
H    -3.623821  3.452781  4.533942
Ca    1.929172  0.314523  3.993688
