32
Energy: -35247.0923911 eV PBE+vdW (tier 2 basis)
C    1.557142  0.893398  2.025154
C    0.940266  2.170081  2.481642
O    1.635946  3.239675  2.562487
H    1.720965  0.910014  0.936268
H    0.962692  0.012623  2.284913
H    2.551520  0.815080  2.485059
N    -0.369312  2.231861  2.793473
C    -1.431977  1.641448  1.975991
C    -1.271813  2.251685  0.555099
O    -0.622008  3.345708  0.395337
H    -0.652055  3.075529  3.294716
H    -1.286420  0.552578  1.900356
C    -2.815868  1.909290  2.654569
C    -3.028648  0.994629  3.884220
C    -4.003884  1.764978  1.695831
C    -2.059490  1.118941  5.060933
H    -2.791447  2.962357  2.995415
H    -3.065217  -0.050693  3.535430
H    -4.043264  1.215851  4.245333
H    -4.931396  1.946169  2.251256
H    -4.085454  0.744937  1.289598
H    -3.988143  2.481147  0.864914
H    -2.430937  0.525568  5.905166
H    -1.977519  2.156284  5.418536
H    -1.051227  0.747594  4.837078
N    -1.798303  1.602617  -0.462599
C    -1.824898  2.038656  -1.859608
H    -2.302197  0.743680  -0.246989
H    -1.385813  1.258865  -2.492860
H    -1.258781  2.965764  -1.964597
H    -2.863827  2.206697  -2.169857
Ca    0.941269  4.647923  1.088760
