32
Energy: -35247.165453 eV PBE+vdW (tier 2 basis)
C    -0.067231  0.310167  -0.442496
C    -0.132838  -0.109095  0.983820
O    0.926889  -0.398840  1.631429
H    0.429740  1.287011  -0.536332
H    -1.044345  0.344125  -0.932132
H    0.575870  -0.410066  -0.968991
N    -1.314983  -0.177836  1.637729
C    -2.348085  0.857671  1.571459
C    -1.693904  2.209086  1.937746
O    -0.570264  2.222570  2.554601
H    -1.275490  -0.680501  2.524185
H    -2.743772  0.910576  0.547179
C    -3.528684  0.514630  2.534952
C    -3.233886  0.743319  4.038441
C    -4.089474  -0.877913  2.219599
C    -2.151369  -0.100497  4.721978
H    -4.315360  1.240632  2.280767
H    -4.179240  0.545779  4.564063
H    -3.028677  1.809756  4.220043
H    -3.393843  -1.693778  2.458057
H    -4.356925  -0.974702  1.159515
H    -4.999660  -1.048805  2.807329
H    -2.197984  0.019229  5.811090
H    -1.123178  0.217722  4.438485
H    -2.237202  -1.176828  4.516885
N    -2.286710  3.349712  1.639139
C    -3.550774  3.585682  0.934963
H    -1.795777  4.181475  1.971227
H    -3.430848  4.467681  0.297154
H    -4.359085  3.775095  1.652659
H    -3.815176  2.733298  0.303226
Ca    1.090003  1.038932  3.243648
