32
Energy: -35247.0682731 eV PBE+vdW (tier 2 basis)
C    0.620458  0.935101  0.885243
C    0.136869  0.569418  2.244407
O    0.951920  0.472724  3.223085
H    1.058301  1.943764  0.882948
H    -0.151127  0.859333  0.114526
H    1.442988  0.247954  0.634747
N    -1.174050  0.343467  2.475327
C    -2.244218  1.253520  2.038226
C    -1.858547  2.657367  2.550115
O    -1.112179  2.756348  3.595795
H    -1.367596  -0.096129  3.377600
H    -2.307677  1.257793  0.941576
C    -3.591679  0.716627  2.623499
C    -3.907210  -0.649073  1.973893
C    -4.756917  1.700146  2.495351
C    -5.029128  -1.422861  2.668580
H    -3.406901  0.560012  3.704882
H    -3.000769  -1.274497  1.961698
H    -4.167930  -0.476743  0.916467
H    -4.565048  2.665232  2.981627
H    -5.639506  1.277586  2.987625
H    -5.030938  1.872423  1.446120
H    -5.147356  -2.408185  2.202461
H    -5.997796  -0.914256  2.595018
H    -4.811081  -1.587174  3.733184
N    -2.253212  3.759172  1.941316
C    -3.039487  3.937574  0.717460
H    -1.967029  4.621001  2.409654
H    -2.531689  4.673290  0.083528
H    -4.040458  4.309755  0.966042
H    -3.135260  2.997796  0.169995
Ca    0.546529  1.983602  4.709483
