32
Energy: -35245.935973 eV PBE+vdW (tier 2 basis)
C    0.669360  0.019178  0.852210
C    0.521714  -0.495519  2.240349
O    1.608997  -0.559575  2.995634
H    1.203339  0.978581  0.868262
H    -0.292001  0.151999  0.348965
H    1.275433  -0.684450  0.262983
N    -0.596878  -0.886252  2.765922
C    -1.963574  -0.970443  2.226054
C    -2.771448  -0.987468  3.558545
O    -2.174650  -1.426573  4.561369
H    -0.680087  -1.226659  3.765730
H    -2.183959  -0.077152  1.628173
C    -2.101291  -2.248565  1.323758
C    -3.476171  -2.368130  0.622383
C    -1.679236  -3.537405  2.036075
C    -4.582107  -3.117460  1.371479
H    -1.370344  -2.059866  0.518471
H    -3.290812  -2.895801  -0.324911
H    -3.821483  -1.367208  0.321287
H    -2.310072  -3.766559  2.903236
H    -0.637337  -3.501052  2.383095
H    -1.753784  -4.380654  1.338363
H    -5.523692  -3.044563  0.813642
H    -4.765511  -2.735095  2.383093
H    -4.353143  -4.185718  1.467046
N    -4.024515  -0.524851  3.612254
C    -4.839522  0.131226  2.594686
H    -4.443540  -0.625536  4.536027
H    -5.604368  -0.547709  2.197236
H    -4.221052  0.487584  1.766449
H    -5.335847  0.998142  3.045100
Ca    3.211102  -0.656288  4.146394
