32
Energy: -35247.0574411 eV PBE+vdW (tier 2 basis)
C    0.653530  0.192188  0.864462
C    0.202133  -0.476185  2.116291
O    1.049721  -0.977390  2.930045
H    1.085579  1.180067  1.088581
H    -0.145745  0.308102  0.126860
H    1.466396  -0.408490  0.434267
N    -1.109102  -0.548405  2.429718
C    -2.020925  0.595139  2.348782
C    -1.429947  1.703764  3.259839
O    -0.539717  1.420721  4.137738
H    -1.323224  -1.183277  3.201301
H    -2.037326  0.975541  1.317193
C    -3.469350  0.125445  2.703625
C    -4.553904  1.204387  2.429362
C    -3.580110  -0.496172  4.100756
C    -5.017365  2.081606  3.599129
H    -3.636808  -0.674373  1.964675
H    -5.434606  0.667736  2.049982
H    -4.237713  1.828222  1.574321
H    -2.959730  -1.397164  4.230415
H    -4.608581  -0.837782  4.270311
H    -3.340133  0.213754  4.904373
H    -4.209016  2.618769  4.112831
H    -5.545377  1.494357  4.359884
H    -5.728271  2.833344  3.235203
N    -1.846044  2.940851  3.092146
C    -1.434870  4.088113  3.907433
H    -2.562795  3.099056  2.386725
H    -1.902027  4.986372  3.496260
H    -0.345731  4.204903  3.877194
H    -1.759799  3.954826  4.946621
Ca    1.036637  0.113719  4.786446
