32
Energy: -35246.2946936 eV PBE+vdW (tier 2 basis)
C    0.465083  0.894794  1.022171
C    -0.259743  -0.135936  1.814501
O    0.339069  -0.695080  2.834471
H    0.759551  1.726188  1.677724
H    -0.141709  1.285379  0.199524
H    1.387166  0.459225  0.612194
N    -1.476999  -0.482635  1.499906
C    -2.343220  -1.484111  2.121602
C    -3.418007  -1.675139  0.993630
O    -3.483895  -0.788610  0.133065
H    -1.992673  -0.091303  0.669982
H    -1.769722  -2.413150  2.261334
C    -2.919776  -0.962511  3.492588
C    -2.924507  -2.029064  4.604084
C    -4.298816  -0.306536  3.349609
C    -1.549977  -2.419196  5.160821
H    -2.222236  -0.168690  3.814177
H    -3.438741  -2.942597  4.278783
H    -3.519078  -1.642198  5.443850
H    -4.308738  0.450871  2.556450
H    -4.579315  0.191386  4.285727
H    -5.079831  -1.043416  3.120098
H    -1.620839  -3.160839  5.966686
H    -1.083569  -1.511705  5.612566
H    -0.927270  -2.880193  4.360694
N    -4.209725  -2.756807  0.979634
C    -4.247590  -3.903997  1.874608
H    -4.882279  -2.744243  0.214142
H    -4.587176  -4.777565  1.308456
H    -4.941592  -3.750028  2.713177
H    -3.248181  -4.136430  2.261113
Ca    1.031368  -1.518329  4.520361
