32
Energy: -35247.4519282 eV PBE+vdW (tier 2 basis)
C    0.105382  0.061267  0.033422
C    -0.090259  -0.139018  1.496257
O    0.898383  -0.059739  2.300467
H    0.503809  1.072349  -0.134287
H    -0.815372  -0.060361  -0.546001
H    0.863413  -0.643341  -0.334492
N    -1.314896  -0.394143  1.969738
C    -1.636108  -0.457259  3.403790
C    -1.001971  -1.729094  4.022063
O    0.053722  -1.537987  4.732789
H    -2.089687  -0.414748  1.309201
H    -1.042625  0.337618  3.880091
C    -3.105413  -0.019511  3.684947
C    -3.360589  0.154823  5.200500
C    -4.238918  -0.765415  2.974121
C    -3.448719  -1.112174  6.054698
H    -3.100746  1.003555  3.269158
H    -4.305687  0.709167  5.289718
H    -2.592869  0.828040  5.615653
H    -4.065306  -0.929259  1.899051
H    -5.146413  -0.151981  3.036996
H    -4.476167  -1.730993  3.429859
H    -3.755123  -0.849315  7.074318
H    -2.488776  -1.638719  6.150136
H    -4.194745  -1.823326  5.676980
N    -1.397887  -2.971570  3.821273
C    -2.492507  -3.527903  3.028649
H    -0.837145  -3.656386  4.331355
H    -2.136620  -4.452852  2.561829
H    -2.802855  -2.834481  2.246687
H    -3.348312  -3.764932  3.672457
Ca    1.807011  -0.472993  4.173559
