32
Energy: -35245.9971361 eV PBE+vdW (tier 2 basis)
C    -1.046992  0.836719  -0.638819
C    -0.673478  0.777619  0.799452
O    0.296807  1.579400  1.216104
H    -1.301494  1.872220  -0.904573
H    -1.888473  0.184569  -0.882832
H    -0.187736  0.539894  -1.256497
N    -1.233278  0.013643  1.686233
C    -2.350891  -0.941684  1.633143
C    -2.966019  -0.696947  3.046533
O    -2.171421  -0.325118  3.931954
H    -1.013570  0.104607  2.715567
H    -3.036045  -0.685971  0.815951
C    -1.810938  -2.403270  1.477908
C    -1.086863  -2.583757  0.129674
C    -2.924982  -3.436390  1.676990
C    -0.419014  -3.950808  -0.044784
H    -1.073820  -2.539425  2.288505
H    -0.305353  -1.813695  0.027683
H    -1.803532  -2.417435  -0.692768
H    -3.397590  -3.356865  2.662394
H    -3.699550  -3.357084  0.901620
H    -2.504228  -4.445543  1.614114
H    0.177230  -3.969209  -0.965077
H    -1.150478  -4.763460  -0.120326
H    0.254142  -4.179769  0.793044
N    -4.271707  -0.871440  3.273794
C    -5.352583  -1.234948  2.362623
H    -4.529588  -0.714542  4.247686
H    -6.192402  -0.545966  2.509352
H    -5.697873  -2.259598  2.549237
H    -5.028501  -1.162818  1.321159
Ca    1.718179  2.782273  1.873913
