32
Energy: -35246.9619281 eV PBE+vdW (tier 2 basis)
C    -0.381171  0.485484  -0.417393
C    -0.246827  0.081077  1.007177
O    0.713453  0.519361  1.723711
H    -0.344738  1.577013  -0.526496
H    -1.268871  0.076603  -0.907255
H    0.507704  0.097711  -0.942377
N    -1.136855  -0.764396  1.575732
C    -2.596070  -0.590581  1.501275
C    -2.885540  0.879349  1.865402
O    -2.085823  1.490730  2.668087
H    -0.828294  -1.143099  2.473120
H    -2.944019  -0.796526  0.481457
C    -3.248980  -1.660385  2.447417
C    -4.785255  -1.776588  2.303523
C    -2.808311  -1.542380  3.912389
C    -5.651794  -0.868063  3.181502
H    -2.831458  -2.597455  2.043168
H    -5.035436  -2.818947  2.547867
H    -5.057440  -1.671296  1.242440
H    -3.266819  -2.353506  4.492023
H    -3.120770  -0.598170  4.377715
H    -1.723490  -1.668840  4.065502
H    -5.408151  0.199904  3.099609
H    -5.574818  -1.133288  4.243031
H    -6.707326  -0.984014  2.907295
N    -3.903920  1.542500  1.350602
C    -4.917939  1.124242  0.379403
H    -4.002644  2.494752  1.707400
H    -4.589170  0.245003  -0.179162
H    -5.082730  1.950156  -0.320924
H    -5.860791  0.894438  0.890434
Ca    -0.067516  1.727169  3.338941
