32
Energy: -35247.8632349 eV PBE+vdW (tier 2 basis)
C    -0.527727  0.560123  -0.221205
C    -0.738705  0.459718  1.250898
O    -0.654383  1.500098  1.986851
H    -0.583157  -0.405741  -0.733566
H    0.445367  1.025848  -0.425170
H    -1.294272  1.230201  -0.637409
N    -1.028731  -0.727577  1.788375
C    -1.433473  -0.968515  3.186662
C    -0.174407  -0.903621  4.080614
O    0.217597  0.236441  4.506204
H    -1.101197  -1.518026  1.151101
H    -2.053109  -0.110236  3.493999
C    -2.303917  -2.240440  3.321632
C    -3.490675  -2.204966  2.330289
C    -2.787327  -2.379299  4.773176
C    -4.367995  -3.458328  2.364782
H    -1.686985  -3.123185  3.057490
H    -3.124826  -2.075369  1.299197
H    -4.102452  -1.313094  2.547409
H    -1.976271  -2.333974  5.511613
H    -3.292371  -3.339837  4.917179
H    -3.512065  -1.589663  5.017620
H    -5.123056  -3.408903  1.571684
H    -4.904665  -3.566129  3.314479
H    -3.777598  -4.370419  2.200542
N    0.481006  -2.011512  4.356798
C    1.692719  -2.121039  5.170323
H    0.080712  -2.879314  4.003438
H    1.523664  -2.851511  5.970057
H    1.927412  -1.147983  5.606100
H    2.527941  -2.462405  4.546303
Ca    0.023949  2.248657  3.837537
