32
Energy: -35247.6527601 eV PBE+vdW (tier 2 basis)
C    -0.215606  1.492699  0.205329
C    -0.788600  0.940206  1.464487
O    -1.164135  1.720514  2.403246
H    -0.968746  2.138406  -0.269352
H    0.090413  0.718320  -0.505346
H    0.646005  2.131500  0.441447
N    -0.919947  -0.382522  1.598723
C    -1.620878  -1.038681  2.716035
C    -0.756427  -0.909908  3.992622
O    -1.064157  0.023550  4.817037
H    -0.666478  -0.963062  0.802147
H    -2.507104  -0.422614  2.939779
C    -2.153676  -2.447477  2.359529
C    -3.254303  -2.403190  1.272067
C    -2.709603  -3.114543  3.627353
C    -2.836720  -2.066634  -0.163460
H    -1.321478  -3.056624  1.971056
H    -4.059704  -1.726639  1.602824
H    -3.704867  -3.405667  1.268951
H    -3.571481  -2.558780  4.023993
H    -1.972381  -3.211665  4.435431
H    -3.060741  -4.125234  3.390532
H    -3.649091  -2.317095  -0.856195
H    -1.963829  -2.655173  -0.485872
H    -2.625288  -1.000179  -0.321673
N    0.293884  -1.667181  4.252661
C    0.878818  -2.774701  3.490669
H    0.740195  -1.455690  5.146375
H    0.359528  -3.716888  3.706089
H    1.924870  -2.873488  3.795677
H    0.853064  -2.570816  2.416898
Ca    -1.537758  2.066462  4.456852
