32
Energy: -35247.1626264 eV PBE+vdW (tier 2 basis)
C    -1.165388  1.779212  0.230800
C    -0.689690  0.930508  1.357639
O    0.079231  1.413521  2.257428
H    -1.844531  2.565468  0.592353
H    -1.651847  1.209580  -0.565647
H    -0.289120  2.300210  -0.182048
N    -1.063454  -0.361562  1.457979
C    -2.448631  -0.815481  1.313564
C    -3.258807  -0.118761  2.439629
O    -2.654380  0.472032  3.405350
H    -0.523972  -0.900498  2.138443
H    -2.844417  -0.473540  0.345532
C    -2.484131  -2.374922  1.337008
C    -1.571935  -2.935432  0.217539
C    -3.905188  -2.948638  1.257444
C    -1.975662  -2.586294  -1.215019
H    -2.052382  -2.687330  2.305749
H    -1.567329  -4.027833  0.343144
H    -0.531394  -2.621289  0.391508
H    -3.846288  -4.035103  1.120436
H    -4.469988  -2.559293  0.397194
H    -4.486238  -2.786779  2.173645
H    -1.288770  -3.065774  -1.922436
H    -1.926758  -1.506213  -1.423240
H    -2.985618  -2.934483  -1.465218
N    -4.573718  -0.127694  2.376851
C    -5.469724  0.456819  3.380495
H    -5.001202  -0.613865  1.591490
H    -6.495672  0.175997  3.129565
H    -5.388240  1.550658  3.375325
H    -5.224120  0.075133  4.377699
Ca    -0.909465  1.461633  4.167500
