32
Energy: -35247.2364261 eV PBE+vdW (tier 2 basis)
C    0.675145  -0.407438  3.525823
C    -0.447737  -0.211464  4.484706
O    -0.282641  -0.438137  5.732392
H    1.438140  0.375810  3.650543
H    0.351895  -0.436489  2.481483
H    1.166084  -1.357220  3.780739
N    -1.657546  0.210072  4.063265
C    -1.839954  1.339888  3.154549
C    -1.467186  2.624993  3.955254
O    -1.031921  2.545368  5.157239
H    -2.403667  0.112869  4.754671
H    -1.111998  1.248739  2.334107
C    -3.270196  1.363194  2.553515
C    -4.350598  1.505434  3.645998
C    -3.470429  0.147270  1.642394
C    -5.740873  1.843055  3.101074
H    -3.320045  2.263863  1.916147
H    -4.053149  2.294851  4.360292
H    -4.422600  0.565608  4.222753
H    -2.702072  0.094576  0.859539
H    -4.441237  0.201778  1.138324
H    -3.446218  -0.792703  2.210725
H    -5.724291  2.770015  2.511912
H    -6.452734  1.984234  3.922625
H    -6.136503  1.043830  2.463384
N    -1.590101  3.790774  3.357053
C    -1.271653  5.087766  3.964471
H    -1.956132  3.793705  2.407433
H    -1.384955  5.861466  3.201060
H    -0.238699  5.091851  4.329936
H    -1.956364  5.298504  4.794917
Ca    -0.417958  1.384946  6.858412
