32
Energy: -35246.2144959 eV PBE+vdW (tier 2 basis)
C    -0.119761  -0.558140  -0.172687
C    -0.113877  0.031526  1.193727
O    1.060688  0.303820  1.745038
H    0.293973  -1.576593  -0.136126
H    0.526650  0.034562  -0.833281
H    -1.124101  -0.608112  -0.602169
N    -1.177683  0.301254  1.882593
C    -2.603841  0.152734  1.575338
C    -3.219292  1.098296  2.653819
O    -2.471186  1.485416  3.571984
H    -1.159523  0.795741  2.828110
H    -2.807236  0.539931  0.567382
C    -3.071889  -1.333620  1.683215
C    -4.474735  -1.562900  1.087814
C    -2.971111  -1.869390  3.114218
C    -4.670547  -1.112378  -0.360707
H    -2.367535  -1.899676  1.048404
H    -5.239123  -1.117321  1.744258
H    -4.657873  -2.645683  1.150744
H    -1.963370  -1.759002  3.537616
H    -3.217241  -2.937811  3.131747
H    -3.672717  -1.359928  3.788717
H    -5.646854  -1.441085  -0.736217
H    -3.909541  -1.545703  -1.026109
H    -4.641516  -0.019260  -0.491254
N    -4.504349  1.426898  2.526170
C    -5.228650  2.272052  3.475036
H    -5.017287  1.062582  1.729664
H    -5.664221  3.131211  2.951945
H    -4.526915  2.624026  4.235001
H    -6.030155  1.699245  3.957251
Ca    2.793391  0.750379  2.577910
