32
Energy: -35247.8491948 eV PBE+vdW (tier 2 basis)
C    -0.415891  -0.257134  -0.250653
C    -0.394912  0.033405  1.211892
O    0.493553  0.810611  1.699748
H    -1.187804  -0.978215  -0.538171
H    0.566812  -0.626472  -0.571251
H    -0.591277  0.686478  -0.788229
N    -1.322391  -0.520508  1.994672
C    -1.599777  -0.207157  3.408015
C    -0.573091  -0.893764  4.335297
O    0.623906  -0.444284  4.366354
H    -1.996277  -1.138830  1.546016
H    -1.396225  0.868667  3.540063
C    -3.100555  -0.443623  3.718755
C    -3.638091  -1.816846  3.237190
C    -3.931972  0.719006  3.157081
C    -4.883613  -2.278830  4.000242
H    -3.185504  -0.402892  4.817946
H    -2.867098  -2.605727  3.305157
H    -3.892739  -1.751616  2.164643
H    -3.842050  0.793902  2.063785
H    -3.633266  1.681165  3.593606
H    -4.994237  0.577555  3.384797
H    -5.240762  -3.239728  3.612551
H    -5.708308  -1.562080  3.907438
H    -4.676499  -2.408092  5.072277
N    -0.932976  -1.893933  5.110330
C    -0.044533  -2.578775  6.055116
H    -1.898064  -2.209719  5.048568
H    0.748377  -3.111039  5.516035
H    -0.637846  -3.296896  6.626349
H    0.407442  -1.853116  6.740821
Ca    1.842670  0.943487  3.309560
