32
Energy: -35247.1302929 eV PBE+vdW (tier 2 basis)
C    -1.230673  -1.605602  -0.373121
C    -0.293695  -0.953213  0.584126
O    0.928057  -1.321862  0.649995
H    -1.027003  -1.274775  -1.403163
H    -2.283435  -1.423551  -0.138953
H    -1.032829  -2.685970  -0.350660
N    -0.711025  0.041683  1.395158
C    -1.521135  1.168686  0.932435
C    -0.617193  1.984431  -0.043394
O    0.599440  1.630198  -0.249171
H    -0.048947  0.280206  2.136394
H    -2.362348  0.773128  0.344146
C    -2.086575  1.959019  2.165758
C    -3.559657  2.394413  1.998884
C    -1.159337  3.080830  2.651290
C    -3.910608  3.386481  0.887686
H    -2.111711  1.191146  2.955227
H    -3.859971  2.830188  2.962718
H    -4.178219  1.491651  1.881781
H    -0.119662  2.743029  2.785656
H    -1.497686  3.439534  3.630553
H    -1.141779  3.949489  1.980540
H    -3.858785  2.934825  -0.119750
H    -3.306805  4.306024  0.922978
H    -4.954067  3.709653  0.987662
N    -1.125802  3.029654  -0.652926
C    -0.397589  3.898701  -1.581394
H    -2.094391  3.274202  -0.430208
H    -1.088790  4.660765  -1.950090
H    -0.018041  3.318910  -2.430613
H    0.439645  4.388967  -1.069994
Ca    2.218904  0.241332  -0.066608
