32
Energy: -35247.8527074 eV PBE+vdW (tier 2 basis)
C    -0.260257  -1.011237  -0.228545
C    -0.166472  -0.770030  1.240136
O    0.918236  -0.329881  1.750738
H    -0.117781  -0.051103  -0.746257
H    -1.218476  -1.441760  -0.536694
H    0.556814  -1.669386  -0.551099
N    -1.233716  -1.009585  2.004150
C    -1.415794  -0.648225  3.421322
C    -0.686147  -1.651952  4.343201
O    0.592030  -1.619424  4.385636
H    -2.064659  -1.368555  1.536860
H    -0.871971  0.297989  3.579667
C    -2.915958  -0.382028  3.710965
C    -3.868668  -1.489620  3.188821
C    -3.307058  1.001476  3.171105
C    -5.209950  -1.530085  3.927984
H    -3.002828  -0.337562  4.809969
H    -3.403154  -2.490613  3.243240
H    -4.068638  -1.320553  2.116078
H    -3.177892  1.065000  2.081045
H    -2.715411  1.801582  3.635082
H    -4.360390  1.214076  3.384572
H    -5.858490  -2.308837  3.510711
H    -5.748815  -0.578414  3.848025
H    -5.076189  -1.745900  4.997766
N    -1.379252  -2.483631  5.091185
C    -0.833326  -3.454598  6.040162
H    -2.392992  -2.443382  5.001877
H    -1.079798  -4.470709  5.708091
H    -1.279349  -3.283668  7.026992
H    0.250352  -3.337939  6.098992
Ca    2.209999  -0.680445  3.375222
