32
Energy: -35247.0691282 eV PBE+vdW (tier 2 basis)
C    0.439882  2.036387  0.126690
C    0.472407  1.100978  1.282975
O    1.294561  1.278726  2.243740
H    0.277759  3.070858  0.458209
H    -0.291254  1.760559  -0.637703
H    1.443112  2.018207  -0.328729
N    -0.366366  0.043840  1.341963
C    -1.817737  0.144295  1.127182
C    -2.325717  1.256297  2.065430
O    -1.665764  1.512974  3.142351
H    -0.114101  -0.645406  2.053306
H    -2.024036  0.408452  0.081807
C    -2.438649  -1.258376  1.429388
C    -1.864064  -2.311716  0.451068
C    -3.969913  -1.268000  1.459694
C    -2.180131  -2.096724  -1.029168
H    -2.092800  -1.522779  2.447064
H    -2.264304  -3.283108  0.776494
H    -0.773602  -2.391489  0.581847
H    -4.386970  -0.607866  2.231009
H    -4.411594  -1.003823  0.491574
H    -4.310798  -2.282763  1.697720
H    -3.258292  -2.070538  -1.230685
H    -1.765901  -2.921510  -1.621026
H    -1.733024  -1.175230  -1.432676
N    -3.404403  1.965891  1.794084
C    -4.286215  1.940739  0.623745
H    -3.658013  2.636492  2.521969
H    -4.440855  2.971310  0.284473
H    -5.255095  1.503912  0.893209
H    -3.846425  1.357909  -0.188063
Ca    0.247370  1.698061  4.084697
