32
Energy: -35247.168987 eV PBE+vdW (tier 2 basis)
C    -0.174424  0.716034  -0.670177
C    -0.105092  0.201599  0.725454
O    1.021722  -0.070649  1.263184
H    0.218671  1.742331  -0.727108
H    -1.182608  0.686864  -1.092541
H    0.494702  0.098074  -1.285684
N    -1.224541  0.020728  1.456220
C    -2.290056  1.017466  1.565440
C    -1.669225  2.281359  2.214310
O    -0.491584  2.226082  2.726905
H    -1.085086  -0.515003  2.315402
H    -2.640620  1.283047  0.557311
C    -3.490340  0.437319  2.371861
C    -3.091480  0.037424  3.808299
C    -4.143501  -0.696737  1.573807
C    -4.287858  -0.274615  4.712421
H    -4.220887  1.256223  2.455893
H    -2.508053  0.852923  4.271334
H    -2.436617  -0.853878  3.788880
H    -4.434954  -0.369208  0.566966
H    -5.053294  -1.041967  2.076622
H    -3.476249  -1.563529  1.469709
H    -4.983150  0.574374  4.758836
H    -3.952864  -0.485299  5.734700
H    -4.846521  -1.152058  4.366716
N    -2.332111  3.421261  2.243725
C    -3.645255  3.752416  1.681059
H    -1.851564  4.178961  2.731317
H    -3.591204  4.760076  1.255218
H    -4.411953  3.740569  2.465886
H    -3.921973  3.052730  0.888073
Ca    1.415159  1.263465  2.906181
