32
Energy: -35247.890585 eV PBE+vdW (tier 2 basis)
C    -2.240954  0.602456  -0.841167
C    -1.807144  0.794387  0.573335
O    -0.591740  0.597427  0.896496
H    -2.053152  -0.443430  -1.124432
H    -1.621413  1.224795  -1.500566
H    -3.297239  0.834148  -1.011087
N    -2.720772  1.166719  1.477260
C    -2.591606  1.287581  2.949061
C    -1.720726  2.496404  3.329930
O    -0.456180  2.455979  3.174622
H    -3.663623  1.283733  1.115814
H    -3.616692  1.491730  3.289465
C    -2.137624  -0.004041  3.685845
C    -3.001965  -1.210660  3.271919
C    -2.152633  0.249732  5.198915
C    -2.531540  -2.545034  3.853251
H    -1.093841  -0.239772  3.385181
H    -3.019389  -1.292063  2.175109
H    -4.042245  -1.016690  3.582857
H    -3.174413  0.449355  5.552116
H    -1.518034  1.094213  5.500657
H    -1.790931  -0.631163  5.739668
H    -2.618302  -2.582951  4.945506
H    -1.485896  -2.757942  3.586284
H    -3.140748  -3.364512  3.454438
N    -2.320795  3.552323  3.847956
C    -1.660827  4.775443  4.308393
H    -3.332467  3.512303  3.950504
H    -1.967159  4.982918  5.340204
H    -1.957599  5.617352  3.670725
H    -0.578160  4.642010  4.263703
Ca    0.939808  1.162248  2.223038
