32
Energy: -35247.064317 eV PBE+vdW (tier 2 basis)
C    0.614099  -1.037068  0.371176
C    0.290899  -0.748836  1.794159
O    1.096402  -0.080429  2.524442
H    0.823198  -0.112297  -0.182946
H    -0.151130  -1.625706  -0.141459
H    1.554419  -1.611914  0.367370
N    -0.860385  -1.191505  2.347603
C    -2.183188  -1.019936  1.733099
C    -2.328824  0.480743  1.390707
O    -1.620183  1.338340  2.038798
H    -0.877719  -1.127586  3.367328
H    -2.251469  -1.626833  0.821310
C    -3.254118  -1.530763  2.759666
C    -4.605538  -1.894876  2.121543
C    -3.436056  -0.577979  3.947710
C    -4.567351  -3.060578  1.133600
H    -2.812118  -2.473153  3.127368
H    -5.071328  -1.002336  1.675838
H    -5.273260  -2.165765  2.952384
H    -3.937417  0.355511  3.655013
H    -4.060275  -1.056220  4.711477
H    -2.492952  -0.312346  4.454934
H    -3.937096  -2.877049  0.249202
H    -5.574029  -3.278888  0.758022
H    -4.192042  -3.974961  1.611995
N    -3.154876  0.917613  0.459744
C    -3.970770  0.188620  -0.515023
H    -3.187390  1.936033  0.382388
H    -3.733996  0.566645  -1.516660
H    -5.034935  0.359670  -0.314729
H    -3.767523  -0.882644  -0.477386
Ca    0.178665  1.786782  3.104043
