32
Energy: -35247.8310884 eV PBE+vdW (tier 2 basis)
C    0.221064  -0.060089  0.074959
C    -0.154128  -0.146372  1.515174
O    0.736030  -0.017129  2.421161
H    -0.621676  -0.227658  -0.603365
H    1.015466  -0.785742  -0.143894
H    0.641016  0.938269  -0.116529
N    -1.432850  -0.347497  1.844717
C    -2.003307  -0.274424  3.203943
C    -1.648352  -1.554880  3.992541
O    -0.507253  -1.612835  4.569185
H    -2.098889  -0.440843  1.080202
H    -1.456144  0.523428  3.730029
C    -3.483258  0.187457  3.144140
C    -3.987649  0.539307  4.559855
C    -4.450349  -0.731612  2.374288
C    -5.334754  1.265062  4.571810
H    -3.422999  1.136012  2.582429
H    -3.234823  1.176503  5.052383
H    -4.060955  -0.376846  5.169681
H    -5.310972  -0.150882  2.024013
H    -4.883881  -1.525985  3.003615
H    -4.018897  -1.203905  1.478417
H    -6.152567  0.634273  4.201907
H    -5.304680  2.177432  3.960809
H    -5.595044  1.562066  5.594329
N    -2.502150  -2.553728  4.052248
C    -2.301694  -3.816121  4.765087
H    -3.391960  -2.421539  3.572382
H    -2.134984  -4.628900  4.046684
H    -3.199817  -4.038861  5.351681
H    -1.440805  -3.727826  5.430925
Ca    1.397262  -0.709135  4.300195
