32
Energy: -35247.4380501 eV PBE+vdW (tier 2 basis)
C    -0.599901  -1.368124  0.476188
C    -0.424075  -0.720862  1.805080
O    0.715037  -0.265067  2.163786
H    -0.349254  -0.640013  -0.308722
H    -1.616502  -1.738141  0.308838
H    0.111557  -2.199046  0.376370
N    -1.467356  -0.606553  2.633940
C    -1.379070  0.144342  3.892798
C    -0.436781  -0.572981  4.884583
O    0.668001  0.033257  5.146476
H    -2.379503  -0.925156  2.313786
H    -0.805083  1.051811  3.650401
C    -2.738478  0.711465  4.400810
C    -3.798815  -0.310194  4.850700
C    -3.265248  1.692182  3.338903
C    -5.109199  0.332819  5.317549
H    -2.456531  1.302703  5.288977
H    -3.398221  -0.901454  5.684433
H    -4.026061  -1.019658  4.033949
H    -2.483264  2.380020  2.988425
H    -4.067875  2.307341  3.757814
H    -3.684403  1.176113  2.462783
H    -5.766556  -0.429253  5.751973
H    -5.659620  0.806346  4.496552
H    -4.927865  1.091769  6.090897
N    -0.644709  -1.757019  5.432974
C    -1.677429  -2.771250  5.213814
H    0.095638  -2.029380  6.082992
H    -2.326036  -2.499792  4.381657
H    -2.283119  -2.896467  6.119020
H    -1.180063  -3.722813  4.989424
Ca    2.066506  0.519153  3.611536
