27
Energy: -34145.0520123 eV PBE+vdW (tier 2 basis)
C    -1.353655  -0.280584  -0.299706
C    -0.711562  -0.315554  1.051294
O    0.511250  -0.681785  1.164393
H    -0.919161  -1.087769  -0.901699
H    -1.126865  0.664039  -0.819841
H    -2.441041  -0.401071  -0.260451
N    -1.392891  0.076049  2.143627
C    -2.294282  1.229433  2.091689
C    -1.426837  2.485682  1.760552
O    -0.158289  2.384177  1.641672
H    -3.059648  1.117862  1.311735
C    -2.900823  1.259288  3.507049
C    -1.732440  0.813062  4.397252
C    -0.975512  -0.213758  3.545333
H    -3.729057  0.539444  3.540108
H    -3.303782  2.238789  3.787154
H    -2.072234  0.381504  5.344108
H    -1.087084  1.667040  4.645087
H    -1.259831  -1.251295  3.765766
H    0.115480  -0.158161  3.679645
N    -2.058803  3.632315  1.614815
C    -1.453007  4.934884  1.325921
H    -3.072830  3.618910  1.717992
H    -1.877586  5.334829  0.397467
H    -1.670535  5.628869  2.146756
H    -0.373114  4.818455  1.218827
Ca    1.603139  1.126352  1.533451
