27
Energy: -34143.8317087 eV PBE+vdW (tier 2 basis)
C    -0.068806  0.300707  -0.032098
C    -0.046235  0.009062  1.438816
O    1.027588  -0.025638  2.073745
H    -0.564847  1.260453  -0.238107
H    -0.600805  -0.477623  -0.595302
H    0.963886  0.358892  -0.384766
N    -1.231156  -0.236224  2.084691
C    -1.313096  -0.218291  3.563371
C    -0.615795  -1.369904  4.307374
O    -1.267215  -1.955188  5.283584
H    -0.816129  0.701786  3.925924
C    -2.827092  -0.144651  3.846944
C    -3.416257  0.507449  2.588818
C    -2.572748  -0.113558  1.475821
H    -3.053436  0.427172  4.761379
H    -3.246344  -1.172855  3.918400
H    -3.264530  1.594630  2.627010
H    -4.488221  0.320237  2.467017
H    -2.535800  0.514768  0.581512
H    -2.950377  -1.104448  1.178929
N    0.605207  -1.666394  3.996921
C    1.455305  -2.674422  4.614877
H    0.979879  -1.015159  3.206812
H    1.818451  -3.356913  3.836811
H    0.911715  -3.236562  5.378275
H    2.324180  -2.178058  5.065930
Ca    -2.907215  -2.164991  6.397915
