27
Energy: -34145.375625 eV PBE+vdW (tier 2 basis)
C    -0.401005  -0.381291  -0.239549
C    -0.355286  0.711164  0.782111
O    0.533230  1.635130  0.673283
H    -1.419251  -0.537831  -0.619490
H    -0.071149  -1.339903  0.189412
H    0.258350  -0.122530  -1.072318
N    -1.220234  0.707274  1.797272
C    -1.507439  1.854603  2.699652
C    -0.348562  2.320524  3.591396
O    0.825181  1.818747  3.511800
H    -1.758971  2.722657  2.067380
C    -2.758157  1.376161  3.496583
C    -2.696075  -0.149955  3.425627
C    -2.188592  -0.406152  2.016746
H    -3.661462  1.756919  3.003263
H    -2.766577  1.738095  4.527720
H    -3.671729  -0.614768  3.601751
H    -1.994125  -0.552742  4.168887
H    -2.997244  -0.337941  1.273208
H    -1.684272  -1.370833  1.901306
N    -0.558361  3.316440  4.441717
C    -1.748068  4.146240  4.665477
H    0.250869  3.537529  5.022963
H    -1.413524  5.172215  4.852990
H    -2.309550  3.795948  5.540676
H    -2.400323  4.149942  3.788221
Ca    2.216327  1.898354  1.901917
