27
Energy: -34143.8191824 eV PBE+vdW (tier 2 basis)
C    -0.458407  -0.167596  -0.330128
C    -0.285550  -0.535524  1.110914
O    0.759088  -1.089981  1.523044
H    -0.727784  0.890042  -0.452670
H    -1.258593  -0.765183  -0.790999
H    0.477325  -0.371661  -0.856493
N    -1.305663  -0.269245  1.980740
C    -1.089392  -0.270587  3.443526
C    -0.967197  -1.692292  4.031206
O    -1.708074  -2.055425  5.055181
H    -0.119763  0.210105  3.659132
C    -2.263557  0.565254  3.970926
C    -3.372593  0.353794  2.932698
C    -2.598152  0.352609  1.615353
H    -1.961314  1.619985  4.004868
H    -2.552430  0.299045  4.999143
H    -4.141133  1.133145  2.960312
H    -3.871331  -0.617728  3.074069
H    -2.438956  1.378375  1.249030
H    -3.096818  -0.222431  0.827128
N    -0.071976  -2.466756  3.504899
C    0.263489  -3.829865  3.883054
H    0.449354  -1.963800  2.667273
H    0.270669  -4.455213  2.982356
H    -0.454314  -4.236090  4.601951
H    1.272276  -3.847927  4.316703
Ca    -2.834200  -2.277051  6.665779
