27
Energy: -34144.0314907 eV PBE+vdW (tier 2 basis)
C    0.088105  -0.094974  0.023242
C    0.035990  -0.359567  1.488406
O    0.987906  -1.117342  1.995731
H    0.985146  0.485844  -0.224029
H    -0.783290  0.449261  -0.347876
H    0.140534  -1.062175  -0.498077
N    -0.953535  0.011776  2.268257
C    -1.820954  1.167188  1.964162
C    -0.888850  2.389700  1.665338
O    0.336013  2.268013  1.749859
H    -2.445956  0.945755  1.087551
C    -2.675735  1.346020  3.243939
C    -2.539748  0.014478  3.993006
C    -1.109079  -0.413763  3.676650
H    -3.715808  1.590153  3.004527
H    -2.269517  2.169690  3.846571
H    -3.249157  -0.730532  3.609045
H    -2.709157  0.116881  5.069975
H    -0.935727  -1.492215  3.760533
H    -0.376904  0.126938  4.299159
N    -1.539105  3.515584  1.336187
C    -0.872693  4.792172  1.081391
H    -2.554425  3.504201  1.315263
H    -1.012307  5.479033  1.925836
H    0.195445  4.606101  0.942867
H    -1.286620  5.247569  0.175048
Ca    2.775426  -1.771789  2.530437
