27
Energy: -34145.4024057 eV PBE+vdW (tier 2 basis)
C    -0.364523  -0.468411  -0.195923
C    -0.305602  0.651950  0.796263
O    0.665534  1.492317  0.725688
H    -1.249598  -0.365489  -0.841523
H    -0.437093  -1.449682  0.292548
H    0.524731  -0.438366  -0.830571
N    -1.243898  0.752361  1.737187
C    -1.469274  1.899476  2.661915
C    -0.285590  2.433650  3.461288
O    0.849974  1.848082  3.512177
H    -1.858323  2.734074  2.053445
C    -2.584683  1.375198  3.603403
C    -3.410211  0.468212  2.694546
C    -2.356490  -0.242048  1.855735
H    -3.173117  2.188386  4.037276
H    -2.131338  0.805021  4.427347
H    -4.077700  1.062736  2.056245
H    -4.028095  -0.238862  3.257766
H    -2.720769  -0.524072  0.863195
H    -1.968124  -1.140833  2.356634
N    -0.457138  3.549554  4.159314
C    -1.622920  4.432683  4.272379
H    0.342296  3.793681  4.744548
H    -2.243947  4.149124  5.131270
H    -2.223580  4.412837  3.358212
H    -1.260736  5.454615  4.423762
Ca    2.325216  1.702808  1.987872
