27
Energy: -34145.5203293 eV PBE+vdW (tier 2 basis)
C    0.904721  -0.946159  3.711827
C    0.227083  -0.115838  2.672326
O    0.729313  1.015279  2.331403
H    0.192392  -1.403209  4.408720
H    1.617065  -0.327954  4.264959
H    1.467267  -1.761643  3.229886
N    -0.890108  -0.543549  2.080892
C    -1.521274  0.209144  0.962951
C    -2.008236  1.608463  1.378343
O    -1.306344  2.612619  1.000233
H    -0.736833  0.410289  0.217289
C    -2.550160  -0.769434  0.358794
C    -2.034557  -2.151852  0.790477
C    -1.458127  -1.914760  2.185854
H    -2.598047  -0.652871  -0.728879
H    -3.559012  -0.593680  0.744781
H    -1.244973  -2.502134  0.112337
H    -2.825992  -2.908617  0.795730
H    -0.675954  -2.629768  2.457383
H    -2.229914  -1.935241  2.969532
N    -3.098337  1.832377  2.092870
C    -4.047617  0.913500  2.728419
H    -3.299730  2.825849  2.218590
H    -4.394963  1.380616  3.656141
H    -4.915965  0.739630  2.080153
H    -3.571184  -0.035296  2.981097
Ca    0.768487  2.897238  1.394890
