27
Energy: -34145.0481121 eV PBE+vdW (tier 2 basis)
C    -0.755547  0.730097  -0.189375
C    -0.366152  0.073407  1.097498
O    0.870060  -0.159905  1.342588
H    -0.657793  1.825424  -0.119158
H    -1.778424  0.493379  -0.499220
H    -0.054297  0.397267  -0.964209
N    -1.297906  -0.235348  2.017640
C    -2.415159  0.673787  2.286092
C    -1.809799  2.002092  2.837551
O    -0.550453  2.121180  3.018719
H    -2.988737  0.901340  1.377376
C    -3.248236  -0.097981  3.326384
C    -2.180882  -0.810454  4.168966
C    -1.073877  -1.159610  3.165869
H    -3.883861  -0.815884  2.791782
H    -3.905466  0.545844  3.921103
H    -2.571999  -1.703314  4.667008
H    -1.799987  -0.143659  4.954817
H    -1.147996  -2.185580  2.781471
H    -0.064499  -1.061896  3.593017
N    -2.637590  2.989087  3.110902
C    -2.241201  4.295512  3.651617
H    -3.628775  2.837671  2.934374
H    -1.586591  4.817362  2.943602
H    -1.720813  4.167887  4.607669
H    -3.144392  4.889923  3.809954
Ca    1.448371  1.313373  2.787961
