27
Energy: -34145.7602187 eV PBE+vdW (tier 2 basis)
C    0.965346  -1.408929  2.764149
C    0.282477  -0.274221  2.073637
O    0.900073  0.377940  1.158312
H    1.968715  -1.538545  2.351613
H    0.401371  -2.344087  2.634038
H    1.039215  -1.229323  3.846333
N    -0.969089  0.050413  2.406476
C    -1.801043  1.032279  1.654629
C    -1.400687  2.490120  1.972788
O    -0.371875  2.984147  1.401029
H    -1.600094  0.908376  0.580443
C    -3.233763  0.602185  2.009628
C    -3.123923  0.019494  3.425944
C    -1.780253  -0.706970  3.404535
H    -3.538565  -0.180922  1.302535
H    -3.968272  1.409241  1.901694
H    -3.948756  -0.660925  3.660867
H    -3.124764  0.798983  4.201695
H    -1.889816  -1.744407  3.057733
H    -1.274833  -0.716136  4.376830
N    -2.135420  3.204282  2.801602
C    -1.901068  4.600394  3.175715
H    -2.951193  2.751484  3.207507
H    -1.118936  5.020435  2.540386
H    -2.829696  5.166862  3.042684
H    -1.595353  4.656465  4.228048
Ca    1.347206  2.261371  0.368148
