21
Energy: -240073.387837 eV PBE+vdW (tier 2 basis)
N    -0.503420  0.428570  0.077750
C    -0.149367  0.045594  1.438801
C    1.384416  0.130989  1.483598
O    1.909363  1.176320  1.994318
H    -0.631579  -0.358405  -0.554850
H    -1.327172  1.023883  0.039374
H    -0.481449  0.848050  2.108693
C    -0.757107  -1.270712  1.998481
C    -0.713394  -2.467809  1.107557
N    0.434213  -2.889594  0.451901
C    -1.682450  -3.387396  0.792030
C    0.192980  -4.012832  -0.231207
N    -1.091748  -4.327834  -0.027130
H    -1.811563  -1.073732  2.231710
H    -0.275242  -1.514137  2.960078
H    -2.721214  -3.452864  1.090146
H    0.896164  -4.566443  -0.841105
H    -1.555563  -5.143177  -0.421232
O    2.142448  -0.766096  0.940534
H    1.305517  -2.329096  0.485484
Ba    4.130323  0.877585  1.080333
