21
Energy: -240073.400227 eV PBE+vdW (tier 2 basis)
N    3.143527  -1.597365  2.375028
C    2.737664  -1.154179  1.045768
C    2.162809  0.265639  1.099961
O    0.916977  0.506091  1.359979
H    4.013830  -1.169209  2.685299
H    2.433237  -1.469074  3.093990
H    3.650486  -1.066785  0.442634
C    1.844132  -2.206320  0.343980
C    0.745395  -2.796115  1.160970
N    -0.250079  -2.039199  1.760753
C    0.452322  -4.101576  1.462803
C    -1.117676  -2.831175  2.400614
N    -0.700720  -4.089807  2.221024
H    2.501569  -3.031459  0.044062
H    1.428853  -1.784187  -0.584877
H    0.961706  -5.019712  1.199399
H    -1.991939  -2.521240  2.959457
H    -1.171796  -4.911528  2.592451
O    2.973994  1.245308  0.942465
H    -0.232257  -1.010436  1.726155
Ba    1.361964  3.041330  1.141085
