21
Energy: -240073.337612 eV PBE+vdW (tier 2 basis)
N    -0.440646  1.049594  1.117536
C    0.343404  0.100505  1.918708
C    1.805303  0.355242  1.507174
O    2.751923  -0.383377  1.869892
H    -0.930993  0.616520  0.333646
H    -1.112321  1.587212  1.663252
H    0.271828  0.395226  2.977185
C    -0.054922  -1.400543  1.791194
C    0.130058  -2.250782  3.013611
N    1.345118  -2.769549  3.470839
C    -0.872592  -2.688708  3.846641
C    1.051346  -3.498928  4.554466
N    -0.270282  -3.466446  4.804965
H    0.451825  -1.851019  0.923900
H    -1.126241  -1.425577  1.553066
H    -1.943832  -2.527393  3.826701
H    1.750277  -4.058247  5.168585
H    -0.742741  -3.948355  5.565996
O    1.978179  1.381556  0.755841
H    0.979158  1.700228  0.636695
Ba    3.840535  -2.349867  2.673678
