21
Energy: -240072.551819 eV PBE+vdW (tier 2 basis)
N    0.525838  0.057617  0.171197
C    0.230174  -0.296493  1.591706
C    1.529655  -0.213500  2.388547
O    2.438901  0.551474  2.012387
H    0.894921  -0.794162  -0.274623
H    -0.456060  0.121412  -0.237641
H    -0.388038  0.528474  1.995714
C    -0.598043  -1.587448  1.722631
C    -1.933178  -1.424523  1.045927
N    -2.099364  -0.521943  0.008340
C    -3.118917  -2.080245  1.283929
C    -3.364124  -0.631685  -0.375225
N    -4.006425  -1.563088  0.371117
H    -0.777881  -1.830037  2.783401
H    -0.029401  -2.432425  1.295570
H    -3.402723  -2.843180  1.998382
H    -3.843371  -0.069777  -1.168795
H    -4.980977  -1.833101  0.274671
O    1.704587  -0.882322  3.497904
H    0.951033  -1.471699  3.706116
Ba    2.458590  1.947395  -0.025562
