21
Energy: -240073.722366 eV PBE+vdW (tier 2 basis)
N    0.792003  0.288872  0.402911
C    0.298896  -0.017038  1.804909
C    1.539349  -0.420272  2.610029
O    1.382194  -0.676937  3.835216
H    0.733642  1.287323  0.168030
H    0.294147  -0.247200  -0.319504
H    -0.161659  0.886349  2.220940
C    -0.712043  -1.184121  1.841057
C    -0.225431  -2.508765  1.325737
N    0.830422  -3.249159  1.869841
C    -0.809100  -3.242129  0.316951
C    0.853875  -4.395475  1.188806
N    -0.115614  -4.424337  0.250435
H    -1.614794  -0.897848  1.283515
H    -1.022301  -1.270688  2.892414
H    -1.667537  -3.041947  -0.313899
H    1.540539  -5.222798  1.339711
H    -0.311334  -5.197749  -0.380203
O    2.610712  -0.645533  1.958084
H    1.801016  -0.008091  0.422938
Ba    2.891750  -2.656578  3.645594
