21
Energy: -240073.386739 eV PBE+vdW (tier 2 basis)
N    -0.036871  0.949328  0.683735
C    0.384687  -0.212536  1.421562
C    1.061488  -1.328809  0.594843
O    1.193942  -1.180784  -0.665286
H    0.743873  1.489095  0.315559
H    -0.660610  0.727587  -0.091868
H    1.152801  0.113506  2.144163
C    -0.825170  -0.778796  2.236883
C    -0.497905  -1.317831  3.586209
N    0.499510  -2.254823  3.812086
C    -1.047176  -1.054871  4.815927
C    0.568409  -2.558451  5.112844
N    -0.372351  -1.836571  5.731930
H    -1.366284  -1.538813  1.651572
H    -1.513756  0.064442  2.367562
H    -1.850021  -0.388581  5.104854
H    1.255146  -3.251093  5.583386
H    -0.553124  -1.862472  6.732819
O    1.515808  -2.399015  1.166986
H    1.094794  -2.601655  3.046357
Ba    2.462810  -3.222856  -1.071122
