21
Energy: -240073.294943 eV PBE+vdW (tier 2 basis)
N    -0.925384  -0.174595  0.341439
C    -0.077685  -0.890899  1.274559
C    0.789090  -1.893221  0.514025
O    1.277849  -2.921624  1.104749
H    -0.452621  -0.032191  -0.550458
H    -1.201808  0.737898  0.701092
H    0.665925  -0.248858  1.800075
C    -0.971856  -1.569566  2.359745
C    -0.409640  -1.629675  3.741297
N    -1.126752  -1.193898  4.850304
C    0.791899  -2.066816  4.241518
C    -0.415131  -1.354941  5.972121
N    0.756834  -1.884010  5.610324
H    -1.251594  -2.580830  2.032538
H    -1.908362  -0.996898  2.381643
H    1.642509  -2.496506  3.731280
H    -0.728071  -1.102734  6.978358
H    1.504716  -2.113373  6.260290
O    1.032405  -1.677084  -0.725569
H    -2.069342  -0.811111  4.826163
Ba    2.227017  -3.778067  -1.076494
