21
Energy: -240073.369098 eV PBE+vdW (tier 2 basis)
N    -0.242867  -0.212814  0.355055
C    -0.081643  0.153172  1.765459
C    1.420428  0.421888  1.944915
O    1.949589  0.595206  3.069109
H    -0.377822  -1.214345  0.209344
H    -0.995916  0.290650  -0.111635
H    -0.578526  1.121560  1.937631
C    -0.628283  -0.838452  2.825882
C    0.028986  -2.184050  2.873738
N    1.225192  -2.441869  3.553841
C    -0.417062  -3.357434  2.312126
C    1.470711  -3.746001  3.388001
N    0.505448  -4.320155  2.645834
H    -1.700396  -0.970809  2.630957
H    -0.572853  -0.351036  3.810602
H    -1.311685  -3.589403  1.746148
H    2.315068  -4.301633  3.783295
H    0.458936  -5.304416  2.392888
O    2.094903  0.437552  0.849114
H    1.336257  0.213423  0.155159
Ba    2.742534  -0.707035  4.918536
