21
Energy: -240072.935319 eV PBE+vdW (tier 2 basis)
N    1.788281  -1.895677  0.694696
C    0.589307  -1.153231  1.049000
C    0.947424  -0.105914  2.100537
O    0.831604  -0.326303  3.326444
H    2.300635  -2.285326  1.484329
H    2.427445  -1.416741  0.063774
H    0.229598  -0.636248  0.145665
C    -0.510669  -2.124958  1.530128
C    -1.856764  -1.528337  1.807435
N    -2.244335  -1.007078  3.046902
C    -2.918524  -1.425087  0.940685
C    -3.513413  -0.606611  2.904104
N    -3.941158  -0.842495  1.650085
H    -0.140675  -2.680021  2.408042
H    -0.605756  -2.878171  0.737511
H    -3.034113  -1.730520  -0.092445
H    -4.141384  -0.157941  3.666760
H    -4.872421  -0.640003  1.294446
O    1.488976  1.043575  1.752759
H    1.551483  1.152210  0.782973
Ba    -0.683057  -0.801659  5.160192
