21
Energy: -240072.154753 eV PBE+vdW (tier 2 basis)
N    0.835128  -0.295494  0.216506
C    0.031491  -0.169345  1.412057
C    0.921506  0.229444  2.568278
O    2.030805  0.656478  2.526279
H    0.323646  0.000501  -0.613616
H    1.695676  0.249231  0.272736
H    -0.718668  0.650075  1.368883
C    -0.766251  -1.490010  1.639402
C    0.080890  -2.684743  1.943529
N    0.238377  -3.184825  3.240803
C    0.847835  -3.435497  1.088145
C    1.081453  -4.222346  3.146342
N    1.459793  -4.389598  1.867018
H    -1.333531  -1.663335  0.715244
H    -1.560203  -1.335813  2.397162
H    1.005475  -3.362273  0.019873
H    1.419975  -4.857798  3.957278
H    2.091767  -5.112510  1.529989
O    0.268354  0.136326  3.867945
H    0.839127  0.717716  4.415941
Ba    -0.903243  -1.890173  5.136998
