21
Energy: -240073.483614 eV PBE+vdW (tier 2 basis)
N    1.233583  -0.502017  0.257745
C    0.277116  -0.064748  1.308771
C    1.078760  0.434942  2.512865
O    2.242190  0.068094  2.703343
H    0.707684  -1.015260  -0.456303
H    1.591128  0.327063  -0.229183
H    -0.359631  0.755789  0.937545
C    -0.670679  -1.224512  1.716081
C    -0.140927  -2.333135  2.579966
N    1.104366  -2.947814  2.446138
C    -0.856893  -2.989905  3.553592
C    1.113503  -3.954804  3.326847
N    -0.050304  -4.005583  4.002465
H    -1.074456  -1.638650  0.776342
H    -1.541444  -0.792343  2.227089
H    -1.856897  -2.834054  3.940777
H    1.923042  -4.657509  3.496761
H    -0.292559  -4.686320  4.718390
O    0.511134  1.231337  3.392846
H    -0.385416  1.523243  3.135552
Ba    3.347701  -1.870817  1.498369
