21
Energy: -240073.635061 eV PBE+vdW (tier 2 basis)
N    -0.127588  0.545701  0.265710
C    0.133424  0.049044  1.677601
C    1.654508  0.025000  1.854623
O    2.312854  -0.431629  0.857840
H    0.625999  0.146265  -0.328928
H    -1.045402  0.255680  -0.099808
H    -0.353018  0.727552  2.386064
C    -0.392441  -1.407208  1.786017
C    -0.010797  -2.158637  3.026386
N    1.275518  -2.625876  3.304314
C    -0.871127  -2.602769  4.002271
C    1.164116  -3.334084  4.429066
N    -0.110203  -3.338367  4.874358
H    -0.028282  -1.964370  0.906860
H    -1.490032  -1.388867  1.726928
H    -1.939090  -2.475910  4.133813
H    1.961578  -3.864068  4.940577
H    -0.450265  -3.821240  5.701933
O    2.143622  0.266360  2.986095
H    -0.071724  1.571941  0.202205
Ba    3.767345  -1.661518  2.613074
