21
Energy: -240073.415853 eV PBE+vdW (tier 2 basis)
N    0.079272  -0.385765  -0.000394
C    -0.070912  0.128697  1.366729
C    1.306596  0.672201  1.774841
O    1.501913  1.929837  1.655445
H    0.210097  0.383933  -0.658879
H    -0.777015  -0.860285  -0.293507
H    -0.751933  0.993481  1.450166
C    -0.628691  -0.965828  2.309877
C    -0.142965  -2.356975  2.065842
N    1.196747  -2.693644  1.981579
C    -0.834133  -3.531545  1.909246
C    1.336192  -4.005712  1.776684
N    0.104872  -4.528656  1.736207
H    -1.721099  -0.976074  2.198385
H    -0.440277  -0.682485  3.356678
H    -1.897261  -3.735606  1.914646
H    2.264653  -4.550366  1.658868
H    -0.098516  -5.515724  1.599177
O    2.260504  -0.089892  2.189813
H    1.930265  -1.972688  2.023125
Ba    3.824788  1.941242  2.391271
