21
Energy: -240073.441813 eV PBE+vdW (tier 2 basis)
N    -0.015820  -0.956282  -0.041037
C    0.111403  -0.538121  1.408419
C    0.891454  0.809518  1.303724
O    1.250667  1.330296  2.423614
H    0.560993  -1.769445  -0.286233
H    -0.979574  -1.137617  -0.340227
H    -0.900971  -0.335155  1.780583
C    0.804624  -1.606017  2.289315
C    0.382104  -1.651127  3.730799
N    0.781030  -0.757161  4.726036
C    -0.403286  -2.625708  4.301909
C    0.235132  -1.205159  5.860337
N    -0.483914  -2.322970  5.638015
H    1.896712  -1.493226  2.211735
H    0.574495  -2.599545  1.878110
H    -0.884660  -3.500814  3.881772
H    0.338924  -0.763545  6.846520
H    -0.984850  -2.858400  6.342705
O    1.108749  1.245199  0.173886
H    0.385690  -0.077082  -0.524254
Ba    2.031028  1.627450  4.585104
