21
Energy: -240073.829831 eV PBE+vdW (tier 2 basis)
N    -0.106079  -3.475316  2.148579
C    0.191594  -2.133303  1.637493
C    1.011796  -2.098426  0.334061
O    1.370779  -3.193919  -0.218191
H    -0.760765  -3.962001  1.534578
H    0.739840  -4.050323  2.168337
H    -0.765641  -1.646032  1.387972
C    0.885859  -1.275106  2.726581
C    0.049666  -1.107837  3.954905
N    -0.698420  -2.154515  4.467723
C    -0.141932  -0.051006  4.808621
C    -1.329732  -1.773421  5.578951
N    -0.994374  -0.495150  5.800653
H    1.130703  -0.287624  2.318766
H    1.840692  -1.753127  3.003273
H    0.252069  0.956894  4.797109
H    -1.991366  -2.376317  6.188931
H    -1.323724  0.058640  6.587484
O    1.301275  -0.964517  -0.186867
H    -0.742736  -3.040407  3.919843
Ba    2.370496  -2.004190  -2.170801
