21
Energy: -240073.562762 eV PBE+vdW (tier 2 basis)
N    -0.320655  -0.248261  1.227214
C    0.284451  0.644152  2.220293
C    1.370762  1.512348  1.567492
O    2.608138  1.180902  1.630025
H    0.377355  -0.825710  0.755327
H    -0.837482  0.273687  0.519580
H    -0.502604  1.330730  2.564006
C    0.827435  -0.162651  3.412364
C    -0.231610  -0.912082  4.158806
N    -0.160176  -1.122245  5.532051
C    -1.386412  -1.538572  3.757504
C    -1.210235  -1.835954  5.958567
N    -1.962023  -2.090252  4.885165
H    1.342875  0.517937  4.105685
H    1.596937  -0.866265  3.056487
H    -1.814618  -1.627627  2.768684
H    -1.410323  -2.143915  6.977710
H    -2.830784  -2.619113  4.905267
O    0.998073  2.537141  0.890179
H    0.582724  -0.792148  6.142710
Ba    3.285176  3.093900  0.175884
