21
Energy: -240073.437748 eV PBE+vdW (tier 2 basis)
N    -1.187609  0.291146  0.774791
C    -0.126507  -0.049233  1.712384
C    1.238836  0.359230  1.159777
O    1.298385  1.332046  0.326747
H    -0.980463  1.179386  0.317008
H    -2.080213  0.398414  1.257258
H    -0.170803  0.541736  2.655420
C    -0.201315  -1.519792  2.170906
C    -0.303913  -2.547024  1.087834
N    0.060563  -3.871310  1.310518
C    -0.801264  -2.519182  -0.192183
C    -0.197726  -4.622889  0.232709
N    -0.716969  -3.807122  -0.687885
H    -1.085045  -1.621643  2.821508
H    0.671695  -1.735512  2.802575
H    -1.221193  -1.690021  -0.744955
H    -0.019601  -5.686503  0.129816
H    -1.023771  -4.105281  -1.610603
O    2.308442  -0.186327  1.606944
H    0.451709  -4.237263  2.175081
Ba    3.736763  1.596144  0.602349
