25
Energy: -18628.7166343 eV PBE+vdW (tier 2 basis)
C    0.093667  -0.344765  0.000418
C    -0.088379  -0.532706  1.492726
O    0.684292  -1.213440  2.158955
H    0.581100  -1.241495  -0.394047
H    0.770856  0.503933  -0.170279
H    -0.833685  -0.155535  -0.551583
N    -1.165310  0.081951  2.110252
C    -2.123959  1.048189  1.578054
C    -3.072349  0.468629  0.498398
O    -3.562164  1.197421  -0.360220
H    -1.130370  -0.024954  3.120333
H    -2.785949  1.290781  2.422683
C    -1.497598  2.370639  1.100702
C    -2.465296  3.519301  0.906897
O    -3.453438  3.524707  1.851524
O    -2.351701  4.387714  0.072654
H    -0.959301  2.254492  0.154975
H    -0.769095  2.693130  1.860907
N    -3.344248  -0.856108  0.628094
C    -4.237766  -1.566011  -0.266443
H    -2.828717  -1.367560  1.336267
H    -5.044782  -2.057762  0.293194
H    -3.698251  -2.324583  -0.851044
H    -4.673760  -0.832692  -0.952964
H    -4.007642  4.301980  1.646853
