25
Energy: -18628.5461463 eV PBE+vdW (tier 2 basis)
C    -0.163201  0.102561  0.062546
C    -0.191850  -0.247664  1.536491
O    0.833736  -0.314799  2.213292
H    0.522996  -0.583692  -0.447836
H    0.241889  1.116558  -0.046539
H    -1.144836  0.056319  -0.423921
N    -1.431180  -0.496543  2.059966
C    -1.663232  -0.740482  3.483515
C    -1.318790  0.535575  4.305365
O    -2.043441  1.514361  4.121417
H    -2.241431  -0.277651  1.494546
H    -2.754038  -0.776561  3.591366
C    -1.123258  -2.113240  3.918924
C    -1.794434  -3.263371  3.198148
O    -3.154990  -3.128247  3.155565
O    -1.223436  -4.219497  2.722370
H    -1.311160  -2.248983  4.995641
H    -0.050829  -2.214067  3.739644
N    -0.327616  0.569024  5.240317
C    0.845054  -0.280933  5.423240
H    -0.301413  1.478177  5.693432
H    1.595455  0.300587  5.969717
H    1.271917  -0.566450  4.455168
H    0.622928  -1.178133  6.018446
H    -3.484369  -3.924248  2.695355
