25
Energy: -18628.8551422 eV PBE+vdW (tier 2 basis)
C    -1.886531  -0.152006  -0.299966
C    -1.162206  -0.016581  1.024478
O    0.009229  0.358791  1.103224
H    -1.290425  -0.789089  -0.964226
H    -1.952561  0.838708  -0.767556
H    -2.896277  -0.569309  -0.206686
N    -1.897151  -0.327752  2.129967
C    -1.341113  -0.268734  3.457450
C    -2.241213  -1.148851  4.347476
O    -3.364386  -1.477593  3.958118
H    -2.852640  -0.676364  2.081516
H    -0.314880  -0.665732  3.418560
C    -1.218732  1.196599  3.992021
C    -2.523431  1.745027  4.513227
O    -3.326743  2.204312  3.515779
O    -2.852825  1.759164  5.683130
H    -0.831682  1.802306  3.164415
H    -0.499010  1.233699  4.815735
N    -1.765448  -1.539794  5.557535
C    -0.532854  -1.148532  6.219671
H    -2.464235  -2.022689  6.114954
H    -0.263858  -1.920371  6.949717
H    -0.631791  -0.186406  6.745164
H    0.290637  -1.079235  5.499153
H    -4.158874  2.480433  3.948144
