25
Energy: -18628.6605657 eV PBE+vdW (tier 2 basis)
C    0.425440  1.553305  0.479852
C    0.081071  0.342421  1.327584
O    0.905550  -0.185444  2.066556
H    -0.382744  2.296392  0.430779
H    1.320601  2.019091  0.900600
H    0.653467  1.227006  -0.544987
N    -1.189994  -0.170418  1.220300
C    -2.333573  0.330949  0.497492
C    -3.569959  -0.400828  1.087168
O    -3.448069  -1.354224  1.849121
H    -1.405487  -0.970091  1.819663
H    -2.475218  1.409547  0.689326
C    -2.226598  0.166745  -1.050745
C    -1.677758  -1.183269  -1.458871
O    -2.583651  -2.176002  -1.247135
O    -0.570708  -1.375306  -1.910218
H    -1.546655  0.923674  -1.453229
H    -3.213664  0.313278  -1.511552
N    -4.770863  0.107476  0.701676
C    -6.037861  -0.467803  1.116994
H    -4.784285  0.919762  0.096822
H    -6.649245  0.270798  1.652663
H    -5.816862  -1.302262  1.789773
H    -6.604483  -0.845200  0.254562
H    -2.133737  -3.012763  -1.475451
