25
Energy: -18628.9216664 eV PBE+vdW (tier 2 basis)
C    -4.654484  -0.428072  0.419848
C    -3.281379  -0.185847  1.015006
O    -2.407487  0.445940  0.424234
H    -4.533494  -0.830625  -0.592576
H    -5.172269  0.535799  0.331205
H    -5.277272  -1.110063  1.011337
N    -3.090084  -0.700392  2.268209
C    -1.819027  -0.632433  2.948475
C    -1.654004  -1.937062  3.748370
O    -2.632481  -2.565562  4.151187
H    -3.774202  -1.317112  2.700573
H    -1.031545  -0.536582  2.184831
C    -1.714695  0.580370  3.920292
C    -1.479325  1.868517  3.162522
O    -2.635534  2.544078  2.927794
O    -0.391700  2.257951  2.793842
H    -0.853472  0.440501  4.585327
H    -2.629474  0.632350  4.522585
N    -0.366122  -2.297055  3.987607
C    -0.002067  -3.455652  4.783076
H    0.370149  -1.735945  3.574477
H    0.598681  -3.163738  5.655325
H    0.565371  -4.182405  4.186014
H    -0.928802  -3.925693  5.127379
H    -2.391282  3.302731  2.362059
