25
Energy: -18628.3448149 eV PBE+vdW (tier 2 basis)
C    0.518987  0.566912  1.293748
C    0.235083  -0.740279  1.997727
O    1.142209  -1.535062  2.243734
H    0.105897  1.434029  1.823229
H    0.105532  0.560913  0.277440
H    1.605212  0.672011  1.232761
N    -1.047517  -1.068778  2.389700
C    -2.404672  -0.564704  2.185690
C    -3.327190  -1.338618  1.197681
O    -4.538331  -1.153422  1.324169
H    -1.027597  -1.972838  2.856624
H    -2.915262  -0.773351  3.138772
C    -2.593131  0.944625  1.993394
C    -2.390146  1.482249  0.596691
O    -2.368480  2.841997  0.603430
O    -2.291593  0.830055  -0.422107
H    -1.994675  1.520040  2.710583
H    -3.645539  1.157327  2.236483
N    -2.839139  -2.262530  0.324050
C    -1.507104  -2.396898  -0.261265
H    -3.601117  -2.679352  -0.203441
H    -1.596521  -3.052263  -1.134379
H    -1.121549  -1.429348  -0.605575
H    -0.787594  -2.852947  0.428391
H    -2.287591  3.117550  -0.330538
