25
Energy: -18629.0552222 eV PBE+vdW (tier 2 basis)
C    -3.259561  -0.683151  -0.262724
C    -2.247713  -0.903782  0.839815
O    -1.159226  -1.456308  0.626239
H    -4.149150  -0.132442  0.064312
H    -3.567369  -1.657439  -0.663003
H    -2.773656  -0.133523  -1.078153
N    -2.616463  -0.472818  2.076794
C    -1.677466  -0.433689  3.196703
C    -1.575921  -1.823404  3.903974
O    -2.051827  -2.020310  5.020857
H    -3.443997  0.114815  2.162891
H    -0.685209  -0.189054  2.784254
C    -2.094226  0.609814  4.245196
C    -2.525388  1.923481  3.649864
O    -1.700234  2.948813  3.980258
O    -3.509863  2.080597  2.946290
H    -1.266002  0.756724  4.945080
H    -2.936530  0.197573  4.820095
N    -0.915407  -2.742594  3.161814
C    -0.782449  -4.125810  3.575700
H    -0.694237  -2.469616  2.196982
H    0.241363  -4.478908  3.397650
H    -1.479672  -4.780753  3.031389
H    -1.007110  -4.190220  4.645405
H    -2.072686  3.747002  3.555319
