25
Energy: -18628.7042256 eV PBE+vdW (tier 2 basis)
C    -0.191322  -0.126408  -0.230176
C    -0.080204  -0.339167  1.266685
O    0.656641  -1.193086  1.754164
H    -0.835229  0.715813  -0.511371
H    -0.583430  -1.044078  -0.686740
H    0.813533  0.037893  -0.637321
N    -0.846705  0.504540  2.034336
C    -0.960754  0.334784  3.475751
C    -2.354014  -0.256802  3.779288
O    -3.357831  0.443322  3.613812
H    -1.566625  1.056519  1.578509
H    -0.151313  -0.342242  3.765262
C    -0.799155  1.671440  4.201609
C    -0.676545  1.492140  5.706702
O    -0.666132  2.646676  6.435932
O    -0.576509  0.427686  6.268612
H    -1.665711  2.315697  3.980439
H    0.103583  2.181535  3.830720
N    -2.417964  -1.554121  4.160165
C    -1.311272  -2.448520  4.487157
H    -3.363028  -1.871854  4.353830
H    -1.715085  -3.460551  4.596990
H    -0.821844  -2.158861  5.427547
H    -0.567363  -2.467909  3.680941
H    -0.785721  3.410555  5.845157
