25
Energy: -18628.9113402 eV PBE+vdW (tier 2 basis)
C    -0.727131  -0.557838  -0.349767
C    -0.106241  -0.514697  1.030256
O    1.043736  -0.876465  1.255237
H    0.044150  -0.880368  -1.053557
H    -1.110502  0.424583  -0.659188
H    -1.564028  -1.269563  -0.374319
N    -0.884772  -0.018333  2.062795
C    -2.299855  0.312310  2.048028
C    -2.606773  1.810276  2.300497
O    -3.754956  2.181480  2.536227
H    -0.432897  -0.114782  2.970420
H    -2.677585  0.106521  1.036798
C    -3.110464  -0.550251  3.016660
C    -3.276333  -1.965922  2.520289
O    -3.550518  -2.823385  3.539203
O    -3.203212  -2.323267  1.361889
H    -4.111506  -0.101210  3.118042
H    -2.671928  -0.555340  4.024421
N    -1.536890  2.638012  2.196295
C    -1.639334  4.077600  2.331098
H    -0.639856  2.205435  2.000531
H    -2.679498  4.315856  2.577832
H    -1.369969  4.585133  1.394292
H    -0.985847  4.445541  3.133608
H    -3.678333  -3.701034  3.128506
