25
Energy: -18629.0514597 eV PBE+vdW (tier 2 basis)
C    -1.390049  -0.581476  -0.714000
C    -0.621068  -0.687163  0.588802
O    0.596793  -0.838405  0.622376
H    -2.477053  -0.521132  -0.580482
H    -1.149767  -1.449708  -1.339466
H    -1.046323  0.311279  -1.251895
N    -1.392066  -0.622659  1.726977
C    -0.797890  -0.544485  3.050165
C    -1.240968  -1.677442  4.005120
O    -1.134723  -1.548369  5.223627
H    -2.368643  -0.343465  1.666057
H    0.283180  -0.687014  2.888060
C    -1.002853  0.820336  3.716469
C    -2.455911  1.204397  3.864800
O    -2.617853  2.236627  4.727297
O    -3.394193  0.690391  3.279564
H    -0.505462  1.604333  3.125241
H    -0.537955  0.819148  4.709586
N    -1.688527  -2.801362  3.391070
C    -2.085009  -3.990293  4.117386
H    -1.754073  -2.778601  2.379634
H    -3.142007  -4.232139  3.937971
H    -1.942834  -3.789501  5.184651
H    -1.468905  -4.853963  3.830771
H    -3.575840  2.429665  4.746220
