25
Energy: -18629.0023807 eV PBE+vdW (tier 2 basis)
C    -3.891832  -0.819490  -0.111455
C    -2.737216  -0.962579  0.856199
O    -1.640559  -1.411868  0.504283
H    -4.047222  -1.774843  -0.626116
H    -3.616200  -0.076868  -0.871435
H    -4.829666  -0.505825  0.362911
N    -2.977152  -0.559163  2.135584
C    -1.941164  -0.502698  3.167237
C    -1.710466  -1.880882  3.850186
O    -1.951634  -2.067704  5.042786
H    -3.914726  -0.269169  2.389098
H    -1.011709  -0.214554  2.652643
C    -2.293365  0.555628  4.201819
C    -2.116664  1.964625  3.683386
O    -2.869461  2.849742  4.398077
O    -1.392249  2.306455  2.773319
H    -1.637397  0.430294  5.076424
H    -3.309245  0.420664  4.598055
N    -1.212592  -2.812170  3.000647
C    -0.963205  -4.183122  3.398356
H    -1.089193  -2.526347  2.023892
H    0.078560  -4.465358  3.193488
H    -1.626092  -4.880569  2.865762
H    -1.151158  -4.266161  4.473961
H    -2.658394  3.732962  4.036896
