25
Energy: -18628.761269 eV PBE+vdW (tier 2 basis)
C    -1.181186  0.279335  -0.615946
C    -0.981201  0.327110  0.883935
O    -0.362408  1.223753  1.446869
H    -1.667371  1.208432  -0.938035
H    -1.780488  -0.575246  -0.950857
H    -0.197029  0.242613  -1.099608
N    -1.580848  -0.698443  1.591707
C    -1.273355  -0.891510  3.003746
C    -1.394609  -2.411543  3.250699
O    -1.816203  -3.149198  2.354792
H    -1.799041  -1.587812  1.128467
H    -0.236225  -0.561601  3.183118
C    -2.182535  -0.025564  3.911329
C    -3.657959  -0.407690  3.919310
O    -4.242757  -0.512974  2.698039
O    -4.294192  -0.587379  4.931984
H    -2.081863  1.012863  3.560740
H    -1.839921  -0.046214  4.949297
N    -1.025532  -2.906178  4.457931
C    -0.478733  -2.213713  5.613636
H    -1.201134  -3.902831  4.544808
H    0.144923  -2.914938  6.179662
H    -1.264801  -1.829845  6.280626
H    0.163748  -1.381264  5.303505
H    -3.544791  -0.409981  2.011581
