25
Energy: -18628.4961718 eV PBE+vdW (tier 2 basis)
C    -0.293637  0.258176  -0.221294
C    -0.371369  -0.106060  1.250316
O    0.233993  -1.057515  1.731610
H    -0.489230  -0.640425  -0.818077
H    0.729713  0.584354  -0.447589
H    -0.990274  1.050726  -0.522391
N    -1.174721  0.699973  2.016156
C    -1.277590  0.538301  3.459252
C    -1.797901  -0.825558  3.974396
O    -1.349913  -1.247323  5.036435
H    -1.644130  1.483729  1.578765
H    -0.273076  0.601466  3.901417
C    -2.141464  1.685505  4.025395
C    -2.070888  1.748014  5.540509
O    -3.204429  1.264609  6.114804
O    -1.134004  2.185448  6.169368
H    -3.185509  1.584068  3.700478
H    -1.739174  2.638239  3.653183
N    -2.790817  -1.491774  3.314415
C    -3.475396  -1.202002  2.066681
H    -3.010921  -2.372594  3.768846
H    -4.383906  -1.814291  2.028674
H    -2.865696  -1.437818  1.181422
H    -3.788446  -0.152721  2.006709
H    -3.047883  1.284433  7.079358
