25
Energy: -18628.9477407 eV PBE+vdW (tier 2 basis)
C    -1.896132  -0.685827  -0.052295
C    -1.227805  -0.246679  1.232292
O    -0.102490  0.267235  1.234385
H    -1.338552  -1.541555  -0.455956
H    -1.825593  0.125838  -0.785226
H    -2.946102  -0.977505  0.068700
N    -1.948078  -0.446735  2.373275
C    -1.475560  -0.342323  3.759854
C    -1.070777  1.051984  4.271372
O    -1.158790  1.264329  5.496954
H    -2.864287  -0.864113  2.263050
H    -2.356558  -0.596105  4.364370
C    -0.355373  -1.369469  4.089309
C    -0.338800  -1.940727  5.516333
O    -0.715598  -1.140964  6.525245
O    0.013976  -3.085227  5.711322
H    0.632769  -0.934063  3.880043
H    -0.461085  -2.234086  3.424734
N    -0.599961  1.948880  3.395322
C    -0.103695  3.245652  3.827033
H    -0.336259  1.579946  2.471170
H    -0.760636  3.650780  4.603883
H    -0.091736  3.925022  2.968360
H    0.912454  3.174426  4.242912
H    -0.932332  -0.207716  6.212561
