25
Energy: -18628.6375584 eV PBE+vdW (tier 2 basis)
C    0.154711  -0.799399  0.264503
C    -0.255674  0.339339  1.175046
O    0.152384  1.484703  1.011112
H    0.953953  -1.388624  0.736522
H    0.550400  -0.361277  -0.655564
H    -0.661034  -1.489947  0.022474
N    -1.080352  0.063807  2.249308
C    -1.756997  -1.170296  2.638477
C    -0.792251  -2.374714  2.726933
O    -1.027682  -3.436766  2.129725
H    -1.315470  0.901488  2.774200
H    -2.111184  -0.991475  3.667677
C    -2.997441  -1.474393  1.766374
C    -4.025703  -2.405258  2.419339
O    -3.669054  -3.700815  2.517179
O    -5.096705  -2.005883  2.822928
H    -2.678416  -1.893655  0.802092
H    -3.509720  -0.525325  1.579780
N    0.317627  -2.249185  3.491019
C    0.752318  -1.127319  4.311891
H    0.890919  -3.087871  3.494622
H    1.462352  -1.504787  5.055463
H    -0.090335  -0.682069  4.854997
H    1.241855  -0.341770  3.720930
H    -2.721462  -3.787209  2.221477
