25
Energy: -18628.8085267 eV PBE+vdW (tier 2 basis)
C    -0.649974  0.474651  -0.212506
C    -0.530143  -0.232902  1.122529
O    0.462530  -0.892956  1.426572
H    0.216523  1.134940  -0.338623
H    -1.568635  1.063833  -0.321064
H    -0.609162  -0.275345  -1.012431
N    -1.596721  -0.069380  1.968824
C    -1.685586  -0.758367  3.250801
C    -2.703053  -1.911605  3.100720
O    -3.909517  -1.661395  3.054288
H    -2.445225  0.357731  1.611695
H    -0.675414  -1.126355  3.456239
C    -2.134157  0.214930  4.343524
C    -2.074144  -0.285585  5.769967
O    -1.555383  -1.545853  5.874520
O    -2.432059  0.351608  6.735117
H    -3.175333  0.522906  4.166972
H    -1.518358  1.124540  4.300086
N    -2.214583  -3.169698  2.957835
C    -0.834035  -3.623837  3.077775
H    -2.942048  -3.872401  2.864351
H    -0.765734  -4.628882  2.647228
H    -0.507146  -3.672377  4.127522
H    -0.153260  -2.971250  2.517644
H    -1.572024  -1.757233  6.828383
