25
Energy: -18628.7209823 eV PBE+vdW (tier 2 basis)
C    -0.209379  -0.071208  0.368204
C    -0.059804  -0.372467  1.850667
O    1.005756  -0.738194  2.337585
H    0.746095  -0.291882  -0.114230
H    -0.457276  0.985831  0.194770
H    -0.996686  -0.677789  -0.100846
N    -1.173352  -0.209906  2.638588
C    -2.516822  0.164435  2.225868
C    -3.067781  1.094372  3.327107
O    -3.250937  0.647762  4.460485
H    -1.044665  -0.434783  3.623313
H    -2.455808  0.686251  1.266688
C    -3.433904  -1.058619  2.070027
C    -4.736365  -0.726811  1.383531
O    -5.601993  -1.772221  1.420251
O    -5.003431  0.328258  0.840489
H    -3.642229  -1.502146  3.053880
H    -2.924027  -1.834292  1.478394
N    -3.292683  2.394400  3.010142
C    -3.149323  3.043157  1.713984
H    -3.620414  2.950877  3.793660
H    -3.518863  4.069830  1.804580
H    -3.745017  2.533187  0.946024
H    -2.098140  3.095125  1.393132
H    -6.404041  -1.479892  0.944237
