25
Energy: -18628.5871083 eV PBE+vdW (tier 2 basis)
C    0.371829  -0.222907  1.925186
C    -0.907425  0.507172  2.277388
O    -0.926504  1.712356  2.511996
H    1.099433  0.523435  1.595486
H    0.249891  -0.988813  1.151127
H    0.771641  -0.724582  2.818110
N    -2.076739  -0.219700  2.374892
C    -2.346855  -1.633138  2.124703
C    -1.355408  -2.595018  2.822879
O    -0.745478  -3.457204  2.195026
H    -2.876544  0.366179  2.596593
H    -3.327292  -1.822179  2.588738
C    -2.464942  -1.984700  0.635149
C    -3.528335  -1.208849  -0.105660
O    -4.639065  -0.977050  0.663579
O    -3.453543  -0.845307  -1.257404
H    -2.699476  -3.055768  0.537267
H    -1.518212  -1.834299  0.106689
N    -1.210068  -2.459810  4.173389
C    -1.886251  -1.554465  5.089810
H    -0.540413  -3.116072  4.562543
H    -1.806308  -1.965932  6.102234
H    -2.955072  -1.471292  4.853415
H    -1.451832  -0.544859  5.085712
H    -5.265306  -0.502570  0.082930
