25
Energy: -18628.5771889 eV PBE+vdW (tier 2 basis)
C    0.175716  -0.154692  0.345068
C    0.166941  0.425339  1.751650
O    1.138630  1.012822  2.214872
H    1.161865  0.034086  -0.086674
H    -0.584304  0.320533  -0.292398
H    -0.011785  -1.237510  0.340372
N    -0.984601  0.277749  2.484083
C    -2.215148  -0.358682  2.091552
C    -3.359428  0.357352  2.842818
O    -3.134439  0.952704  3.893679
H    -0.992201  0.707104  3.409178
H    -2.355138  -0.242374  1.007845
C    -2.243804  -1.898836  2.379000
C    -2.232351  -2.217409  3.856986
O    -3.502449  -2.346955  4.345200
O    -1.244158  -2.329079  4.546144
H    -1.345966  -2.341415  1.933772
H    -3.128681  -2.347290  1.910714
N    -4.611724  0.293107  2.310208
C    -5.076228  -0.442719  1.148044
H    -5.314531  0.710706  2.913550
H    -5.983588  0.036575  0.763107
H    -5.312147  -1.493668  1.378898
H    -4.330954  -0.419907  0.344172
H    -3.406579  -2.476199  5.309123
