25
Energy: -18628.6032133 eV PBE+vdW (tier 2 basis)
C    -0.288723  0.453847  -0.723192
C    0.133980  0.072235  0.685678
O    1.300651  -0.187424  0.964820
H    0.600280  0.412303  -1.357473
H    -0.704181  1.470584  -0.766437
H    -1.046308  -0.233049  -1.125880
N    -0.839237  0.041504  1.657565
C    -2.276340  0.188158  1.490336
C    -2.876695  1.052019  2.627240
O    -3.727898  0.596050  3.387260
H    -0.523902  -0.346859  2.543810
H    -2.440046  0.730811  0.547970
C    -3.040658  -1.142464  1.379931
C    -3.111139  -2.017444  2.616341
O    -1.975963  -1.954634  3.379267
O    -4.026848  -2.762602  2.877334
H    -2.567823  -1.743349  0.586990
H    -4.077937  -0.961471  1.076546
N    -2.425317  2.333604  2.744986
C    -1.470958  3.050018  1.914175
H    -2.840347  2.827861  3.528304
H    -1.547297  4.117762  2.145708
H    -1.699394  2.931657  0.845980
H    -0.435574  2.726024  2.086979
H    -2.133993  -2.553940  4.133910
