25
Energy: -18628.8303642 eV PBE+vdW (tier 2 basis)
C    -0.211935  0.039453  0.127850
C    -0.194642  0.089379  1.644368
O    0.843900  0.294078  2.263009
H    0.397410  0.870408  -0.243638
H    -1.203142  0.074996  -0.335231
H    0.276277  -0.892085  -0.189336
N    -1.369159  -0.168976  2.331946
C    -2.743062  -0.167631  1.832209
C    -3.054611  -1.294798  0.817977
O    -3.947274  -1.171891  -0.018091
H    -1.263072  -0.016936  3.332335
H    -3.359100  -0.411274  2.712645
C    -3.238703  1.189717  1.327995
C    -3.441252  2.163219  2.462997
O    -3.583389  3.436328  2.008405
O    -3.490134  1.877235  3.643164
H    -4.200301  1.043116  0.811970
H    -2.565737  1.634799  0.583979
N    -2.315994  -2.421186  0.988797
C    -2.488203  -3.607499  0.174414
H    -1.583862  -2.390093  1.690538
H    -2.720594  -4.482422  0.796621
H    -1.585024  -3.821700  -0.414579
H    -3.323332  -3.424061  -0.509744
H    -3.732128  3.991618  2.798679
