25
Energy: -18628.7440976 eV PBE+vdW (tier 2 basis)
C    0.472430  -1.518409  1.973378
C    -0.022694  -0.427203  2.908334
O    0.654866  -0.008763  3.841707
H    1.497240  -1.767355  2.260119
H    0.465933  -1.191082  0.923491
H    -0.143960  -2.426143  2.039202
N    -1.277796  0.078319  2.667262
C    -2.184148  -0.261565  1.602639
C    -3.147566  0.939474  1.430077
O    -3.245140  1.804075  2.297782
H    -1.584308  0.857119  3.252787
H    -1.629186  -0.391742  0.661382
C    -2.994420  -1.580658  1.891909
C    -2.984799  -2.572688  0.758862
O    -3.414857  -2.009705  -0.422605
O    -2.636768  -3.729272  0.821877
H    -4.040060  -1.334257  2.130175
H    -2.567682  -2.078172  2.767285
N    -3.862770  0.928713  0.277175
C    -4.882543  1.918788  -0.019758
H    -3.756631  0.129299  -0.340917
H    -4.724247  2.348259  -1.017444
H    -4.809082  2.713841  0.728789
H    -5.891472  1.483577  0.024043
H    -3.356722  -2.717298  -1.093739
