25
Energy: -18628.6689215 eV PBE+vdW (tier 2 basis)
C    0.286485  0.232945  0.797420
C    -0.215302  -0.741924  1.843958
O    0.480400  -1.666851  2.255286
H    -0.034375  1.268855  0.957263
H    -0.079518  -0.068683  -0.194587
H    1.378470  0.179458  0.790683
N    -1.507392  -0.603538  2.305495
C    -2.490803  0.447695  2.062590
C    -2.707438  0.782807  0.570204
O    -2.628305  1.935802  0.149923
H    -1.737263  -1.275022  3.033148
H    -3.444520  0.029346  2.423940
C    -2.235111  1.718886  2.876295
C    -2.483910  1.486967  4.347309
O    -1.962414  2.486603  5.105482
O    -3.087133  0.546083  4.825746
H    -2.901199  2.524383  2.532063
H    -1.216991  2.101492  2.732289
N    -3.022643  -0.255361  -0.257005
C    -3.240578  -1.658179  0.062696
H    -3.146324  0.036456  -1.221347
H    -3.840650  -2.104783  -0.738134
H    -3.803153  -1.771570  0.998090
H    -2.301568  -2.221808  0.154976
H    -2.188730  2.271678  6.031619
