25
Energy: -18628.8213145 eV PBE+vdW (tier 2 basis)
C    0.109714  1.011777  0.049164
C    -0.488880  0.569898  1.362017
O    -1.025473  -0.535407  1.499050
H    0.946341  0.344912  -0.195670
H    0.466853  2.048531  0.054512
H    -0.642624  0.891741  -0.739663
N    -0.410333  1.459759  2.398243
C    -0.919383  1.147767  3.731376
C    -1.766527  2.302336  4.327020
O    -1.929776  2.406244  5.537410
H    0.191252  2.270787  2.292825
H    -1.634304  0.321955  3.579701
C    0.163985  0.712727  4.718293
C    0.855951  -0.641644  4.541063
O    0.358138  -1.542060  3.665859
O    1.818082  -0.920251  5.222535
H    -0.289755  0.699063  5.719721
H    0.961680  1.467051  4.774048
N    -2.329130  3.138729  3.410490
C    -3.248251  4.197782  3.785434
H    -2.197439  2.919251  2.429873
H    -2.974823  5.140121  3.293680
H    -3.185643  4.324794  4.871093
H    -4.285126  3.944477  3.521075
H    -0.314531  -1.175339  3.036850
