25
Energy: -18628.7531581 eV PBE+vdW (tier 2 basis)
C    -1.139153  0.684040  -0.255145
C    -0.628545  -0.039531  0.968567
O    0.366984  -0.771760  0.894614
H    -0.495764  1.558888  -0.422591
H    -2.177164  1.025364  -0.161878
H    -1.045040  0.026808  -1.125755
N    -1.350337  0.155984  2.107415
C    -0.930671  -0.183269  3.462035
C    0.144332  0.839781  3.941820
O    0.689320  1.598952  3.147151
H    -2.055930  0.880878  2.047731
H    -1.826652  -0.019220  4.077992
C    -0.542693  -1.683156  3.651251
C    0.945014  -2.001841  3.874990
O    1.775519  -1.722813  2.872421
O    1.332596  -2.494085  4.919580
H    -0.902546  -2.242203  2.777188
H    -1.065351  -2.080312  4.526711
N    0.414866  0.868879  5.275661
C    -0.150712  0.070612  6.355811
H    1.176243  1.500008  5.506452
H    0.010934  0.605092  7.298335
H    0.310365  -0.924981  6.425360
H    -1.236073  -0.044021  6.232424
H    1.259146  -1.337321  2.093295
