25
Energy: -18628.5979145 eV PBE+vdW (tier 2 basis)
C    -0.343608  -0.709139  0.074238
C    -0.127662  -0.201032  1.487185
O    0.985978  0.081445  1.917989
H    0.521390  -1.308878  -0.225664
H    -0.404539  0.160144  -0.595477
H    -1.260231  -1.301525  -0.042372
N    -1.278596  -0.104464  2.239949
C    -1.383354  0.648722  3.476334
C    -1.344024  2.175003  3.196095
O    -1.079316  2.626683  2.088819
H    -2.147482  -0.237560  1.736936
H    -2.379910  0.415696  3.883526
C    -0.361999  0.182451  4.529818
C    -0.939558  -0.831519  5.486906
O    0.029533  -1.380337  6.267309
O    -2.112879  -1.131699  5.594325
H    0.018892  1.022090  5.128922
H    0.525411  -0.224547  4.030609
N    -1.664975  2.997837  4.243749
C    -2.132353  2.657156  5.577451
H    -1.602561  3.981817  4.001406
H    -2.832073  3.429097  5.919842
H    -1.313850  2.589601  6.312037
H    -2.672744  1.703382  5.578865
H    -0.425968  -2.003712  6.866010
