25
Energy: -18628.7795388 eV PBE+vdW (tier 2 basis)
C    -1.754451  -0.095958  0.350162
C    -1.221503  0.040475  1.762036
O    -0.112692  0.508878  2.006393
H    -2.664506  -0.704254  0.278821
H    -0.974332  -0.531923  -0.283910
H    -1.972548  0.908033  -0.037300
N    -2.067897  -0.399273  2.750116
C    -1.785987  -0.211679  4.164640
C    -1.921699  -1.567837  4.892541
O    -2.906276  -1.830331  5.581757
H    -3.000713  -0.703003  2.492958
H    -0.748622  0.149083  4.208759
C    -2.709963  0.827834  4.828811
C    -2.442725  2.220028  4.307781
O    -3.158942  2.491015  3.174472
O    -1.681537  3.022136  4.803703
H    -2.513561  0.830923  5.906257
H    -3.758415  0.543609  4.675922
N    -0.906192  -2.461373  4.720024
C    0.245804  -2.378070  3.836063
H    -1.093956  -3.355837  5.164310
H    0.576904  -1.342117  3.709874
H    0.029538  -2.782786  2.834963
H    1.074514  -2.947490  4.273263
H    -2.889244  3.390917  2.904586
