25
Energy: -18628.5287553 eV PBE+vdW (tier 2 basis)
C    -0.285231  0.903286  1.740778
C    0.124289  0.057777  2.928117
O    0.897325  0.452952  3.796581
H    0.294680  1.829046  1.766844
H    -1.356176  1.149037  1.775110
H    -0.105116  0.384511  0.789268
N    -0.406648  -1.213275  3.002778
C    -1.479337  -1.765726  2.193023
C    -2.875548  -1.113447  2.368096
O    -3.571399  -0.935888  1.369802
H    -0.116096  -1.716327  3.836638
H    -1.256140  -1.598275  1.130261
C    -1.545279  -3.293040  2.413925
C    -2.495254  -3.959230  1.436869
O    -3.687674  -4.255425  2.021616
O    -2.238268  -4.202796  0.279624
H    -1.843049  -3.525811  3.444816
H    -0.544393  -3.704020  2.228816
N    -3.312524  -0.751563  3.609332
C    -2.709301  -0.933649  4.922650
H    -4.239531  -0.338708  3.577202
H    -2.367715  -1.965657  5.080208
H    -3.478624  -0.733534  5.676315
H    -1.868406  -0.250024  5.101942
H    -4.253060  -4.622093  1.313549
