25
Energy: -18628.9283298 eV PBE+vdW (tier 2 basis)
C    -0.006019  0.283588  -0.286161
C    0.128355  0.183806  1.220956
O    1.182041  0.420015  1.803517
H    0.798110  -0.296985  -0.753520
H    0.135190  1.331387  -0.581327
H    -0.973714  -0.065037  -0.667761
N    -1.013449  -0.207193  1.884934
C    -1.096829  -0.198525  3.336106
C    -1.467207  -1.567309  3.950110
O    -1.978085  -1.638894  5.065452
H    -1.888427  -0.266516  1.373646
H    -0.066431  0.014930  3.667264
C    -1.994191  0.912785  3.895591
C    -3.477007  0.836791  3.602482
O    -3.780307  -0.020933  2.570961
O    -4.330364  1.473226  4.174297
H    -1.640813  1.884747  3.519278
H    -1.902584  0.942802  4.987317
N    -1.139488  -2.644210  3.189409
C    -1.328198  -4.008817  3.638598
H    -0.721201  -2.463072  2.284143
H    -0.367172  -4.533378  3.735974
H    -1.970111  -4.569496  2.945083
H    -1.811966  -3.970037  4.620452
H    -4.753134  0.007325  2.486199
