25
Energy: -18628.2622563 eV PBE+vdW (tier 2 basis)
C    -0.212909  0.718426  0.025275
C    -0.097364  0.277580  1.471746
O    0.989464  0.130421  2.018762
H    0.781490  0.651118  -0.423399
H    -0.550263  1.762874  -0.028326
H    -0.908226  0.094262  -0.551450
N    -1.260255  0.080078  2.189830
C    -2.645265  0.009116  1.728300
C    -2.851013  -1.238701  0.814306
O    -2.490978  -2.319722  1.271156
H    -1.073992  -0.323081  3.102651
H    -3.212813  -0.282557  2.622542
C    -3.196635  1.387628  1.309749
C    -2.887323  2.441995  2.352264
O    -3.400758  2.115391  3.572309
O    -2.269343  3.462762  2.147107
H    -4.288626  1.322620  1.197145
H    -2.775557  1.755257  0.371707
N    -3.438505  -1.186052  -0.422072
C    -3.877613  -0.091686  -1.277012
H    -3.504725  -2.120110  -0.816624
H    -4.195919  -0.526372  -2.230250
H    -3.072749  0.622844  -1.495364
H    -4.735229  0.454119  -0.861649
H    -3.136249  2.834593  4.178141
