25
Energy: -18628.8396375 eV PBE+vdW (tier 2 basis)
C    -0.020813  -0.279150  0.233317
C    -0.181906  -0.121051  1.731650
O    0.720624  -0.365972  2.524585
H    0.690557  -1.085841  0.031734
H    0.398668  0.655955  -0.164104
H    -0.966436  -0.482551  -0.285188
N    -1.433484  0.303116  2.137086
C    -1.643060  0.879180  3.456219
C    -0.892516  2.251075  3.554985
O    -0.347616  2.745807  2.571809
H    -2.013262  0.695875  1.403516
H    -2.717275  1.113111  3.523227
C    -1.318308  -0.156150  4.557383
C    -2.092393  0.002164  5.838031
O    -2.144872  -1.159244  6.534637
O    -2.612224  1.025558  6.256793
H    -0.245331  -0.138983  4.799304
H    -1.506057  -1.164725  4.168963
N    -0.934091  2.843790  4.772259
C    -0.351306  4.154385  4.995038
H    -1.540924  2.432724  5.483463
H    -0.238673  4.316368  6.072617
H    -0.973202  4.960509  4.575643
H    0.633264  4.206964  4.516299
H    -2.618454  -0.958716  7.365928
