25
Energy: -18628.5122788 eV PBE+vdW (tier 2 basis)
C    -0.946812  -0.790531  0.055103
C    -0.903366  -0.272557  1.480844
O    -0.261765  0.721283  1.803467
H    -1.231459  0.033137  -0.610118
H    -1.639385  -1.628331  -0.093705
H    0.063568  -1.109195  -0.231612
N    -1.646344  -0.991269  2.388707
C    -1.560218  -0.737913  3.826455
C    -2.045744  -1.970080  4.613330
O    -1.306620  -2.497876  5.437455
H    -2.013375  -1.889911  2.096938
H    -0.503030  -0.631819  4.104655
C    -2.267092  0.591196  4.222590
C    -2.228042  0.813814  5.716493
O    -3.343190  0.302259  6.327015
O    -1.335331  1.350343  6.331764
H    -3.303465  0.598432  3.869289
H    -1.713487  1.402706  3.738604
N    -3.282576  -2.500579  4.332323
C    -4.442562  -1.858061  3.725082
H    -3.481715  -3.288344  4.944360
H    -5.139562  -2.636083  3.391970
H    -4.153565  -1.274287  2.844753
H    -4.966173  -1.193854  4.429951
H    -3.205553  0.437092  7.285072
