25
Energy: -18628.822394 eV PBE+vdW (tier 2 basis)
C    -0.041308  0.598604  0.012513
C    -0.404564  0.633882  1.484260
O    -0.338456  1.662104  2.157508
H    0.988594  0.957713  -0.103414
H    -0.693446  1.295759  -0.528284
H    -0.128655  -0.396934  -0.439008
N    -0.816204  -0.556472  2.014098
C    -1.155673  -0.700371  3.411244
C    -0.885785  -2.173611  3.768105
O    -1.037602  -3.042705  2.905558
H    -0.843659  -1.418567  1.473942
H    -0.532440  0.004092  3.977577
C    -2.655715  -0.334264  3.641464
C    -3.073785  -0.326571  5.090956
O    -2.704293  0.831513  5.713339
O    -3.645733  -1.224910  5.673337
H    -3.281259  -1.059234  3.108744
H    -2.799645  0.667666  3.218756
N    -0.492043  -2.487983  5.028825
C    -0.263834  -1.633491  6.181256
H    -0.416865  -3.491876  5.171516
H    0.661525  -1.936697  6.687956
H    -1.095842  -1.690253  6.898110
H    -0.146878  -0.590899  5.871450
H    -3.005437  0.745841  6.638967
