25
Energy: -18628.6975477 eV PBE+vdW (tier 2 basis)
C    -0.330160  1.372153  0.241688
C    -0.085730  0.491841  1.457849
O    0.978085  0.511885  2.068975
H    -0.573993  0.785395  -0.654944
H    0.582738  1.942602  0.052818
H    -1.157327  2.075986  0.414767
N    -1.115532  -0.320816  1.860007
C    -2.420007  -0.474005  1.271822
C    -3.381816  -0.913088  2.402300
O    -2.952457  -1.452038  3.418637
H    -0.961685  -0.865074  2.709258
H    -2.759615  0.489126  0.862101
C    -2.472190  -1.507605  0.092887
C    -2.443380  -2.945681  0.561638
O    -1.183241  -3.357615  0.855322
O    -3.422846  -3.651840  0.687817
H    -1.621428  -1.310520  -0.570742
H    -3.400628  -1.372910  -0.474721
N    -4.698662  -0.687672  2.161008
C    -5.747319  -1.212252  3.019997
H    -4.963813  -0.298882  1.263885
H    -6.549789  -0.473244  3.131246
H    -5.307694  -1.419573  4.000474
H    -6.164650  -2.147016  2.618181
H    -1.267684  -4.265804  1.206954
