25
Energy: -18628.915711 eV PBE+vdW (tier 2 basis)
C    -2.199016  1.932700  -0.056682
C    -1.591224  0.767407  0.698900
O    -0.378685  0.673806  0.904100
H    -3.288578  1.867111  -0.160191
H    -1.743221  1.980658  -1.053401
H    -1.944231  2.863763  0.464699
N    -2.477724  -0.162552  1.155996
C    -2.038020  -1.389851  1.780026
C    -3.196975  -2.402641  1.630702
O    -4.179875  -2.144881  0.940049
H    -3.449409  -0.178499  0.848928
H    -1.176901  -1.781447  1.209267
C    -1.532666  -1.158889  3.214214
C    -2.607761  -0.762066  4.199210
O    -2.059902  -0.388645  5.391257
O    -3.803394  -0.772774  4.001025
H    -0.762917  -0.374846  3.181220
H    -1.011844  -2.044578  3.612574
N    -3.014089  -3.593767  2.259630
C    -4.013210  -4.646550  2.246356
H    -2.194009  -3.715178  2.840397
H    -3.559736  -5.608270  1.973547
H    -4.767596  -4.379422  1.499850
H    -4.506208  -4.745403  3.224233
H    -2.811809  -0.158187  5.971094
