25
Energy: -18628.8435096 eV PBE+vdW (tier 2 basis)
C    -1.717662  0.433235  -0.067820
C    -1.258001  0.334819  1.372015
O    -0.203611  0.831784  1.765846
H    -2.024933  1.469299  -0.262924
H    -2.556720  -0.231500  -0.306780
H    -0.871382  0.208118  -0.726259
N    -2.113850  -0.321850  2.214442
C    -1.807550  -0.523576  3.609275
C    -2.311555  -1.919025  4.006948
O    -3.272735  -2.428722  3.430466
H    -2.928332  -0.820432  1.866025
H    -0.717884  -0.431909  3.717926
C    -2.494981  0.531254  4.526791
C    -1.959199  1.919772  4.261150
O    -0.757721  2.107513  4.877042
O    -2.498576  2.764687  3.581362
H    -2.323163  0.271649  5.580157
H    -3.572759  0.527754  4.329889
N    -1.679692  -2.530592  5.046211
C    -0.454971  -2.110308  5.713626
H    -2.063167  -3.442213  5.275218
H    -0.550477  -1.113302  6.164337
H    0.408928  -2.103659  5.033094
H    -0.244996  -2.819224  6.520939
H    -0.429011  2.974427  4.570024
