25
Energy: -18628.7615253 eV PBE+vdW (tier 2 basis)
C    0.533173  -1.215824  1.741646
C    0.049264  0.169078  1.344867
O    0.806010  1.128937  1.275955
H    0.408989  -1.944838  0.927504
H    0.002976  -1.599799  2.624134
H    1.597960  -1.137121  1.974623
N    -1.291009  0.315991  1.052684
C    -2.342133  -0.689391  1.130650
C    -3.138793  -0.663304  -0.187561
O    -4.136938  0.057963  -0.343312
H    -1.567486  1.280454  0.876585
H    -1.846210  -1.666507  1.195125
C    -3.239821  -0.558783  2.382388
C    -3.689296  0.858989  2.769896
O    -4.288012  1.584046  1.809200
O    -3.519836  1.292412  3.888362
H    -2.687785  -0.941851  3.247879
H    -4.134549  -1.188520  2.254304
N    -2.660947  -1.460971  -1.167643
C    -3.203145  -1.479515  -2.516634
H    -1.807721  -1.975529  -0.983073
H    -4.176436  -0.980123  -2.497161
H    -3.331739  -2.513301  -2.859281
H    -2.545523  -0.946214  -3.217504
H    -4.349571  1.044185  0.963482
