25
Energy: -18628.6729489 eV PBE+vdW (tier 2 basis)
C    0.057520  -0.884213  0.663593
C    0.093486  0.153165  1.775085
O    1.121188  0.389576  2.403595
H    1.056507  -1.320862  0.587613
H    -0.208108  -0.442716  -0.307428
H    -0.665768  -1.685025  0.873533
N    -1.067398  0.836838  2.047270
C    -2.393000  0.593576  1.505134
C    -3.120954  1.910846  1.128142
O    -4.251412  2.145861  1.551249
H    -1.038936  1.403460  2.894351
H    -2.274532  0.018286  0.575435
C    -3.287563  -0.224049  2.448678
C    -3.557788  0.482880  3.760166
O    -4.700034  0.034663  4.338324
O    -2.837560  1.310836  4.283975
H    -2.780961  -1.173398  2.683183
H    -4.243261  -0.468555  1.972002
N    -2.475957  2.782687  0.302459
C    -1.194061  2.647973  -0.372187
H    -3.016643  3.623429  0.126796
H    -0.342873  2.794017  0.305871
H    -1.145138  3.402366  -1.165072
H    -1.092043  1.665239  -0.851812
H    -4.782485  0.520344  5.182397
