25
Energy: -18628.4955797 eV PBE+vdW (tier 2 basis)
C    -0.592754  -0.071310  0.124047
C    -0.369260  -0.274492  1.611399
O    0.707410  -0.636368  2.067597
H    0.025413  -0.785699  -0.428310
H    -0.258714  0.942719  -0.137148
H    -1.641639  -0.180966  -0.180422
N    -1.487984  -0.032669  2.388579
C    -1.457463  0.167919  3.827038
C    -0.782585  1.524043  4.180157
O    -0.189520  2.189426  3.340762
H    -2.264244  0.406179  1.907959
H    -2.508834  0.240136  4.141837
C    -0.830136  -1.035479  4.559740
C    -1.660449  -2.297587  4.495937
O    -3.001218  -2.047661  4.644653
O    -1.225040  -3.419651  4.373297
H    -0.696373  -0.802433  5.626036
H    0.155336  -1.255001  4.139637
N    -0.921074  1.969545  5.468898
C    -1.681133  1.408444  6.572319
H    -0.439319  2.849146  5.628838
H    -2.534766  0.823720  6.209884
H    -2.082489  2.225321  7.184688
H    -1.072462  0.761908  7.224864
H    -3.433130  -2.922939  4.613112
