25
Energy: -18628.6095336 eV PBE+vdW (tier 2 basis)
C    -0.770421  -0.534745  -0.807723
C    -0.228157  0.362603  0.281422
O    0.780388  1.043336  0.128329
H    -0.738736  -1.592530  -0.513035
H    -0.137503  -0.396390  -1.687767
H    -1.807375  -0.294634  -1.070605
N    -0.865671  0.397746  1.512783
C    -2.082419  -0.228110  2.018503
C    -2.209121  -1.723771  1.670239
O    -3.203736  -2.182968  1.085726
H    -0.425867  1.076232  2.128640
H    -1.959196  -0.224205  3.116040
C    -3.382403  0.572902  1.769524
C    -3.786480  0.858182  0.319385
O    -4.159504  -0.213002  -0.408769
O    -3.798154  1.978659  -0.140904
H    -3.264157  1.550437  2.250400
H    -4.209360  0.047585  2.271242
N    -1.215471  -2.549990  2.074547
C    0.006814  -2.231473  2.798515
H    -1.368345  -3.517057  1.803427
H    0.394002  -3.155933  3.239963
H    -0.189019  -1.527965  3.617491
H    0.777165  -1.798564  2.146360
H    -3.972356  -1.039001  0.126091
