25
Energy: -18628.4157853 eV PBE+vdW (tier 2 basis)
C    0.387296  -0.604305  0.169008
C    0.070601  0.174406  1.436385
O    0.093847  1.398148  1.466667
H    1.233884  -0.126244  -0.334957
H    -0.480088  -0.538135  -0.501955
H    0.616658  -1.664027  0.338930
N    -0.222400  -0.621102  2.524112
C    -0.768855  -0.203433  3.816791
C    -2.318633  -0.158163  3.735721
O    -2.893955  0.757360  3.155125
H    -0.267376  -1.617420  2.345407
H    -0.454117  -0.961479  4.544115
C    -0.242454  1.143704  4.310394
C    -0.529220  1.321177  5.791642
O    -0.339111  2.581863  6.271443
O    -0.881582  0.440681  6.544730
H    -0.689099  1.956942  3.723694
H    0.846152  1.204916  4.159798
N    -2.996251  -1.206877  4.286633
C    -2.480811  -2.252829  5.161793
H    -4.004060  -1.110925  4.206845
H    -1.799450  -2.935448  4.632320
H    -3.328764  -2.850179  5.513040
H    -1.966781  -1.833895  6.037407
H    -0.107431  3.176263  5.535911
