25
Energy: -18628.9274069 eV PBE+vdW (tier 2 basis)
C    -1.799039  1.252754  0.116068
C    -0.997573  0.664496  1.258023
O    0.046617  0.032900  1.053539
H    -2.619996  1.904418  0.438270
H    -2.215829  0.426609  -0.475013
H    -1.123425  1.816073  -0.537739
N    -1.504112  0.876171  2.505800
C    -1.043080  0.276821  3.766512
C    0.326824  0.764936  4.311221
O    0.419973  1.053671  5.504770
H    -2.361892  1.410208  2.568258
H    -1.751564  0.622764  4.525630
C    -1.084415  -1.264128  3.736946
C    -2.445942  -1.845083  3.427692
O    -3.457377  -1.159067  4.043832
O    -2.651866  -2.815783  2.733517
H    -0.786170  -1.625747  4.733678
H    -0.379898  -1.674192  3.006159
N    1.345414  0.791744  3.421236
C    2.689809  1.186652  3.792556
H    1.141219  0.470400  2.466931
H    3.051566  1.994769  3.142225
H    3.387622  0.339835  3.719078
H    2.670504  1.538620  4.829303
H    -4.277371  -1.634841  3.808510
