25
Energy: -18628.7619828 eV PBE+vdW (tier 2 basis)
C    -0.506551  -1.245313  0.916593
C    -0.024615  -0.305860  2.010562
O    1.028633  -0.495381  2.606246
H    0.150489  -2.118797  0.923151
H    -0.433699  -0.773381  -0.074522
H    -1.543218  -1.576804  1.065064
N    -0.821192  0.772840  2.328654
C    -2.033541  1.231316  1.665242
C    -1.713351  2.470464  0.807071
O    -1.628237  3.607277  1.299104
H    -0.430821  1.365719  3.059821
H    -2.358470  0.427553  0.992430
C    -3.191355  1.479087  2.656865
C    -2.860764  2.214299  3.967587
O    -2.141313  3.344564  3.868426
O    -3.245492  1.791492  5.035808
H    -3.605994  0.511112  2.958617
H    -3.992052  2.036392  2.144966
N    -1.501234  2.231773  -0.505983
C    -1.094695  3.259427  -1.451070
H    -1.573395  1.275278  -0.831593
H    -1.768596  3.274075  -2.316786
H    -0.065968  3.091118  -1.797607
H    -1.143391  4.224979  -0.938887
H    -1.947925  3.553496  2.901635
