25
Energy: -18628.6164575 eV PBE+vdW (tier 2 basis)
C    0.108722  -0.906719  0.356730
C    -0.014191  -0.334039  1.757230
O    0.767572  -0.645985  2.655547
H    -0.299628  -1.926733  0.363052
H    1.169472  -0.973093  0.093083
H    -0.422738  -0.326336  -0.407900
N    -1.054486  0.540655  1.924672
C    -1.624031  1.065164  3.169121
C    -1.404768  2.580653  3.412513
O    -2.368886  3.256014  3.775355
H    -1.657183  0.660743  1.119531
H    -2.712475  1.007034  3.038510
C    -1.301023  0.279763  4.446934
C    -1.810561  -1.143469  4.407899
O    -1.308409  -1.868435  5.442117
O    -2.583854  -1.603301  3.593106
H    -1.818064  0.788415  5.276365
H    -0.234140  0.264485  4.688634
N    -0.173585  3.139071  3.250670
C    1.101099  2.541512  2.885358
H    -0.189581  4.140830  3.419394
H    1.165461  1.496377  3.205794
H    1.904502  3.097132  3.384037
H    1.277760  2.575719  1.798970
H    -1.692662  -2.762469  5.355909
