25
Energy: -18628.7670243 eV PBE+vdW (tier 2 basis)
C    -1.321516  -1.164671  0.794459
C    -1.075333  -0.150007  1.885969
O    -0.231729  0.747346  1.769432
H    -0.619115  -1.997683  0.941875
H    -1.117372  -0.707051  -0.178029
H    -2.340721  -1.570696  0.806186
N    -1.833924  -0.305747  3.012355
C    -1.547130  0.267300  4.329883
C    -1.805349  1.786389  4.521977
O    -2.336737  2.160244  5.569319
H    -2.442575  -1.115729  3.023526
H    -2.276111  -0.187445  5.011452
C    -0.116028  -0.079357  4.834380
C    0.030207  -1.578626  5.012870
O    -0.153405  -2.057283  6.282571
O    0.233094  -2.351916  4.105959
H    0.052466  0.468941  5.771704
H    0.620335  0.258075  4.095572
N    -1.376603  2.593867  3.528597
C    -1.509152  4.036277  3.589607
H    -0.867917  2.146253  2.754425
H    -0.526626  4.522574  3.676777
H    -2.107955  4.290730  4.470339
H    -2.008805  4.417260  2.688824
H    -0.300999  -1.315043  6.893971
