25
Energy: -18628.7643981 eV PBE+vdW (tier 2 basis)
C    0.424596  -0.320363  0.055376
C    0.115224  0.012548  1.495546
O    0.984471  0.361498  2.284345
H    1.430571  -0.750168  0.020283
H    0.434657  0.611429  -0.525913
H    -0.283463  -1.004632  -0.423463
N    -1.195066  -0.101597  1.957239
C    -2.453804  -0.304697  1.245941
C    -2.549976  -1.676294  0.538240
O    -3.220009  -1.826956  -0.495085
H    -1.272839  0.268949  2.900983
H    -3.202552  -0.392908  2.051172
C    -2.961659  0.879409  0.385473
C    -2.245114  1.203299  -0.927181
O    -2.379360  0.290262  -1.909857
O    -1.619253  2.228077  -1.094430
H    -2.909862  1.782420  1.003647
H    -4.020563  0.687920  0.156641
N    -1.920447  -2.686561  1.170358
C    -1.910201  -4.053612  0.682705
H    -1.354260  -2.433939  1.974983
H    -0.887256  -4.374994  0.444867
H    -2.519503  -4.094037  -0.225443
H    -2.333773  -4.737456  1.429965
H    -2.853489  -0.507068  -1.543282
