25
Energy: -18628.764556 eV PBE+vdW (tier 2 basis)
C    -0.236816  -0.235610  -0.258332
C    -0.361493  -0.351194  1.244211
O    0.449586  -1.014775  1.914436
H    0.719900  0.248705  -0.492488
H    -1.050805  0.330969  -0.724337
H    -0.205975  -1.245341  -0.685527
N    -1.386015  0.333733  1.802071
C    -1.726318  0.375600  3.213479
C    -2.845383  1.441631  3.311506
O    -3.098310  2.168227  2.349289
H    -1.933772  1.004433  1.256688
H    -2.150665  -0.600238  3.508160
C    -0.535271  0.642407  4.176896
C    0.391985  1.772299  3.732474
O    1.430645  1.395932  2.952350
O    0.233565  2.925892  4.063769
H    0.026634  -0.292308  4.283228
H    -0.922601  0.926976  5.160182
N    -3.555394  1.527237  4.466482
C    -3.461598  0.730417  5.677172
H    -4.227183  2.288806  4.455266
H    -4.456330  0.659178  6.132906
H    -2.773060  1.166385  6.417162
H    -3.131314  -0.289960  5.451472
H    1.325506  0.442228  2.708116
