25
Energy: -18628.9404505 eV PBE+vdW (tier 2 basis)
C    -1.207348  0.425538  -0.204335
C    -0.656005  0.061075  1.161424
O    0.298206  -0.696161  1.309520
H    -1.836917  1.323888  -0.198967
H    -1.807076  -0.416803  -0.576071
H    -0.371826  0.567130  -0.898193
N    -1.298230  0.653630  2.228092
C    -1.105353  0.216917  3.612198
C    0.283783  0.547214  4.208103
O    0.676284  -0.029623  5.219485
H    -2.188940  1.099706  2.036209
H    -1.814007  0.818420  4.201893
C    -1.446359  -1.256252  3.840818
C    -2.917577  -1.527587  3.677237
O    -3.199682  -2.852414  3.799056
O    -3.780960  -0.695608  3.463604
H    -1.133360  -1.539374  4.856353
H    -0.873925  -1.900846  3.159757
N    0.949072  1.561081  3.599933
C    2.274946  1.976971  4.011468
H    0.574538  1.892252  2.718458
H    2.461786  1.564401  5.008397
H    2.339888  3.071933  4.054970
H    3.047494  1.599196  3.325301
H    -4.167430  -2.932685  3.691291
