25
Energy: -18628.5481617 eV PBE+vdW (tier 2 basis)
C    0.013725  1.073008  1.424858
C    -0.410130  0.320597  2.670367
O    0.297339  0.263634  3.668947
H    1.089387  1.254538  1.494536
H    -0.502174  2.043066  1.385481
H    -0.199406  0.526510  0.496874
N    -1.662560  -0.265350  2.682497
C    -2.583441  -0.498840  1.581103
C    -1.952545  -1.410458  0.486642
O    -1.216599  -2.334060  0.809039
H    -1.810469  -0.819186  3.519794
H    -3.382329  -1.121504  2.009631
C    -3.258798  0.797955  1.069684
C    -3.677226  1.697171  2.213520
O    -4.601286  1.093140  3.012682
O    -3.258604  2.815467  2.411429
H    -4.160778  0.539072  0.494022
H    -2.590467  1.389817  0.434861
N    -2.306707  -1.146333  -0.804830
C    -1.843376  -1.956489  -1.917912
H    -2.888686  -0.343094  -1.003179
H    -2.688331  -2.391990  -2.468462
H    -1.230105  -2.763650  -1.504501
H    -1.232262  -1.363922  -2.612622
H    -4.788618  1.724065  3.734676
