25
Energy: -18628.8995698 eV PBE+vdW (tier 2 basis)
C    -0.106780  -0.819248  0.070887
C    0.321133  0.080856  1.220164
O    1.320063  0.790699  1.150948
H    0.643594  -0.734192  -0.719178
H    -1.082572  -0.513435  -0.333658
H    -0.189987  -1.873086  0.371675
N    -0.462373  0.069540  2.346801
C    -1.701803  -0.639272  2.564086
C    -2.536752  0.211479  3.556517
O    -1.993973  1.045617  4.280246
H    -0.232612  0.749943  3.072985
H    -2.261432  -0.730857  1.622288
C    -1.461371  -2.063702  3.127860
C    -2.582697  -3.037380  2.862441
O    -2.238083  -4.300891  3.209390
O    -3.672123  -2.767700  2.385417
H    -1.276926  -2.028182  4.212844
H    -0.542339  -2.481421  2.693060
N    -3.862825  -0.062463  3.555566
C    -4.793409  0.566213  4.474649
H    -4.176521  -0.838572  2.974068
H    -5.649372  0.985401  3.929959
H    -4.266156  1.373878  4.992116
H    -5.165983  -0.150075  5.221280
H    -3.012220  -4.864131  3.011323
