25
Energy: -18629.2129064 eV PBE+vdW (tier 2 basis)
C    -4.251557  0.811892  4.747634
C    -3.689645  -0.230144  3.808841
O    -4.341624  -1.228407  3.469224
H    -3.545684  1.617145  4.981547
H    -4.563223  0.321455  5.677759
H    -5.149732  1.245498  4.289799
N    -2.424579  -0.010059  3.359167
C    -1.796686  -0.830739  2.323504
C    -1.215127  -2.159707  2.880777
O    0.005628  -2.406893  2.866860
H    -1.933123  0.833680  3.644476
H    -2.591859  -1.113448  1.614940
C    -0.738555  -0.004604  1.577963
C    0.234386  0.712539  2.522928
O    1.160541  -0.055199  3.108907
O    0.143697  1.906035  2.748541
H    -1.240567  0.768988  0.987067
H    -0.190188  -0.668781  0.897566
N    -2.147618  -3.009779  3.337598
C    -1.832288  -4.290410  3.943070
H    -3.115641  -2.658354  3.335406
H    -0.744839  -4.411868  3.957889
H    -2.276793  -5.112854  3.366346
H    -2.215912  -4.334910  4.971157
H    0.914988  -1.019077  2.944037
