25
Energy: -18628.6114778 eV PBE+vdW (tier 2 basis)
C    0.365045  1.628977  1.166254
C    -0.029659  0.204343  1.475402
O    0.803280  -0.663046  1.719129
H    0.319044  2.224514  2.087994
H    -0.265670  2.127871  0.422858
H    1.401394  1.616787  0.817302
N    -1.370576  -0.145784  1.501864
C    -2.597143  0.594483  1.228091
C    -2.571364  1.382843  -0.097442
O    -2.856439  2.591037  -0.150481
H    -1.486009  -1.109627  1.801746
H    -3.354622  -0.189257  1.052351
C    -3.152201  1.412062  2.417965
C    -2.290957  2.548271  2.980327
O    -2.149904  3.627435  2.188640
O    -1.790631  2.494936  4.083479
H    -3.314869  0.713821  3.246526
H    -4.129700  1.822533  2.122744
N    -2.273425  0.704436  -1.230094
C    -1.983813  -0.711595  -1.408978
H    -2.267230  1.296560  -2.055506
H    -2.128409  -0.958011  -2.466252
H    -0.955321  -0.967077  -1.122027
H    -2.673515  -1.335272  -0.826077
H    -2.527300  3.407679  1.288522
