25
Energy: -18628.9333484 eV PBE+vdW (tier 2 basis)
C    -4.560564  -0.475895  0.806315
C    -3.120001  -0.650565  1.237025
O    -2.176979  -0.608225  0.457261
H    -4.812602  0.592584  0.868536
H    -5.266412  -1.028813  1.439476
H    -4.667771  -0.796079  -0.234130
N    -2.943553  -0.860350  2.596951
C    -1.636519  -0.684960  3.211532
C    -1.155816  -1.906147  4.029211
O    -0.250392  -1.800660  4.852664
H    -3.749621  -0.666807  3.185092
H    -0.933732  -0.588138  2.367152
C    -1.561730  0.585299  4.086172
C    -1.872076  1.814042  3.268085
O    -0.751340  2.374548  2.741715
O    -2.988482  2.248076  3.056861
H    -0.559315  0.633492  4.523853
H    -2.296920  0.522145  4.899682
N    -1.784908  -3.071129  3.725535
C    -1.401826  -4.343910  4.302656
H    -2.505105  -3.029222  3.012317
H    -0.638662  -4.147795  5.063398
H    -0.980211  -5.016881  3.542414
H    -2.262043  -4.837198  4.775267
H    -1.054419  3.114591  2.179963
