25
Energy: -18628.8343092 eV PBE+vdW (tier 2 basis)
C    0.010806  -0.496421  0.686696
C    -0.559714  -0.674153  2.080686
O    0.114661  -1.137586  2.994028
H    0.672503  -1.344794  0.483215
H    0.632475  0.409895  0.678942
H    -0.733008  -0.412524  -0.112553
N    -1.877465  -0.315293  2.310426
C    -2.797102  0.434150  1.456628
C    -3.254111  -0.322493  0.184328
O    -3.657887  0.284613  -0.805291
H    -2.110208  -0.342590  3.300017
H    -3.713987  0.533555  2.059303
C    -2.354230  1.860067  1.122294
C    -2.408505  2.756417  2.334702
O    -1.695585  3.898452  2.143419
O    -3.015634  2.524799  3.361395
H    -3.036060  2.263071  0.357125
H    -1.352437  1.901209  0.678071
N    -3.233523  -1.675397  0.296792
C    -3.674933  -2.561117  -0.762162
H    -2.844392  -2.060791  1.150925
H    -4.486744  -3.215291  -0.416085
H    -2.848441  -3.186082  -1.128763
H    -4.043755  -1.939635  -1.584923
H    -1.807499  4.427307  2.957582
