25
Energy: -18628.711412 eV PBE+vdW (tier 2 basis)
C    0.239940  0.058959  0.604609
C    -0.096738  -0.330259  2.029450
O    0.768211  -0.683935  2.824736
H    0.146041  1.145048  0.464849
H    -0.403804  -0.455148  -0.117901
H    1.281461  -0.221375  0.426573
N    -1.406013  -0.219435  2.472203
C    -2.660431  -0.072178  1.754395
C    -3.015869  -1.325288  0.896144
O    -2.154307  -2.074193  0.445957
H    -1.489437  -0.582080  3.417588
H    -3.429280  0.014227  2.535235
C    -2.739780  1.228777  0.927835
C    -4.135522  1.796370  0.816101
O    -4.135633  2.960307  0.122535
O    -5.153203  1.314622  1.281679
H    -2.342411  1.105787  -0.089401
H    -2.114327  1.998539  1.403842
N    -4.352002  -1.491719  0.704444
C    -4.897013  -2.552419  -0.121687
H    -4.973542  -0.772308  1.069157
H    -5.648209  -3.130510  0.432840
H    -4.072758  -3.214942  -0.405345
H    -5.362447  -2.152634  -1.034383
H    -5.062714  3.268908  0.098885
