25
Energy: -18628.8669697 eV PBE+vdW (tier 2 basis)
C    0.574130  1.358870  0.207029
C    -0.447732  1.205876  1.310792
O    -1.647741  1.011872  1.068336
H    1.598898  1.483835  0.575009
H    0.304339  2.225203  -0.409973
H    0.527737  0.471760  -0.436560
N    0.031730  1.311395  2.580588
C    -0.779853  0.966334  3.745792
C    -1.703624  2.147084  4.189036
O    -1.520278  2.748669  5.246803
H    1.041479  1.281313  2.721683
H    -1.429236  0.122074  3.458616
C    0.108281  0.581423  4.940814
C    1.226640  -0.374260  4.576119
O    1.185460  -1.622005  5.119407
O    2.141187  -0.079034  3.834330
H    -0.540191  0.190748  5.735429
H    0.561359  1.499338  5.341896
N    -2.698087  2.398221  3.307893
C    -3.626238  3.499591  3.474500
H    -2.655642  1.885124  2.418278
H    -3.387910  4.334750  2.798771
H    -3.559226  3.856459  4.507452
H    -4.652056  3.166496  3.271044
H    0.403574  -1.702136  5.691917
