25
Energy: -18628.8401566 eV PBE+vdW (tier 2 basis)
C    -1.666273  0.716054  -0.107955
C    -1.000094  0.517033  1.237652
O    0.160702  0.864171  1.463271
H    -0.963183  0.430610  -0.898141
H    -1.891078  1.784079  -0.230954
H    -2.598013  0.148768  -0.220733
N    -1.779721  -0.059930  2.197534
C    -1.305834  -0.253112  3.543237
C    -2.195958  -1.329192  4.186181
O    -3.316347  -1.565150  3.731110
H    -2.743350  -0.338238  2.028216
H    -0.256387  -0.577966  3.487455
C    -1.305383  1.072592  4.372425
C    -2.699027  1.610305  4.585598
O    -3.201519  1.232907  5.800222
O    -3.332227  2.270493  3.790825
H    -0.726428  1.803174  3.796158
H    -0.813535  0.909868  5.338258
N    -1.713887  -1.991740  5.272178
C    -0.456505  -1.802773  5.973732
H    -2.397031  -2.618930  5.686776
H    -0.165823  -2.747791  6.447177
H    -0.522755  -1.029489  6.755050
H    0.341846  -1.526874  5.275593
H    -4.119189  1.568131  5.824134
