25
Energy: -18628.9629385 eV PBE+vdW (tier 2 basis)
C    0.056709  -0.548007  0.161308
C    -0.714826  -0.624425  1.461151
O    -1.593901  -1.464349  1.657017
H    -0.654308  -0.429170  -0.665205
H    0.579083  -1.500881  0.010373
H    0.788358  0.267863  0.129036
N    -0.361756  0.301170  2.406956
C    -0.953317  0.325071  3.738301
C    -1.944195  1.496880  3.849947
O    -1.542484  2.656354  4.076214
H    0.357625  0.983852  2.189813
H    -1.495538  -0.624124  3.825135
C    0.124790  0.365485  4.843663
C    1.331748  1.283971  4.592717
O    1.061685  2.545138  4.216983
O    2.469408  0.881975  4.717581
H    0.534303  -0.642134  4.971203
H    -0.343043  0.656688  5.796845
N    -3.258989  1.254667  3.680957
C    -3.944552  -0.012399  3.445308
H    -3.831203  2.089692  3.780070
H    -4.209759  -0.510715  4.389606
H    -3.328754  -0.683510  2.834813
H    -4.868565  0.193211  2.893523
H    0.058480  2.692699  4.197684
