25
Energy: -18628.6147132 eV PBE+vdW (tier 2 basis)
C    0.230611  -0.057534  0.353817
C    0.105128  0.052799  1.863505
O    1.082864  0.029553  2.600044
H    1.274813  -0.282070  0.122300
H    -0.037702  0.893012  -0.130202
H    -0.406654  -0.849053  -0.064608
N    -1.164699  0.167961  2.390371
C    -2.410129  0.373457  1.670473
C    -2.662015  1.866135  1.387368
O    -2.674969  2.692533  2.314979
H    -1.167282  0.338770  3.394586
H    -2.337921  -0.169064  0.720863
C    -3.606423  -0.235804  2.437800
C    -3.740115  0.042122  3.948113
O    -3.357403  1.242585  4.411716
O    -4.191373  -0.809521  4.682044
H    -3.567187  -1.327016  2.345417
H    -4.546415  0.091769  1.964868
N    -2.882351  2.261107  0.111360
C    -3.025142  1.436418  -1.082123
H    -3.077721  3.255125  0.026647
H    -3.206755  2.100158  -1.933159
H    -3.875952  0.744345  -1.008618
H    -2.114157  0.863446  -1.297847
H    -3.067548  1.860896  3.669306
