25
Energy: -18628.5913473 eV PBE+vdW (tier 2 basis)
C    -0.200050  -0.593545  -0.053442
C    -0.404469  0.062073  1.300122
O    0.473842  0.101128  2.156257
H    0.079607  -1.643227  0.101106
H    0.642134  -0.103780  -0.557584
H    -1.081075  -0.549349  -0.705908
N    -1.647589  0.601230  1.507752
C    -1.974840  1.304475  2.733376
C    -2.205953  0.478977  4.027851
O    -2.046870  1.060798  5.097920
H    -2.346475  0.549156  0.774583
H    -1.103276  1.915002  3.007806
C    -3.162219  2.273786  2.521346
C    -4.444198  1.583272  2.115005
O    -4.450478  1.284076  0.768565
O    -5.365950  1.286932  2.838691
H    -2.885310  3.007694  1.752921
H    -3.344379  2.789217  3.469607
N    -2.591849  -0.827596  3.987754
C    -2.926532  -1.707426  2.879480
H    -2.684391  -1.210998  4.923380
H    -3.627065  -1.240680  2.176350
H    -3.426997  -2.589721  3.294107
H    -2.039016  -2.047009  2.327166
H    -5.303377  0.837176  0.600059
