25
Energy: -18628.5657231 eV PBE+vdW (tier 2 basis)
C    0.035914  -0.168693  -0.063619
C    -0.018949  -0.361850  1.440233
O    0.984543  -0.554303  2.119404
H    0.749842  0.632064  -0.290014
H    -0.932934  0.075593  -0.516637
H    0.420385  -1.089490  -0.520515
N    -1.274086  -0.296184  1.996269
C    -1.507550  -0.628044  3.400048
C    -2.986353  -1.005455  3.618989
O    -3.269293  -2.116823  4.056405
H    -2.075727  -0.283928  1.376342
H    -0.955544  -1.546228  3.638684
C    -0.980004  0.488144  4.351190
C    -1.480214  0.303503  5.763602
O    -0.761757  -0.630582  6.438462
O    -2.428163  0.888226  6.251012
H    -1.306912  1.473057  4.006340
H    0.114841  0.443603  4.319392
N    -3.967190  -0.113556  3.264307
C    -3.877783  1.333835  3.097548
H    -4.886848  -0.476506  3.503344
H    -3.796351  1.855938  4.062671
H    -4.780876  1.678616  2.580920
H    -3.018373  1.607329  2.475339
H    -1.193329  -0.731629  7.309467
