25
Energy: -18628.5810106 eV PBE+vdW (tier 2 basis)
C    -0.184566  -0.947284  -0.040070
C    -0.135775  -0.465667  1.395542
O    0.903998  -0.491189  2.043998
H    0.691940  -0.544574  -0.558635
H    -1.086708  -0.688065  -0.601150
H    -0.085986  -2.041463  -0.034176
N    -1.310798  -0.060320  2.015776
C    -2.612809  0.288709  1.456685
C    -3.319468  -0.865859  0.692504
O    -4.160427  -0.637738  -0.169600
H    -1.118847  0.286769  2.952251
H    -3.261758  0.424432  2.337160
C    -2.711728  1.640235  0.696365
C    -1.687410  1.882506  -0.389072
O    -0.544802  2.426799  0.127781
O    -1.821000  1.646812  -1.569799
H    -2.626847  2.449072  1.432513
H    -3.702247  1.666368  0.228246
N    -2.998665  -2.108828  1.141092
C    -3.581756  -3.314917  0.587691
H    -2.265468  -2.177294  1.838291
H    -4.369118  -3.014281  -0.111401
H    -4.020880  -3.936815  1.379099
H    -2.833061  -3.909011  0.043758
H    0.065126  2.541251  -0.627199
