25
Energy: -18628.898071 eV PBE+vdW (tier 2 basis)
C    -1.086589  1.103908  0.538230
C    -0.686464  0.653235  1.929461
O    0.240411  1.157095  2.551060
H    -1.683621  2.021723  0.631727
H    -1.678775  0.360511  -0.010983
H    -0.185492  1.349026  -0.033356
N    -1.444059  -0.376679  2.451227
C    -1.396352  -0.728931  3.863012
C    -0.569066  -1.993570  4.195261
O    -0.664208  -2.527020  5.299671
H    -2.239365  -0.700822  1.911586
H    -0.871705  0.104595  4.358497
C    -2.794424  -0.870421  4.457135
C    -3.535591  0.440101  4.565944
O    -4.865931  0.231644  4.790514
O    -3.050485  1.547829  4.484348
H    -2.690509  -1.298334  5.466393
H    -3.407416  -1.592732  3.896416
N    0.260610  -2.417982  3.210093
C    1.204124  -3.502541  3.393528
H    0.289142  -1.864384  2.361511
H    2.239756  -3.133439  3.408646
H    1.104276  -4.248466  2.593639
H    0.984352  -3.975795  4.356415
H    -5.261623  1.119450  4.890025
