25
Energy: -18629.0087539 eV PBE+vdW (tier 2 basis)
C    -4.276135  -1.768685  -0.083914
C    -3.048971  -1.390002  0.717880
O    -1.906742  -1.651776  0.328835
H    -4.287779  -2.857182  -0.220565
H    -4.196777  -1.315202  -1.079627
H    -5.220565  -1.454359  0.376697
N    -3.283740  -0.732963  1.892113
C    -2.202529  -0.303337  2.776854
C    -1.746375  -1.466702  3.702158
O    -2.063883  -1.513388  4.890109
H    -4.237324  -0.660258  2.228679
H    -1.358486  -0.023597  2.131998
C    -2.643569  0.896226  3.603464
C    -1.476801  1.566170  4.295635
O    -1.905337  2.402226  5.279582
O    -0.306827  1.422557  4.012907
H    -3.376493  0.602569  4.367114
H    -3.116173  1.648247  2.952374
N    -1.000140  -2.395485  3.056408
C    -0.525884  -3.605550  3.697516
H    -0.890911  -2.275909  2.047741
H    -1.030628  -4.497515  3.297815
H    -0.740247  -3.528446  4.768501
H    0.556878  -3.720523  3.554759
H    -1.099559  2.803885  5.658967
