25
Energy: -18628.6669314 eV PBE+vdW (tier 2 basis)
C    0.182099  -0.405600  0.465844
C    -0.155946  0.040107  1.876446
O    0.704612  0.191773  2.740421
H    1.254445  -0.612271  0.427138
H    -0.058325  0.377288  -0.268156
H    -0.368587  -1.311125  0.175000
N    -1.479867  0.280133  2.159979
C    -2.577612  0.334467  1.217041
C    -2.805501  1.629310  0.385590
O    -3.599834  1.549156  -0.554093
H    -1.644676  0.668252  3.085733
H    -2.380826  -0.406105  0.429948
C    -3.903982  -0.097493  1.860255
C    -4.352474  0.764830  3.016068
O    -5.605986  0.438874  3.416952
O    -3.698444  1.637742  3.557024
H    -3.824161  -1.131930  2.227513
H    -4.690601  -0.093507  1.094325
N    -2.124064  2.781289  0.631477
C    -1.313061  3.216262  1.767616
H    -2.383505  3.498065  -0.040220
H    -1.180351  4.299950  1.677157
H    -0.317762  2.754762  1.777760
H    -1.815394  3.015710  2.720522
H    -5.812024  1.020193  4.175182
