25
Energy: -18628.6018765 eV PBE+vdW (tier 2 basis)
C    -0.079915  -0.109837  -0.385213
C    -0.349536  -0.596220  1.022880
O    -0.112307  -1.747925  1.387689
H    1.006379  -0.032095  -0.525742
H    -0.530663  0.865517  -0.604449
H    -0.453423  -0.856029  -1.095280
N    -0.855280  0.340264  1.881583
C    -1.166625  0.009457  3.247880
C    -2.282123  0.955954  3.712003
O    -2.592277  1.946864  3.060191
H    -1.136278  1.266517  1.570886
H    -1.511803  -1.037090  3.266458
C    0.093401  0.071283  4.167372
C    0.663901  1.470643  4.357506
O    -0.009999  2.275309  5.235104
O    1.649546  1.880832  3.795872
H    0.863360  -0.548083  3.695610
H    -0.135350  -0.369208  5.148803
N    -2.842954  0.713040  4.949563
C    -2.986856  -0.597226  5.584068
H    -3.592597  1.375670  5.139573
H    -3.365919  -0.450641  6.601147
H    -2.022283  -1.109152  5.664259
H    -3.684514  -1.252165  5.040306
H    -0.817884  1.825323  5.550930
