25
Energy: -18628.921275 eV PBE+vdW (tier 2 basis)
C    -0.293528  0.462347  -0.018397
C    -0.011864  0.151709  1.431969
O    1.147836  0.207005  1.869753
H    0.493081  0.020794  -0.639273
H    -0.250358  1.552592  -0.146904
H    -1.273712  0.108577  -0.358710
N    -1.090207  -0.196932  2.180251
C    -1.140229  -0.281488  3.637336
C    -1.223311  1.157827  4.242449
O    -1.520388  2.109211  3.525172
H    -1.987198  -0.040332  1.735752
H    -2.129082  -0.715583  3.846064
C    -0.107884  -1.267651  4.258262
C    1.077606  -0.658654  5.021623
O    1.972314  0.021023  4.314829
O    1.171821  -0.793073  6.232310
H    0.268959  -1.919666  3.458981
H    -0.621663  -1.908820  4.982245
N    -1.064562  1.238305  5.587350
C    -1.115421  2.516902  6.278693
H    -0.644308  0.458856  6.089550
H    -1.471000  2.362217  7.303614
H    -1.805242  3.178802  5.745836
H    -0.126703  2.998131  6.312319
H    1.674865  0.080890  3.346404
