25
Energy: -18628.5684979 eV PBE+vdW (tier 2 basis)
C    -0.041346  -0.338441  0.023324
C    -0.321658  0.682516  1.107512
O    0.145092  1.818662  1.086529
H    0.680805  0.094949  -0.672819
H    -0.957772  -0.598745  -0.525585
H    0.365842  -1.272455  0.434871
N    -1.142386  0.287573  2.140164
C    -1.877398  -0.957331  2.245251
C    -3.053190  -1.200024  1.257123
O    -3.313828  -2.366064  0.964545
H    -1.308441  1.011452  2.835708
H    -1.205500  -1.794502  2.007911
C    -2.345612  -1.213137  3.699241
C    -3.299906  -0.167063  4.231181
O    -2.623876  0.921575  4.722069
O    -4.508473  -0.230807  4.222902
H    -1.459186  -1.260109  4.344889
H    -2.863046  -2.177878  3.717437
N    -3.749967  -0.161800  0.714765
C    -3.735101  1.269112  0.999788
H    -4.487139  -0.497727  0.102226
H    -2.832973  1.766329  0.621990
H    -3.838683  1.481078  2.071037
H    -4.602639  1.712997  0.499782
H    -3.305701  1.550281  5.031364
