25
Energy: -18628.6405495 eV PBE+vdW (tier 2 basis)
C    0.326843  -0.816368  0.848906
C    -0.207910  0.459972  1.465067
O    0.473078  1.479168  1.534434
H    0.487669  -1.572054  1.630178
H    1.286606  -0.576687  0.383915
H    -0.340206  -1.251010  0.095171
N    -1.483010  0.467425  1.994452
C    -2.540948  -0.529405  2.014225
C    -2.026543  -1.949373  2.383639
O    -1.478300  -2.116348  3.470095
H    -1.697579  1.361412  2.426545
H    -3.149606  -0.286221  2.898057
C    -3.535913  -0.388622  0.817253
C    -2.932795  -0.568408  -0.551943
O    -2.681849  0.607359  -1.165924
O    -2.672478  -1.645946  -1.067383
H    -3.981694  0.611153  0.877985
H    -4.336105  -1.131724  0.934754
N    -2.275224  -2.952251  1.504723
C    -1.812399  -4.301785  1.779081
H    -2.538329  -2.718938  0.544677
H    -2.317850  -4.996452  1.099919
H    -2.045845  -4.568431  2.815848
H    -0.723503  -4.396882  1.645046
H    -2.264247  0.395238  -2.024698
