25
Energy: -18628.6268686 eV PBE+vdW (tier 2 basis)
C    0.202044  0.127464  0.271777
C    0.052060  -0.123253  1.761777
O    1.030750  -0.233984  2.493188
H    1.165193  0.620443  0.112581
H    -0.597213  0.736347  -0.169219
H    0.221576  -0.837214  -0.253769
N    -1.216624  -0.254198  2.276766
C    -2.499428  -0.086183  1.640696
C    -3.462398  0.501566  2.693625
O    -3.307331  0.264203  3.888638
H    -1.263070  -0.394977  3.286722
H    -2.408282  0.602519  0.791894
C    -3.123321  -1.427858  1.134284
C    -2.502811  -1.909820  -0.152176
O    -2.850722  -1.094709  -1.198535
O    -1.777601  -2.869366  -0.286630
H    -4.201069  -1.290371  0.965502
H    -2.983758  -2.194148  1.903387
N    -4.510586  1.237408  2.227233
C    -4.732988  1.717236  0.870488
H    -5.112070  1.592592  2.964226
H    -4.009745  2.493053  0.575192
H    -5.735742  2.154325  0.820924
H    -4.692301  0.903580  0.134889
H    -2.394916  -1.456475  -1.982982
