25
Energy: -18628.8263499 eV PBE+vdW (tier 2 basis)
C    -1.297863  0.475156  0.364510
C    -0.993055  0.239925  1.828133
O    0.114374  0.442804  2.320326
H    -1.570176  1.532225  0.235595
H    -2.127032  -0.140055  -0.007048
H    -0.398237  0.278587  -0.226673
N    -2.056177  -0.210606  2.576731
C    -2.013353  -0.231065  4.030408
C    -2.484634  -1.608328  4.548033
O    -3.586237  -1.755497  5.075315
H    -2.971312  -0.231308  2.138531
H    -0.957219  -0.067020  4.287772
C    -2.871760  0.882181  4.666357
C    -2.456573  2.237999  4.150734
O    -1.548418  2.838170  4.968980
O    -2.845721  2.744894  3.117296
H    -2.761626  0.832369  5.755530
H    -3.927309  0.714864  4.422178
N    -1.622262  -2.651717  4.382958
C    -0.356913  -2.687054  3.666380
H    -2.022062  -3.538767  4.675858
H    0.286164  -3.453475  4.115040
H    0.164966  -1.726659  3.732463
H    -0.491786  -2.920057  2.598662
H    -1.297780  3.673434  4.527932
