25
Energy: -18628.5686955 eV PBE+vdW (tier 2 basis)
C    -0.686411  -2.026027  -0.404833
C    0.216654  -1.228220  0.517498
O    1.424363  -1.432023  0.574164
H    -0.138015  -2.919678  -0.714057
H    -0.920600  -1.438124  -1.303807
H    -1.631687  -2.325821  0.064270
N    -0.347345  -0.218196  1.269035
C    -1.747998  0.109982  1.475939
C    -2.531685  -1.086287  2.091429
O    -2.023428  -1.744510  2.990585
H    0.317595  0.190471  1.917856
H    -1.754969  0.862035  2.279324
C    -2.382904  0.802965  0.244542
C    -3.573760  1.657006  0.621128
O    -4.689496  1.319802  -0.098913
O    -3.574905  2.530197  1.458948
H    -2.646163  0.096900  -0.551492
H    -1.625212  1.486992  -0.161558
N    -3.787922  -1.315417  1.609617
C    -4.647432  -2.347470  2.162391
H    -4.152767  -0.753027  0.849971
H    -4.896956  -3.102957  1.404519
H    -5.578570  -1.915906  2.554399
H    -4.102293  -2.829514  2.980271
H    -5.400045  1.920178  0.203203
