25
Energy: -18628.5341621 eV PBE+vdW (tier 2 basis)
C    -0.111646  -0.053324  0.267367
C    -0.004334  0.013389  1.781080
O    1.053360  -0.219207  2.364037
H    -0.028810  -1.104170  -0.040368
H    0.737707  0.484065  -0.169286
H    -1.046111  0.357045  -0.135135
N    -1.166342  0.352433  2.421139
C    -1.474695  0.335426  3.853411
C    -1.696622  1.738958  4.476880
O    -2.705978  1.923205  5.158154
H    -1.976980  0.483496  1.828168
H    -2.474197  -0.110097  3.936853
C    -0.542202  -0.486616  4.758683
C    -0.416461  -1.968611  4.475593
O    -1.391536  -2.443349  3.644740
O    0.429795  -2.683392  4.962301
H    -0.957488  -0.407877  5.776664
H    0.476861  -0.092570  4.798218
N    -0.778082  2.727511  4.292492
C    0.475511  2.733911  3.555083
H    -1.062013  3.594842  4.739110
H    1.178060  3.407619  4.060444
H    0.343458  3.083223  2.518963
H    0.931114  1.738961  3.519441
H    -1.220774  -3.402235  3.568433
