25
Energy: -18628.8353745 eV PBE+vdW (tier 2 basis)
C    -1.175325  0.091487  0.128983
C    -0.629007  0.134262  1.543864
O    0.565221  0.021486  1.796687
H    -2.184016  0.512295  0.032291
H    -1.201702  -0.955593  -0.203044
H    -0.489009  0.630122  -0.532909
N    -1.575276  0.319484  2.531430
C    -1.300583  0.121514  3.956170
C    -0.370427  1.182750  4.595878
O    0.148825  0.965275  5.687579
H    -2.549100  0.270305  2.254319
H    -2.266699  0.266442  4.460944
C    -0.791958  -1.286123  4.290837
C    -1.759469  -2.406397  4.010483
O    -3.073557  -2.011594  4.085433
O    -1.452128  -3.551894  3.764214
H    -0.551183  -1.304683  5.365107
H    0.140342  -1.503098  3.757981
N    -0.272362  2.356801  3.923473
C    0.588686  3.434780  4.368871
H    -0.652957  2.382728  2.984930
H    0.835348  3.255559  5.420460
H    0.075220  4.400454  4.276531
H    1.523952  3.469155  3.790560
H    -3.593836  -2.824518  3.934928
