25
Energy: -18628.7848232 eV PBE+vdW (tier 2 basis)
C    0.687402  -0.696872  1.068362
C    -0.031546  0.000239  2.205675
O    0.560056  0.713080  3.009799
H    0.657863  -0.055685  0.176035
H    0.260583  -1.669651  0.797943
H    1.734790  -0.820712  1.358220
N    -1.397783  -0.184921  2.326252
C    -2.326879  -0.864821  1.429972
C    -2.131538  -2.399774  1.354931
O    -2.438543  -3.022083  0.341116
H    -1.799924  0.404744  3.049630
H    -3.323289  -0.735671  1.882880
C    -2.431967  -0.275959  0.014905
C    -3.806004  -0.513839  -0.576429
O    -3.764343  -0.570399  -1.931386
O    -4.836403  -0.595255  0.060045
H    -1.672958  -0.675186  -0.665401
H    -2.294566  0.814648  0.074519
N    -1.660345  -2.971264  2.493633
C    -1.456160  -4.400015  2.630589
H    -1.382066  -2.348265  3.244068
H    -2.024795  -4.798746  3.481561
H    -0.392713  -4.640230  2.770825
H    -1.809864  -4.876499  1.710230
H    -4.687528  -0.699767  -2.224535
