25
Energy: -18628.7952227 eV PBE+vdW (tier 2 basis)
C    -0.346907  -0.043349  -0.375778
C    -0.125123  0.104558  1.110525
O    1.017655  0.317087  1.557864
H    -0.001895  0.870974  -0.874734
H    -1.390775  -0.231002  -0.652132
H    0.276071  -0.868561  -0.742499
N    -1.220561  0.001303  1.895792
C    -1.319381  0.118952  3.361014
C    -1.279583  1.571028  3.911568
O    -2.100844  1.902041  4.761436
H    -2.104862  -0.118263  1.416362
H    -2.349727  -0.183683  3.575622
C    -0.414522  -0.865221  4.165871
C    0.860363  -0.338312  4.847438
O    1.864020  0.072994  4.052591
O    0.971570  -0.337564  6.054040
H    -0.150940  -1.709141  3.511204
H    -1.018966  -1.262026  4.987480
N    -0.316030  2.385115  3.409682
C    -0.084815  3.718904  3.936467
H    0.386532  1.978649  2.797033
H    0.787173  3.735081  4.606247
H    -0.969774  4.018179  4.506513
H    0.079802  4.429164  3.116525
H    1.574098  0.076368  3.096859
