25
Energy: -18628.5954793 eV PBE+vdW (tier 2 basis)
C    -0.313091  1.343074  0.429933
C    0.151316  0.380167  1.503538
O    1.286561  0.399853  1.970430
H    0.548533  1.932252  0.106779
H    -1.088803  2.022339  0.811461
H    -0.743073  0.817843  -0.433966
N    -0.768513  -0.543161  1.952085
C    -2.177992  -0.614083  1.609620
C    -3.071786  0.560947  2.083418
O    -3.974607  0.948792  1.344125
H    -0.402027  -1.170447  2.664285
H    -2.294256  -0.591622  0.517069
C    -2.790607  -1.936405  2.116903
C    -2.004176  -3.135911  1.633620
O    -2.199210  -3.367216  0.308181
O    -1.265264  -3.805727  2.324268
H    -3.824315  -1.988625  1.752568
H    -2.798978  -1.971980  3.213014
N    -2.856397  1.134157  3.303166
C    -1.913512  0.799528  4.363945
H    -3.505527  1.894102  3.482621
H    -2.233794  1.320958  5.272702
H    -0.885856  1.109816  4.132526
H    -1.912276  -0.274339  4.590893
H    -1.627640  -4.125076  0.076098
