25
Energy: -18628.5966141 eV PBE+vdW (tier 2 basis)
C    0.183063  1.104771  0.195013
C    0.395792  0.656130  1.622972
O    1.517485  0.602710  2.116035
H    0.432053  0.262987  -0.467768
H    0.894994  1.911022  -0.004842
H    -0.823583  1.458583  -0.035021
N    -0.675509  0.178709  2.373803
C    -2.122324  0.355376  2.263107
C    -2.689823  0.066853  0.853942
O    -3.549968  0.783122  0.349710
H    -0.347513  -0.090554  3.299022
H    -2.543101  -0.449050  2.890194
C    -2.714859  1.649127  2.856342
C    -2.477709  2.933911  2.095091
O    -3.556258  3.757821  2.186653
O    -1.456752  3.253918  1.523493
H    -2.285556  1.792034  3.860689
H    -3.794856  1.515867  2.986048
N    -2.212407  -1.073293  0.286066
C    -2.567566  -1.478965  -1.060155
H    -1.422960  -1.518033  0.742824
H    -2.731869  -2.562755  -1.101828
H    -1.785686  -1.207901  -1.786288
H    -3.492105  -0.962082  -1.336717
H    -3.309793  4.573004  1.707317
