25
Energy: -18628.8888753 eV PBE+vdW (tier 2 basis)
C    -2.183606  -0.745202  -0.547351
C    -1.560461  -0.503152  0.813263
O    -0.348096  -0.583726  1.001405
H    -1.695178  -0.090625  -1.279088
H    -3.266198  -0.571601  -0.576092
H    -1.979772  -1.781027  -0.847074
N    -2.444446  -0.170409  1.809336
C    -2.023006  -0.037997  3.197085
C    -2.485837  -1.298622  3.960204
O    -3.687743  -1.467239  4.184406
H    -3.438051  -0.288840  1.638766
H    -0.932225  0.047383  3.170843
C    -2.630032  1.212720  3.831626
C    -2.043028  1.506047  5.191128
O    -2.621660  2.600590  5.755051
O    -1.163434  0.872547  5.738687
H    -3.718542  1.095663  3.944527
H    -2.464959  2.085139  3.182924
N    -1.543222  -2.211463  4.298248
C    -0.093186  -2.086569  4.191822
H    -1.918423  -3.007347  4.805527
H    0.347420  -3.070168  4.386993
H    0.306970  -1.369839  4.923296
H    0.203085  -1.779443  3.181098
H    -2.187370  2.718181  6.622370
