25
Energy: -18628.7732231 eV PBE+vdW (tier 2 basis)
C    0.097079  -1.520865  1.545439
C    0.482743  -0.052175  1.628790
O    1.652122  0.308594  1.718166
H    1.007028  -2.113440  1.669271
H    -0.347481  -1.758555  0.568033
H    -0.627748  -1.812434  2.318168
N    -0.537638  0.865090  1.585160
C    -1.956056  0.622794  1.462852
C    -2.562227  1.836102  0.722374
O    -2.051911  2.949611  0.813195
H    -0.267075  1.848817  1.576777
H    -2.132011  -0.291759  0.881034
C    -2.633651  0.474470  2.855258
C    -4.089766  0.075080  2.848286
O    -4.344555  -0.925700  1.938272
O    -4.956107  0.532084  3.557319
H    -2.541945  1.409329  3.419818
H    -2.090144  -0.302177  3.415400
N    -3.695184  1.568133  0.021535
C    -4.468482  2.598588  -0.648750
H    -4.038240  0.613837  0.018780
H    -4.581639  2.370513  -1.716844
H    -3.926699  3.543541  -0.540998
H    -5.464438  2.704545  -0.196716
H    -5.289171  -1.147899  2.054249
