25
Energy: -18629.0076159 eV PBE+vdW (tier 2 basis)
C    -0.918171  -1.529833  -0.035309
C    -0.513256  -1.075162  1.350972
O    0.282733  -1.733905  2.036224
H    -0.012809  -1.726417  -0.621532
H    -1.548313  -0.810834  -0.571684
H    -1.462474  -2.478841  0.055090
N    -1.070108  0.090876  1.775622
C    -1.024129  0.650797  3.133615
C    0.338942  1.218878  3.610484
O    0.354666  2.299540  4.201184
H    -1.770547  0.505415  1.173011
H    -1.668289  1.535799  3.097274
C    -1.598558  -0.306939  4.188265
C    -3.072711  -0.571227  3.985787
O    -3.534288  -1.490848  4.875785
O    -3.787258  -0.047227  3.154712
H    -1.467077  0.132979  5.188537
H    -1.059915  -1.264463  4.197611
N    1.423744  0.445449  3.375470
C    2.755541  0.831225  3.797958
H    1.258846  -0.470386  2.939420
H    3.121553  0.183673  4.608381
H    2.714936  1.862397  4.164324
H    3.460483  0.771527  2.957802
H    -4.488543  -1.591475  4.690998
