25
Energy: -18628.8041217 eV PBE+vdW (tier 2 basis)
C    -2.016649  -0.120069  0.112772
C    -1.368011  -0.233201  1.477808
O    -0.165729  -0.452779  1.616174
H    -1.900542  -1.076516  -0.412486
H    -1.479613  0.639915  -0.467413
H    -3.081076  0.141471  0.148990
N    -2.212252  -0.055050  2.543255
C    -1.762962  -0.216253  3.917783
C    -2.071899  -1.652948  4.396506
O    -3.239341  -2.014509  4.552150
H    -3.213291  -0.037817  2.378543
H    -0.687303  -0.009591  3.910188
C    -2.475306  0.778627  4.848765
C    -2.176434  2.203560  4.439556
O    -3.268915  2.818685  3.901597
O    -1.102069  2.753332  4.551200
H    -2.095852  0.637398  5.869636
H    -3.553196  0.578442  4.853243
N    -1.017235  -2.480975  4.614539
C    0.406059  -2.212201  4.434157
H    -1.293718  -3.405639  4.931528
H    0.586697  -1.672483  3.495995
H    0.930439  -3.172355  4.378305
H    0.830299  -1.641967  5.274490
H    -2.974101  3.717923  3.655718
