25
Energy: -18628.9620271 eV PBE+vdW (tier 2 basis)
C    -2.143850  -0.853359  -0.243273
C    -1.521455  -0.450592  1.076319
O    -0.427458  0.120677  1.136855
H    -1.456001  -1.527648  -0.768301
H    -2.258813  0.044015  -0.863800
H    -3.119684  -1.343325  -0.141261
N    -2.245561  -0.749279  2.194015
C    -1.791087  -0.407407  3.541991
C    -0.810139  -1.481025  4.090304
O    -1.144059  -2.275760  4.967599
H    -3.077812  -1.320906  2.100757
H    -1.247041  0.542615  3.452000
C    -2.998193  -0.248071  4.461116
C    -2.703751  0.227317  5.868828
O    -1.529987  0.916851  5.952217
O    -3.441075  0.067411  6.814931
H    -3.538870  -1.197085  4.569723
H    -3.692627  0.484303  4.019832
N    0.409580  -1.437015  3.498986
C    1.457299  -2.394047  3.794862
H    0.519933  -0.781558  2.722004
H    1.622054  -3.085650  2.955198
H    1.151114  -2.973121  4.672339
H    2.401112  -1.877695  4.014501
H    -1.442628  1.178353  6.889259
