25
Energy: -18628.8140537 eV PBE+vdW (tier 2 basis)
C    0.348573  1.674945  0.004743
C    -0.584358  1.375415  1.156537
O    -1.756520  1.024160  0.978392
H    0.608210  0.726321  -0.484136
H    1.276112  2.174519  0.310005
H    -0.175508  2.295589  -0.730293
N    -0.053471  1.506854  2.404843
C    -0.742128  1.041564  3.608044
C    -1.735494  2.103889  4.162388
O    -1.569662  2.640154  5.259220
H    0.915596  1.790032  2.490607
H    -1.318844  0.151993  3.310157
C    0.261120  0.656844  4.686028
C    1.057857  -0.597748  4.361943
O    2.037586  -0.904602  5.268058
O    0.883576  -1.311278  3.405113
H    -0.284029  0.503261  5.629492
H    0.943270  1.497490  4.895206
N    -2.772785  2.342550  3.326224
C    -3.793758  3.332445  3.605387
H    -2.756531  1.853716  2.424165
H    -4.795124  2.885790  3.541055
H    -3.739375  4.173528  2.898775
H    -3.634760  3.711784  4.620225
H    2.042447  -0.247214  5.985823
