25
Energy: -18628.2532858 eV PBE+vdW (tier 2 basis)
C    0.193045  0.175947  0.347217
C    -0.035993  -0.153243  1.808751
O    0.834958  -0.671701  2.499962
H    -0.045338  1.221026  0.111341
H    -0.420725  -0.470540  -0.295116
H    1.247381  -0.006631  0.124983
N    -1.262485  0.144865  2.361110
C    -2.486819  0.661939  1.754002
C    -2.990229  -0.280504  0.619251
O    -3.253386  -1.435837  0.944506
H    -1.350561  -0.224778  3.302499
H    -3.259275  0.488315  2.514170
C    -2.435380  2.195599  1.558410
C    -3.785772  2.859861  1.397330
O    -4.663828  2.454838  2.356254
O    -4.077078  3.675554  0.547011
H    -1.797290  2.517603  0.731887
H    -1.994216  2.602593  2.481040
N    -3.201956  0.129203  -0.670185
C    -2.794220  1.305448  -1.434454
H    -3.566957  -0.647210  -1.215359
H    -3.272865  2.227412  -1.086468
H    -3.109959  1.143278  -2.470314
H    -1.704175  1.442981  -1.442381
H    -5.495372  2.938914  2.187182
