25
Energy: -18629.1428824 eV PBE+vdW (tier 2 basis)
C    -3.228918  0.239650  0.088340
C    -2.599767  0.302030  1.458918
O    -2.503486  1.381375  2.073529
H    -3.248312  -0.771393  -0.333874
H    -2.670993  0.901980  -0.585205
H    -4.253919  0.625850  0.149987
N    -2.163147  -0.866077  1.978778
C    -1.483826  -0.933824  3.252164
C    -0.949373  -2.370489  3.411431
O    -1.130477  -3.215300  2.532642
H    -2.182427  -1.748523  1.465267
H    -0.604261  -0.267799  3.210806
C    -2.382604  -0.492721  4.449496
C    -1.680349  0.608796  5.232397
O    -1.635737  1.800191  4.617951
O    -1.139189  0.408663  6.304367
H    -2.584381  -1.331048  5.124141
H    -3.340304  -0.131299  4.057358
N    -0.273579  -2.587259  4.564286
C    0.296395  -3.876451  4.913628
H    -0.221293  -1.833986  5.246920
H    0.171110  -4.545280  4.056581
H    -0.212882  -4.312147  5.784436
H    1.365795  -3.777254  5.140849
H    -2.010077  1.713314  3.689807
