25
Energy: -18628.9817353 eV PBE+vdW (tier 2 basis)
C    0.776455  1.257725  0.614059
C    -0.022732  0.884354  1.847302
O    -0.231791  1.679388  2.765409
H    1.776774  1.580102  0.928649
H    0.294932  2.114861  0.127291
H    0.873926  0.440822  -0.111016
N    -0.500689  -0.392677  1.873778
C    -1.244882  -0.918991  2.995385
C    -1.215023  -2.454575  2.853400
O    -0.965436  -2.986514  1.770341
H    -0.319429  -1.066727  1.131842
H    -0.753833  -0.606085  3.928762
C    -2.692748  -0.363641  2.993324
C    -3.567387  -0.682914  4.178334
O    -2.862636  -0.737080  5.359869
O    -4.766497  -0.841897  4.144833
H    -3.226207  -0.678583  2.088946
H    -2.599283  0.734543  2.965208
N    -1.498894  -3.139263  3.988846
C    -1.601657  -4.586302  4.034087
H    -1.689405  -2.600939  4.828272
H    -0.890140  -5.007649  4.756987
H    -1.365545  -4.970291  3.036692
H    -2.617814  -4.902621  4.307724
H    -3.536440  -0.868484  6.055579
