25
Energy: -18628.6397013 eV PBE+vdW (tier 2 basis)
C    -0.450041  -0.694228  0.882755
C    -0.917361  -0.671996  2.322896
O    -0.229503  -1.114457  3.239693
H    -0.027100  0.287834  0.626429
H    -1.242291  -0.909954  0.156589
H    0.345492  -1.439590  0.799500
N    -2.138900  -0.097905  2.610154
C    -3.193237  0.393126  1.727252
C    -3.677213  -0.658974  0.696125
O    -3.638176  -0.435303  -0.512974
H    -2.332897  -0.099645  3.606861
H    -4.055635  0.603118  2.378296
C    -2.853123  1.706345  1.016651
C    -4.102513  2.446401  0.592649
O    -3.839869  3.351660  -0.383927
O    -5.207130  2.295019  1.074482
H    -2.219686  1.546117  0.137724
H    -2.303724  2.356688  1.714121
N    -4.148858  -1.837808  1.189244
C    -4.322767  -2.246190  2.573952
H    -4.431931  -2.486965  0.462190
H    -5.024352  -3.087059  2.600551
H    -4.760595  -1.438648  3.176077
H    -3.379548  -2.563229  3.041344
H    -4.689164  3.794503  -0.577938
