25
Energy: -18628.7605123 eV PBE+vdW (tier 2 basis)
C    -1.975716  -0.083525  0.102885
C    -1.353666  0.158650  1.460725
O    -0.290272  0.780925  1.581441
H    -1.276815  -0.677385  -0.499841
H    -2.105003  0.881069  -0.402530
H    -2.940665  -0.602539  0.141719
N    -2.033405  -0.356874  2.525008
C    -1.598648  -0.303673  3.927436
C    -1.675160  1.142373  4.489934
O    -2.582027  1.476149  5.239534
H    -2.920357  -0.809505  2.342059
H    -2.364867  -0.841214  4.498215
C    -0.244334  -1.027815  4.118028
C    0.251214  -1.080796  5.562142
O    0.673262  0.097097  6.091288
O    0.300470  -2.101279  6.208122
H    0.521071  -0.558648  3.484684
H    -0.364708  -2.065577  3.787340
N    -0.627137  1.958024  4.131963
C    -0.659174  3.372724  4.487480
H    -0.185426  1.694750  3.238837
H    0.332118  3.804837  4.314657
H    -0.920918  3.475184  5.545949
H    -1.403679  3.928575  3.898111
H    0.497843  0.827472  5.453812
