25
Energy: -18628.9565219 eV PBE+vdW (tier 2 basis)
C    -2.872329  0.076074  -0.257982
C    -2.275855  0.283373  1.120479
O    -1.992156  1.403212  1.554771
H    -3.780760  0.684143  -0.347237
H    -3.114118  -0.970415  -0.478703
H    -2.158734  0.443685  -1.006298
N    -2.081753  -0.848831  1.852150
C    -1.435602  -0.847966  3.144947
C    -1.119656  -2.334306  3.457719
O    -1.557834  -3.231793  2.730259
H    -2.261552  -1.785814  1.488438
H    -0.492968  -0.279830  3.087874
C    -2.333953  -0.161862  4.203629
C    -1.601146  0.369467  5.420857
O    -2.278899  1.287620  6.157140
O    -0.490724  0.033812  5.780862
H    -3.122900  -0.851246  4.545824
H    -2.826467  0.683015  3.699772
N    -0.352245  -2.534517  4.547944
C    0.019625  -3.855393  5.017359
H    -0.094864  -1.705393  5.091284
H    -0.376130  -4.594659  4.313866
H    -0.396950  -4.051331  6.015446
H    1.112245  -3.956589  5.067605
H    -3.120275  1.505546  5.718994
