25
Energy: -18628.6506105 eV PBE+vdW (tier 2 basis)
C    0.279684  -0.391342  0.360544
C    0.111349  0.286947  1.703274
O    1.039574  0.819664  2.301664
H    1.345512  -0.394642  0.118890
H    -0.272243  0.155778  -0.415474
H    -0.090009  -1.426421  0.372128
N    -1.149589  0.271193  2.274416
C    -2.406534  -0.099160  1.646110
C    -3.048946  1.146020  0.979699
O    -2.551975  1.605554  -0.043572
H    -1.198157  0.844759  3.114042
H    -2.185900  -0.771855  0.809222
C    -3.278992  -0.874744  2.650171
C    -4.529753  -1.440241  2.012630
O    -5.646522  -1.155539  2.746799
O    -4.562446  -2.071798  0.980524
H    -3.530985  -0.274957  3.535958
H    -2.685558  -1.728058  3.009589
N    -4.123702  1.700824  1.610056
C    -4.799256  2.880957  1.099922
H    -4.510312  1.247095  2.428620
H    -5.826024  2.647211  0.785340
H    -4.233481  3.235560  0.232383
H    -4.830092  3.673610  1.859408
H    -6.395058  -1.569672  2.272985
