25
Energy: -18628.8704892 eV PBE+vdW (tier 2 basis)
C    -1.900493  -1.433120  1.251928
C    -1.249911  -0.575686  2.310122
O    -0.120158  -0.077285  2.139421
H    -1.869336  -0.898854  0.295145
H    -2.935839  -1.710385  1.481123
H    -1.306288  -2.349339  1.137044
N    -1.945488  -0.404324  3.459941
C    -1.517997  0.356080  4.644271
C    -1.686682  1.891962  4.485303
O    -2.327420  2.530313  5.315849
H    -2.863233  -0.829139  3.517608
H    -2.223995  0.080332  5.434981
C    -0.090924  0.029010  5.149811
C    0.181725  -1.471287  5.196743
O    0.803108  -1.984299  4.101693
O    -0.131585  -2.182241  6.123131
H    -0.022756  0.412777  6.174612
H    0.660412  0.541420  4.538554
N    -1.060840  2.426723  3.404630
C    -1.093025  3.846336  3.108490
H    -0.531367  1.794884  2.801352
H    -0.086212  4.284723  3.157953
H    -1.728306  4.333554  3.855330
H    -1.508001  4.029931  2.107899
H    0.865612  -1.289086  3.409068
