25
Energy: -18628.7006026 eV PBE+vdW (tier 2 basis)
C    -0.370866  0.294541  -0.245982
C    -0.053867  0.159813  1.231221
O    1.087978  -0.029370  1.647060
H    0.222711  1.118527  -0.660518
H    -1.432274  0.473742  -0.456376
H    -0.055860  -0.623901  -0.756736
N    -1.128995  0.255913  2.072094
C    -0.994962  0.150004  3.516611
C    -2.345869  -0.383446  4.023706
O    -3.376038  0.244677  3.756900
H    -2.056529  0.472477  1.720077
H    -0.158964  -0.527393  3.721383
C    -0.685674  1.523735  4.139986
C    -0.349374  1.466345  5.619151
O    -0.246401  2.677662  6.241368
O    -0.156521  0.454791  6.251781
H    -1.544851  2.192868  3.975242
H    0.179746  1.952892  3.610531
N    -2.361269  -1.546336  4.715462
C    -1.233106  -2.390625  5.093589
H    -3.292589  -1.831077  5.003145
H    -1.615397  -3.203539  5.719432
H    -0.495158  -1.824469  5.674015
H    -0.747790  -2.840341  4.215674
H    -0.444084  3.390508  5.609184
