25
Energy: -18629.0746527 eV PBE+vdW (tier 2 basis)
C    -1.003773  0.420327  -0.272391
C    -0.685613  -0.042572  1.131368
O    0.460168  -0.363399  1.471365
H    -0.633244  -0.325255  -0.985688
H    -0.458519  1.353959  -0.461722
H    -2.071943  0.592812  -0.449675
N    -1.733460  -0.082909  2.001633
C    -1.590579  -0.354737  3.435731
C    -1.488048  -1.880403  3.713220
O    -2.334386  -2.480065  4.400644
H    -2.660317  0.148622  1.662371
H    -0.640697  0.105655  3.751360
C    -2.766638  0.301448  4.172623
C    -2.612258  0.414165  5.697360
O    -2.659324  -0.741701  6.379396
O    -2.480008  1.484843  6.250327
H    -3.690079  -0.255797  3.948152
H    -2.873600  1.328568  3.806089
N    -0.413802  -2.468029  3.163492
C    -0.134748  -3.886890  3.287045
H    0.191963  -1.866824  2.589289
H    -0.757864  -4.299175  4.086773
H    0.923245  -4.038694  3.533206
H    -0.359771  -4.421676  2.352900
H    -2.694707  -1.498273  5.723130
