25
Energy: -18628.8377532 eV PBE+vdW (tier 2 basis)
C    -2.167624  -1.254663  1.104910
C    -1.470444  -0.314998  2.064487
O    -0.516609  0.389182  1.699552
H    -3.076715  -1.710165  1.514294
H    -1.466825  -2.054018  0.830026
H    -2.415765  -0.706153  0.188966
N    -1.960541  -0.294562  3.333144
C    -1.341032  0.337645  4.504753
C    -1.367862  1.887495  4.567034
O    -1.622560  2.430202  5.642750
H    -2.677995  -0.974787  3.553834
H    -1.961271  0.034475  5.354845
C    0.084658  -0.176096  4.764923
C    0.110919  -1.662515  5.089952
O    1.355424  -2.218211  5.175769
O    -0.865298  -2.349157  5.277320
H    0.503087  0.374346  5.622860
H    0.730187  0.030631  3.897895
N    -1.059589  2.538336  3.421458
C    -1.008722  3.985113  3.343628
H    -0.768681  1.962875  2.621783
H    -1.602251  4.346909  2.493456
H    0.024500  4.344555  3.227299
H    -1.419060  4.394259  4.272767
H    2.031069  -1.543699  4.986295
