25
Energy: -18628.7106609 eV PBE+vdW (tier 2 basis)
C    -0.200527  -0.168901  -0.164617
C    -0.448497  -0.445436  1.302934
O    -0.457128  -1.581572  1.775702
H    0.860058  -0.355318  -0.380156
H    -0.440394  0.859014  -0.462188
H    -0.789581  -0.873166  -0.762412
N    -0.630520  0.661464  2.087747
C    -0.923146  0.535103  3.492793
C    -1.722126  1.781506  3.913437
O    -1.995916  2.678456  3.125594
H    -0.789750  1.581735  1.685059
H    -1.558381  -0.358489  3.628085
C    0.358427  0.283973  4.339349
C    1.361802  1.431712  4.323634
O    1.005696  2.546709  5.031532
O    2.416584  1.396760  3.739940
H    0.852691  -0.599848  3.922741
H    0.081589  0.047581  5.378748
N    -2.043017  1.849359  5.249792
C    -2.916622  2.905461  5.751537
H    -2.016038  0.981944  5.777145
H    -2.620614  3.854580  5.293747
H    -2.806083  2.977281  6.838760
H    -3.972086  2.720098  5.504127
H    0.108578  2.428994  5.404968
