25
Energy: -18628.5641191 eV PBE+vdW (tier 2 basis)
C    0.039985  -0.148468  0.559570
C    -0.184576  -0.131322  2.056957
O    0.748622  -0.127475  2.855637
H    1.059432  0.199789  0.373172
H    -0.671586  0.460685  -0.008570
H    -0.045967  -1.178700  0.185177
N    -1.480085  -0.161993  2.532800
C    -2.759889  -0.145416  1.828500
C    -2.847085  -1.170774  0.672987
O    -3.126086  -0.817600  -0.470108
H    -1.510779  -0.153315  3.548150
H    -3.507804  -0.462173  2.571200
C    -3.153448  1.256974  1.338474
C    -4.561124  1.401715  0.802660
O    -5.436250  0.544605  1.413698
O    -4.912189  2.213741  -0.021607
H    -2.478770  1.613955  0.553752
H    -3.059905  1.950688  2.188608
N    -2.622206  -2.479508  0.984052
C    -2.336414  -3.079497  2.277784
H    -2.689744  -3.093788  0.178767
H    -2.564780  -4.149503  2.220227
H    -2.971068  -2.651626  3.065028
H    -1.285250  -2.960860  2.576639
H    -6.306271  0.726716  1.009110
