25
Energy: -18628.931947 eV PBE+vdW (tier 2 basis)
C    -1.109868  0.504293  -0.181214
C    -0.839550  0.666322  1.301296
O    -0.295186  1.667900  1.769459
H    -0.175435  0.670158  -0.730336
H    -1.818272  1.281296  -0.495857
H    -1.518460  -0.477788  -0.447797
N    -1.249995  -0.368222  2.089376
C    -1.051356  -0.373404  3.514658
C    -1.200629  -1.836280  3.981940
O    -1.693654  -2.689094  3.243102
H    -1.666460  -1.217844  1.713088
H    -0.036372  -0.002727  3.728985
C    -2.029927  0.581237  4.272551
C    -3.434201  0.036131  4.368183
O    -4.142681  0.236413  3.223259
O    -3.894237  -0.541075  5.333250
H    -2.009916  1.542350  3.744735
H    -1.671783  0.738458  5.296673
N    -0.772469  -2.088130  5.243477
C    -1.009443  -3.357501  5.909195
H    -0.455832  -1.306552  5.805082
H    -1.179027  -4.117092  5.140033
H    -1.896501  -3.310016  6.557734
H    -0.135500  -3.637870  6.509321
H    -5.009333  -0.192040  3.368091
