25
Energy: -18628.8454172 eV PBE+vdW (tier 2 basis)
C    -1.508830  -1.348534  0.359859
C    -1.184558  -1.265851  1.834924
O    -0.871985  -2.239071  2.508692
H    -1.324846  -0.410741  -0.179566
H    -2.574252  -1.601820  0.262290
H    -0.925038  -2.156296  -0.091757
N    -1.258275  0.003509  2.384433
C    -1.366533  0.218792  3.827469
C    -0.345988  -0.624114  4.626361
O    -0.680017  -1.265644  5.630679
H    -1.667534  0.726979  1.801732
H    -1.071218  1.266859  4.000056
C    -2.803223  0.075703  4.368397
C    -3.486698  -1.274462  4.121021
O    -3.074625  -2.290178  4.894021
O    -4.370078  -1.404911  3.297243
H    -3.429869  0.834872  3.885555
H    -2.782289  0.286151  5.447049
N    0.941802  -0.491169  4.234740
C    1.992864  -1.328878  4.789314
H    1.095337  -0.079297  3.320439
H    2.965593  -0.862834  4.598634
H    1.976400  -2.337309  4.349224
H    1.843025  -1.420873  5.869583
H    -2.238167  -2.007882  5.358608
