25
Energy: -18628.9362049 eV PBE+vdW (tier 2 basis)
C    -1.832622  -0.150379  0.117275
C    -1.233443  -0.644325  1.418635
O    -0.339549  -1.491669  1.449683
H    -1.025852  0.239964  -0.514989
H    -2.594369  0.626664  0.252333
H    -2.278954  -1.001365  -0.412678
N    -1.778516  -0.104427  2.551637
C    -1.225810  -0.357283  3.872994
C    -2.292691  -0.916645  4.842508
O    -2.633069  -0.278499  5.839777
H    -2.410304  0.692199  2.493094
H    -0.434196  -1.107057  3.721792
C    -0.597015  0.902407  4.481202
C    -1.579833  2.041823  4.638617
O    -1.279877  2.826580  5.699633
O    -2.500510  2.294752  3.879136
H    0.205579  1.249588  3.811806
H    -0.145283  0.678574  5.453294
N    -2.826033  -2.136527  4.559729
C    -2.573394  -3.009927  3.425333
H    -3.554839  -2.406892  5.213593
H    -2.676021  -4.053260  3.747482
H    -1.557831  -2.873645  3.037539
H    -3.276942  -2.826819  2.598280
H    -1.946626  3.541169  5.704294
