25
Energy: -18628.7631969 eV PBE+vdW (tier 2 basis)
C    -0.763869  0.129719  -0.099977
C    -0.464919  -0.643377  1.170233
O    0.207072  -1.668644  1.175022
H    -0.237109  -0.362890  -0.920986
H    -0.432293  1.175248  -0.034667
H    -1.840572  0.136901  -0.321333
N    -0.960903  -0.132482  2.356418
C    -1.926713  0.940216  2.531450
C    -1.460726  2.019654  3.537209
O    -2.277845  2.765454  4.070739
H    -0.813852  -0.764128  3.142133
H    -2.020622  1.462231  1.569989
C    -3.318447  0.412533  2.925363
C    -4.444085  1.423752  2.860138
O    -4.359213  2.199152  1.737239
O    -5.364425  1.495554  3.641300
H    -3.314633  -0.003881  3.939783
H    -3.579393  -0.401393  2.231144
N    -0.118044  2.083300  3.733035
C    0.503051  3.067943  4.597515
H    0.453058  1.399344  3.247811
H    1.155106  3.743996  4.026936
H    1.096422  2.582924  5.384268
H    -0.296817  3.654426  5.062029
H    -5.122709  2.806032  1.778662
