25
Energy: -18628.8009242 eV PBE+vdW (tier 2 basis)
C    -0.215836  -0.305132  -0.109199
C    -0.116588  0.073200  1.350996
O    0.975505  0.434456  1.822267
H    0.534133  -1.075603  -0.324632
H    0.036656  0.574820  -0.714487
H    -1.205117  -0.671188  -0.406772
N    -1.261845  -0.031200  2.064773
C    -1.543047  0.336318  3.465644
C    -2.099428  1.793295  3.508065
O    -3.320325  1.945468  3.464341
H    -2.091679  -0.268635  1.532832
H    -2.441774  -0.244233  3.702377
C    -0.486564  -0.108299  4.514204
C    0.534358  0.902269  5.050277
O    1.390922  1.432993  4.154681
O    0.565954  1.215282  6.220303
H    0.049738  -0.984217  4.119508
H    -1.037945  -0.439064  5.400531
N    -1.204739  2.809797  3.514162
C    -1.616544  4.202467  3.544703
H    -0.211798  2.605306  3.603270
H    -1.397497  4.656591  4.521369
H    -2.695556  4.243466  3.367258
H    -1.095236  4.772058  2.764455
H    1.255222  1.001575  3.243905
