25
Energy: -18629.1423691 eV PBE+vdW (tier 2 basis)
C    -1.868615  -0.728281  -0.610787
C    -1.054635  -0.950275  0.645218
O    -0.102881  -1.744158  0.676920
H    -2.283956  -1.688918  -0.939641
H    -1.199070  -0.373440  -1.404487
H    -2.683393  -0.006552  -0.480510
N    -1.427719  -0.219676  1.728434
C    -0.737407  -0.315727  3.010939
C    -1.236777  -1.526351  3.846554
O    -1.888701  -1.371002  4.879472
H    -2.306632  0.298237  1.745065
H    0.327166  -0.475274  2.783612
C    -0.887511  0.976469  3.815507
C    -2.325591  1.359771  4.088624
O    -2.484700  1.916933  5.309184
O    -3.242595  1.260954  3.288749
H    -0.436413  1.805873  3.248386
H    -0.349802  0.889321  4.764945
N    -0.876762  -2.722035  3.319780
C    -1.305254  -3.987246  3.882798
H    -0.393957  -2.696859  2.416360
H    -0.444394  -4.646796  4.056467
H    -2.013715  -4.502425  3.217624
H    -1.801019  -3.785221  4.838017
H    -3.430666  2.152678  5.379768
