25
Energy: -18628.7716143 eV PBE+vdW (tier 2 basis)
C    -0.331978  0.463099  0.305231
C    -0.269601  0.294499  1.808023
O    0.742268  0.547561  2.452191
H    -0.727702  1.463016  0.076142
H    -0.962294  -0.279349  -0.198798
H    0.688739  0.404693  -0.083361
N    -1.400291  -0.164041  2.468378
C    -2.747921  -0.433737  1.970840
C    -2.872595  -1.707218  1.092690
O    -3.845163  -1.870928  0.360595
H    -1.287372  -0.123541  3.477266
H    -3.335449  -0.664211  2.872132
C    -3.445487  0.750079  1.270896
C    -3.343526  2.032529  2.057357
O    -3.807842  1.888142  3.334880
O    -2.904944  3.081186  1.637532
H    -4.502466  0.482843  1.137497
H    -3.033619  0.936079  0.275207
N    -1.870530  -2.609501  1.252626
C    -1.838118  -3.879789  0.554707
H    -1.106451  -2.348451  1.866784
H    -1.829332  -4.719777  1.262750
H    -0.953663  -3.953393  -0.093199
H    -2.740000  -3.943592  -0.063256
H    -3.697758  2.761320  3.758891
