25
Energy: -18628.3040498 eV PBE+vdW (tier 2 basis)
C    -0.070960  -0.622348  -0.156223
C    0.201053  -0.221031  1.281966
O    1.335194  -0.229058  1.750189
H    -0.694348  0.106098  -0.691566
H    -0.576446  -1.596977  -0.193668
H    0.892227  -0.705786  -0.666115
N    -0.867772  0.148198  2.065339
C    -2.291063  0.207089  1.752445
C    -2.808678  -1.157234  1.215882
O    -2.606605  -2.148178  1.910625
H    -0.607129  0.327358  3.029952
H    -2.786063  0.247674  2.733986
C    -2.666601  1.522989  1.053844
C    -2.430266  2.699709  1.982783
O    -2.201084  3.842094  1.282281
O    -2.463777  2.661554  3.194054
H    -3.739093  1.544393  0.804793
H    -2.115035  1.692864  0.122625
N    -3.529964  -1.278224  0.055678
C    -3.751349  -0.388094  -1.074593
H    -3.830575  -2.241029  -0.066470
H    -4.100864  -0.997364  -1.915055
H    -2.830616  0.112696  -1.397917
H    -4.519170  0.373374  -0.876695
H    -2.089599  4.551253  1.945996
