25
Energy: -18628.9246851 eV PBE+vdW (tier 2 basis)
C    -2.165827  1.841508  -0.291146
C    -1.541926  0.621198  0.353544
O    -0.324669  0.434881  0.388411
H    -3.237884  1.726624  -0.492023
H    -1.636718  2.060619  -1.224749
H    -2.028404  2.698853  0.381802
N    -2.422783  -0.259063  0.913756
C    -1.979873  -1.412567  1.652412
C    -3.170315  -2.381913  1.748602
O    -4.328752  -1.975667  1.666574
H    -3.425325  -0.088146  0.929205
H    -1.142977  -1.871278  1.103815
C    -1.425159  -1.049918  3.068788
C    -2.480581  -0.430903  3.952239
O    -3.020432  -1.346555  4.810871
O    -2.846552  0.724087  3.910060
H    -0.619148  -0.322532  2.917000
H    -1.014220  -1.949356  3.543232
N    -2.835424  -3.681146  1.961431
C    -3.819740  -4.722008  2.194325
H    -1.852337  -3.923176  1.996927
H    -3.716232  -5.532804  1.460949
H    -4.810501  -4.269002  2.087812
H    -3.724639  -5.138984  3.206603
H    -3.726580  -0.873752  5.293560
