25
Energy: -18628.865968 eV PBE+vdW (tier 2 basis)
C    0.500497  -0.974755  0.263038
C    0.125986  -0.557987  1.670611
O    0.680609  -1.054810  2.657968
H    1.579487  -0.831012  0.129265
H    -0.035616  -0.429116  -0.522629
H    0.297902  -2.047507  0.151833
N    -0.851242  0.388592  1.764572
C    -1.457093  0.917072  2.992830
C    -0.544169  1.843698  3.844038
O    -0.957254  2.958868  4.163014
H    -1.209045  0.768952  0.897349
H    -2.257091  1.587816  2.660734
C    -2.096640  -0.206994  3.847388
C    -2.838479  0.350519  5.043437
O    -3.971889  1.007260  4.662722
O    -2.493384  0.244249  6.199243
H    -1.334223  -0.900854  4.212134
H    -2.805395  -0.756052  3.211736
N    0.647157  1.319117  4.211632
C    1.578179  2.030348  5.065304
H    0.861554  0.369655  3.890053
H    2.582189  2.037500  4.620515
H    1.636104  1.568042  6.061522
H    1.223354  3.060093  5.177344
H    -4.352629  1.383389  5.479753
