25
Energy: -18628.4513715 eV PBE+vdW (tier 2 basis)
C    -0.055191  -0.509029  -0.063532
C    -0.047525  -0.019347  1.373494
O    0.968957  -0.052034  2.062567
H    0.295808  -1.547893  -0.079321
H    0.664554  0.086554  -0.639438
H    -1.035184  -0.455354  -0.553546
N    -1.241596  0.476169  1.823245
C    -1.579918  0.942335  3.167667
C    -1.608673  2.474449  3.425756
O    -2.341592  2.865185  4.334111
H    -2.011475  0.467804  1.165682
H    -2.649657  0.709289  3.271094
C    -0.922250  0.163350  4.324810
C    0.527006  0.379923  4.704954
O    0.929860  1.676279  4.578384
O    1.229480  -0.477687  5.191991
H    -1.045077  -0.912889  4.159664
H    -1.505239  0.420946  5.223612
N    -0.939687  3.353379  2.629665
C    0.185919  3.144420  1.727757
H    -1.116898  4.309134  2.924689
H    -0.141039  2.926070  0.700270
H    0.837050  2.337493  2.079643
H    0.777865  4.066614  1.704612
H    1.855813  1.687447  4.887650
