25
Energy: -18628.4213882 eV PBE+vdW (tier 2 basis)
C    0.149303  -0.267905  0.486546
C    -0.185324  -0.174872  1.958866
O    0.693524  -0.080040  2.811940
H    1.125733  0.204574  0.346374
H    -0.586264  0.200958  -0.171795
H    0.244266  -1.326429  0.203793
N    -1.500303  -0.274339  2.378154
C    -2.788591  -0.257962  1.690370
C    -2.780192  -0.932160  0.303665
O    -3.042773  -0.297768  -0.715121
H    -1.550658  -0.212180  3.392438
H    -3.448988  -0.886437  2.314010
C    -3.499516  1.110957  1.634185
C    -3.012904  2.182874  0.680345
O    -1.656878  2.322168  0.683195
O    -3.742551  2.913143  0.048139
H    -3.463044  1.546180  2.645847
H    -4.556439  0.952632  1.390512
N    -2.519308  -2.270654  0.269349
C    -2.163346  -3.159588  1.362950
H    -2.505456  -2.646501  -0.673831
H    -1.106136  -3.073903  1.654508
H    -2.358253  -4.191335  1.050140
H    -2.778243  -2.962107  2.250028
H    -1.468564  3.052686  0.062469
