25
Energy: -18628.5391358 eV PBE+vdW (tier 2 basis)
C    -0.019353  0.758496  1.303152
C    0.113829  -0.217168  2.453173
O    1.105818  -0.269343  3.174912
H    0.932058  1.284261  1.191715
H    -0.815391  1.492417  1.493120
H    -0.269944  0.249591  0.362342
N    -0.941775  -1.079437  2.667108
C    -2.260277  -1.025483  2.058217
C    -3.121988  0.220698  2.395480
O    -3.768438  0.746680  1.490542
H    -0.804737  -1.680912  3.474888
H    -2.155613  -0.960335  0.966821
C    -3.010691  -2.336227  2.381402
C    -4.421174  -2.358937  1.827046
O    -4.422666  -2.536821  0.480069
O    -5.428637  -2.237785  2.488641
H    -3.090714  -2.480395  3.465913
H    -2.435769  -3.170095  1.955217
N    -3.149808  0.712339  3.666560
C    -2.557287  0.199293  4.894316
H    -3.763506  1.517160  3.747287
H    -3.003126  0.742176  5.734516
H    -1.469582  0.346906  4.931354
H    -2.780379  -0.865326  5.047236
H    -5.355556  -2.474333  0.196764
