25
Energy: -18628.9752423 eV PBE+vdW (tier 2 basis)
C    -1.298306  0.395393  -0.220367
C    -0.856609  0.008220  1.176130
O    0.309430  0.056997  1.544172
H    -1.277724  1.490867  -0.300203
H    -2.306498  0.046447  -0.476680
H    -0.578983  -0.000487  -0.945190
N    -1.870774  -0.418082  2.017716
C    -1.656128  -0.566578  3.451552
C    -1.577008  -2.035080  3.902890
O    -1.597849  -2.327322  5.111380
H    -2.828075  -0.310904  1.698108
H    -0.651783  -0.147931  3.637242
C    -2.720047  0.227469  4.248060
C    -2.301684  0.772547  5.626552
O    -1.741667  -0.095146  6.475977
O    -2.498731  1.933503  5.920350
H    -3.625948  -0.385494  4.383645
H    -2.999143  1.111351  3.664307
N    -1.464961  -2.955880  2.929579
C    -1.288494  -4.373548  3.185619
H    -1.435320  -2.603884  1.978220
H    -2.042682  -4.960617  2.645937
H    -1.402693  -4.541195  4.261045
H    -0.287965  -4.706049  2.877011
H    -1.678359  -1.005598  6.042947
