25
Energy: -18628.917249 eV PBE+vdW (tier 2 basis)
C    -0.096461  -1.509535  1.888902
C    0.186223  -0.030929  2.088367
O    1.292050  0.384923  2.421624
H    0.835551  -2.053223  2.061861
H    -0.455664  -1.723734  0.872479
H    -0.855552  -1.875243  2.595116
N    -0.852703  0.845588  1.865951
C    -2.207350  0.544130  1.442799
C    -2.492452  0.762383  -0.068630
O    -3.638487  0.640527  -0.498520
H    -0.630275  1.829431  2.011726
H    -2.382425  -0.528804  1.600343
C    -3.262483  1.283451  2.276868
C    -3.132986  2.787881  2.223112
O    -4.191443  3.398101  2.811337
O    -2.205078  3.406853  1.735992
H    -3.203051  0.974784  3.331148
H    -4.262088  1.009080  1.915601
N    -1.406428  1.033074  -0.831256
C    -1.493035  1.282846  -2.256478
H    -0.529689  1.189030  -0.345374
H    -0.765492  0.669155  -2.803600
H    -1.311064  2.342073  -2.488361
H    -2.505321  1.020096  -2.581432
H    -4.022431  4.358802  2.749903
