25
Energy: -18628.7039068 eV PBE+vdW (tier 2 basis)
C    -0.440811  0.013669  -0.625519
C    -0.038543  0.014038  0.836688
O    1.131571  0.034677  1.201028
H    0.473720  -0.033914  -1.221793
H    -0.986488  0.929600  -0.894605
H    -1.082872  -0.840651  -0.880558
N    -1.053903  0.008404  1.772632
C    -2.484415  -0.126386  1.541094
C    -3.236758  0.770867  2.548946
O    -4.007981  0.289404  3.393679
H    -0.719901  -0.082096  2.729716
H    -2.695659  0.252698  0.529980
C    -2.946475  -1.596814  1.625118
C    -4.346097  -1.851644  1.058348
O    -5.374718  -1.431063  1.821573
O    -4.525220  -2.392948  -0.011505
H    -2.892252  -1.928433  2.671960
H    -2.252185  -2.201057  1.032116
N    -3.015190  2.104610  2.493806
C    -2.171838  2.851893  1.571984
H    -3.521996  2.624444  3.204295
H    -2.466850  3.905302  1.615580
H    -2.315603  2.511295  0.538792
H    -1.106003  2.770035  1.823227
H    -5.003460  -0.921340  2.591170
