23
Energy: -15097.910881 eV PBE+vdW (tier 2 basis)
N    0.400824  1.328517  2.841761
C    0.359662  0.101820  2.053111
C    1.533479  -0.115202  1.095886
O    2.100373  -1.171177  0.908225
H    1.182570  1.312621  3.495873
H    0.533865  2.138768  2.235445
H    0.388458  -0.752422  2.743249
C    -0.960812  0.015738  1.238722
C    -2.170755  -0.205844  2.109519
C    -2.579814  -1.508392  2.426884
C    -2.892334  0.869732  2.642319
C    -3.680706  -1.732526  3.253579
C    -3.994712  0.649892  3.468785
C    -4.392512  -0.651890  3.777609
H    -0.869087  -0.808984  0.517159
H    -1.066219  0.942723  0.654908
H    -2.029038  -2.357494  2.017127
H    -2.581003  1.888574  2.411860
H    -3.986514  -2.753158  3.484507
H    -4.545080  1.499428  3.873680
H    -5.255387  -0.823851  4.420975
O    1.875127  1.029274  0.430400
H    2.604615  0.780852  -0.169583
