23
Energy: -15097.9660277 eV PBE+vdW (tier 2 basis)
N    -0.745667  -1.033140  -0.593620
C    -0.444355  -0.381678  0.694262
C    1.074398  -0.116915  0.767451
O    1.791649  -0.931230  -0.039205
H    -1.587984  -1.604866  -0.533726
H    1.097417  -1.417438  -0.562647
H    -0.945724  0.589738  0.825395
C    -0.878532  -1.325437  1.844780
C    -0.727442  -0.753306  3.231474
C    -1.708931  0.096865  3.757530
C    0.393790  -1.048701  4.015031
C    -1.572158  0.643110  5.032858
C    0.534454  -0.504935  5.291553
C    -0.447750  0.343093  5.804148
H    -0.313446  -2.265593  1.756340
H    -1.938804  -1.572091  1.669886
H    -2.593174  0.332478  3.161459
H    1.171694  -1.700976  3.615958
H    -2.346117  1.301930  5.426834
H    1.416950  -0.741760  5.885610
H    -0.338746  0.768634  6.801545
O    1.579604  0.706861  1.493315
H    -0.893126  -0.346641  -1.333230
