23
Energy: -15097.8833808 eV PBE+vdW (tier 2 basis)
N    1.680162  -0.875694  0.274649
C    0.389930  -0.487499  0.847941
C    0.461364  -0.643074  2.363545
O    0.259905  0.229361  3.176159
H    1.690886  -0.683439  -0.727313
H    1.836892  -1.877524  0.394091
H    0.253578  0.589027  0.680088
C    -0.844173  -1.244762  0.270968
C    -2.159831  -0.831401  0.879850
C    -2.741405  -1.583171  1.909300
C    -2.807586  0.339252  0.461021
C    -3.936037  -1.177834  2.505223
C    -4.001040  0.748367  1.054286
C    -4.569341  -0.009530  2.080090
H    -0.682984  -2.323603  0.410367
H    -0.851361  -1.055088  -0.813522
H    -2.249312  -2.497407  2.245580
H    -2.372154  0.936423  -0.342669
H    -4.374172  -1.777626  3.303156
H    -4.490686  1.660806  0.713599
H    -5.502945  0.308396  2.543756
O    0.771763  -1.926878  2.717472
H    0.807547  -1.932101  3.693361
