23
Energy: -15097.8336543 eV PBE+vdW (tier 2 basis)
N    -0.141255  0.371267  0.184180
C    0.037178  -0.030336  1.588127
C    1.526278  -0.317644  1.798406
O    2.292715  0.446249  2.346990
H    0.332392  1.258268  0.008187
H    -1.133314  0.524439  -0.002293
H    -0.190859  0.773713  2.310607
C    -0.863657  -1.241006  1.894790
C    -0.778025  -1.708651  3.327531
C    -1.417978  -0.996847  4.352414
C    -0.040146  -2.849149  3.669482
C    -1.320079  -1.408764  5.680877
C    0.058748  -3.266209  4.997807
C    -0.579159  -2.546085  6.008258
H    -0.607548  -2.053324  1.202625
H    -1.898896  -0.937354  1.668148
H    -2.005916  -0.110413  4.105902
H    0.462398  -3.413092  2.883001
H    -1.826696  -0.842638  6.462672
H    0.635337  -4.158287  5.243272
H    -0.503239  -2.870815  7.045843
O    1.921284  -1.507340  1.274856
H    2.882438  -1.561983  1.440318
