23
Energy: -15097.9447833 eV PBE+vdW (tier 2 basis)
N    1.102080  -1.083155  -0.002425
C    -0.081300  -0.570742  0.699247
C    -0.032192  0.947873  0.879109
O    -0.712898  1.749048  0.275007
H    1.951094  -0.853247  0.516967
H    1.187551  -0.650225  -0.922720
H    -0.954514  -0.753599  0.058533
C    -0.266474  -1.323043  2.030752
C    -1.510049  -0.914683  2.782816
C    -1.441418  -0.024608  3.862251
C    -2.768237  -1.398102  2.396301
C    -2.596507  0.374472  4.536553
C    -3.924703  -1.001439  3.066399
C    -3.842404  -0.111649  4.139503
H    0.621929  -1.161816  2.658530
H    -0.295961  -2.393195  1.781046
H    -0.469255  0.358868  4.175120
H    -2.841354  -2.098556  1.562051
H    -2.521888  1.066138  5.375932
H    -4.893399  -1.390550  2.752395
H    -4.745440  0.198046  4.665249
O    0.936168  1.331440  1.767503
H    0.917171  2.307725  1.772881
