23
Energy: -15097.8576729 eV PBE+vdW (tier 2 basis)
N    -1.312677  -0.550825  1.234141
C    -0.450999  0.095524  2.220694
C    0.956472  0.365289  1.704502
O    1.827547  0.895137  2.362169
H    -1.125019  -0.209778  0.293562
H    -2.291876  -0.365889  1.446372
H    -0.809439  1.100123  2.523180
C    -0.370997  -0.745812  3.528191
C    0.339057  -2.068712  3.382810
C    -0.312491  -3.192824  2.855397
C    1.684445  -2.192698  3.759073
C    0.362392  -4.404083  2.705128
C    2.361936  -3.403439  3.609450
C    1.702637  -4.513880  3.080717
H    -1.406094  -0.901938  3.867183
H    0.129464  -0.133210  4.289442
H    -1.355197  -3.111036  2.550752
H    2.205301  -1.326709  4.169412
H    -0.161478  -5.267119  2.293425
H    3.406858  -3.479363  3.911231
H    2.228722  -5.461757  2.966174
O    1.144632  -0.024553  0.415219
H    2.071802  0.200550  0.204778
