23
Energy: -15097.9760327 eV PBE+vdW (tier 2 basis)
N    0.452839  -0.817266  -0.075552
C    0.083126  -0.199319  1.188518
C    1.216106  0.318613  2.088322
O    1.045951  1.010241  3.071981
H    1.022636  -0.182978  -0.634169
H    1.021066  -1.649480  0.090147
H    -0.520554  0.695455  0.968447
C    -0.827078  -1.147133  2.018409
C    -0.159205  -2.442393  2.411225
C    0.581882  -2.538364  3.599009
C    -0.243016  -3.573150  1.585345
C    1.229153  -3.724632  3.944276
C    0.404371  -4.761178  1.928445
C    1.145353  -4.839828  3.108376
H    -1.710765  -1.351362  1.399755
H    -1.156531  -0.602122  2.912384
H    0.644452  -1.674505  4.262663
H    -0.827532  -3.518480  0.665674
H    1.795581  -3.780534  4.874148
H    0.324056  -5.629725  1.274397
H    1.647711  -5.768089  3.380207
O    2.451676  -0.076867  1.675824
H    3.076720  0.292093  2.330168
