23
Energy: -15097.9500689 eV PBE+vdW (tier 2 basis)
N    1.746191  -1.086312  0.424654
C    0.731318  -0.130885  0.833774
C    0.462840  -0.329499  2.317062
O    0.713185  -1.332474  2.948043
H    1.761539  -1.194376  -0.588033
H    1.555817  -1.998258  0.842730
H    1.125465  0.891227  0.712122
C    -0.625099  -0.167264  0.042092
C    -1.400790  -1.448810  0.187855
C    -2.369776  -1.588165  1.192092
C    -1.148385  -2.546705  -0.647066
C    -3.058242  -2.788368  1.363674
C    -1.833050  -3.750721  -0.477450
C    -2.789222  -3.876041  0.530993
H    -0.370744  0.005982  -1.014481
H    -1.234208  0.687982  0.367278
H    -2.588269  -0.741296  1.844909
H    -0.414352  -2.453731  -1.449056
H    -3.809486  -2.874160  2.148875
H    -1.622554  -4.591416  -1.138770
H    -3.327402  -4.814447  0.663090
O    -0.142936  0.760515  2.868974
H    -0.308842  0.526223  3.802642
