23
Energy: -15097.9637985 eV PBE+vdW (tier 2 basis)
N    -1.106847  0.591958  0.069368
C    -0.235321  0.657038  1.233155
C    1.238335  0.851239  0.870525
O    1.750635  0.509510  -0.175357
H    -0.650725  0.038174  -0.659579
H    -1.245084  1.522444  -0.323935
H    -0.543534  1.502807  1.863965
C    -0.355726  -0.640137  2.086972
C    -1.682288  -0.751433  2.792426
C    -1.832379  -0.245534  4.091048
C    -2.795272  -1.327868  2.166778
C    -3.060314  -0.312669  4.749699
C    -4.024623  -1.397816  2.822713
C    -4.161881  -0.890191  4.115847
H    0.457075  -0.652829  2.826718
H    -0.197223  -1.497896  1.416116
H    -0.972927  0.203006  4.593590
H    -2.696035  -1.714499  1.152908
H    -3.155441  0.081449  5.761756
H    -4.879826  -1.851050  2.320907
H    -5.121798  -0.947818  4.628999
O    1.942268  1.433663  1.881924
H    2.870929  1.474454  1.579456
