23
Energy: -15097.947942 eV PBE+vdW (tier 2 basis)
N    0.571798  1.372833  0.650758
C    0.588682  0.472714  1.800302
C    0.923456  -0.919681  1.282157
O    0.377906  -1.443270  0.331873
H    0.182939  2.278611  0.913310
H    -0.025182  0.979266  -0.079573
H    1.386967  0.784174  2.488616
C    -0.755234  0.403633  2.595541
C    -0.727663  -0.519375  3.786076
C    -1.212199  -1.830861  3.686754
C    -0.173015  -0.103364  5.004492
C    -1.143654  -2.703139  4.773527
C    -0.102113  -0.972337  6.092831
C    -0.586957  -2.276887  5.980344
H    -1.543905  0.098779  1.892304
H    -0.981912  1.431412  2.918016
H    -1.646925  -2.169479  2.744651
H    0.204323  0.916512  5.102364
H    -1.530185  -3.718054  4.678070
H    0.329345  -0.629092  7.033311
H    -0.535609  -2.956068  6.831154
O    1.878501  -1.531926  2.022471
H    1.978635  -2.430402  1.649652
