23
Energy: -15097.952978 eV PBE+vdW (tier 2 basis)
N    -0.864535  -0.464365  -0.448052
C    -0.100462  -0.574429  0.808517
C    1.330754  -1.058603  0.468812
O    1.655065  -0.878928  -0.825235
H    -1.345987  -1.339257  -0.661722
H    0.808098  -0.544170  -1.233881
H    0.037947  0.453239  1.180822
C    -0.751097  -1.416999  1.942256
C    -0.721927  -0.748313  3.297354
C    -1.886434  -0.178646  3.828902
C    0.467907  -0.655774  4.034974
C    -1.869060  0.470821  5.064700
C    0.486190  -0.007549  5.269748
C    -0.680215  0.558810  5.789241
H    -0.247469  -2.392343  1.993737
H    -1.798397  -1.601486  1.664296
H    -2.822440  -0.251589  3.271128
H    1.380262  -1.090058  3.625314
H    -2.786910  0.904299  5.462561
H    1.418682  0.053690  5.831326
H    -0.662780  1.063195  6.755299
O    2.097163  -1.523454  1.283033
H    -1.573354  0.264908  -0.390132
