23
Energy: -15098.0849407 eV PBE+vdW (tier 2 basis)
N    -0.652474  -0.465024  0.369381
C    0.099994  -0.229875  1.614318
C    1.597430  -0.543705  1.374332
O    2.415939  -0.611075  2.263684
H    -1.420668  0.196180  0.269082
H    -1.068035  -1.398037  0.367545
H    0.067246  0.853195  1.814981
C    -0.426052  -0.970399  2.860390
C    -1.810298  -0.523749  3.254275
C    -2.941948  -1.264269  2.888492
C    -1.999427  0.674335  3.959299
C    -4.226786  -0.822372  3.211309
C    -3.280045  1.119706  4.284297
C    -4.399601  0.373293  3.908618
H    0.292188  -0.801040  3.673616
H    -0.418256  -2.052794  2.655369
H    -2.814849  -2.209584  2.357022
H    -1.129967  1.260047  4.264356
H    -5.093314  -1.417147  2.921924
H    -3.405158  2.049739  4.839040
H    -5.400579  0.719120  4.165505
O    1.900660  -0.700520  0.072511
H    1.016998  -0.596026  -0.383345
