23
Energy: -15098.096924 eV PBE+vdW (tier 2 basis)
N    0.206589  -0.284968  -0.049216
C    0.072423  -0.194547  1.414171
C    1.468976  -0.289594  2.064178
O    1.681287  -0.011787  3.223065
H    0.301466  0.640117  -0.467230
H    -0.621753  -0.714813  -0.464817
H    -0.369284  0.758396  1.746452
C    -0.792742  -1.353382  1.962683
C    -2.203252  -1.327081  1.430061
C    -3.134422  -0.394401  1.911254
C    -2.604807  -2.206868  0.415424
C    -4.425789  -0.340553  1.390049
C    -3.897963  -2.154338  -0.111033
C    -4.811245  -1.218854  0.373656
H    -0.783871  -1.275395  3.057868
H    -0.310257  -2.307387  1.701192
H    -2.844053  0.291725  2.709069
H    -1.900194  -2.954515  0.045363
H    -5.137666  0.386183  1.781677
H    -4.191750  -2.850582  -0.896604
H    -5.821756  -1.177250  -0.032113
O    2.414608  -0.748840  1.221835
H    1.923457  -0.849266  0.357017
