23
Energy: -15097.9610188 eV PBE+vdW (tier 2 basis)
N    -0.091542  -1.942596  1.094245
C    0.456842  -0.740537  1.705649
C    1.477172  -0.132598  0.753780
O    1.634659  -0.464386  -0.402706
H    -1.029887  -2.133657  1.438656
H    -0.121708  -1.836078  0.080362
H    -0.294256  0.065698  1.852190
C    1.062858  -1.050827  3.099427
C    0.015830  -1.535178  4.071209
C    -0.756361  -0.619029  4.800345
C    -0.235753  -2.903473  4.241823
C    -1.752051  -1.055434  5.674194
C    -1.231383  -3.343969  5.115480
C    -1.993413  -2.421570  5.834160
H    1.542863  -0.143142  3.486999
H    1.839338  -1.816385  2.964624
H    -0.568233  0.450554  4.686345
H    0.354148  -3.625533  3.676476
H    -2.336910  -0.327500  6.236950
H    -1.410391  -4.412578  5.236686
H    -2.768080  -2.764915  6.519686
O    2.183989  0.878308  1.329777
H    2.774269  1.219826  0.630642
