23
Energy: -15097.9288569 eV PBE+vdW (tier 2 basis)
N    0.719452  -1.029230  2.051931
C    0.010095  0.049836  1.366093
C    0.974845  0.976020  0.632335
O    0.795273  2.156089  0.421141
H    0.041427  -1.685668  2.440801
H    1.312051  -1.544303  1.402366
H    -0.666454  -0.313541  0.558680
C    -0.853329  0.848395  2.361258
C    -1.959815  0.011176  2.953497
C    -3.143660  -0.220528  2.236948
C    -1.820961  -0.580761  4.216583
C    -4.155962  -1.021662  2.764012
C    -2.832592  -1.383237  4.748225
C    -4.003053  -1.607504  4.022783
H    -1.266334  1.717640  1.833715
H    -0.195151  1.225697  3.156001
H    -3.275925  0.241364  1.256481
H    -0.907753  -0.406040  4.787409
H    -5.070900  -1.184003  2.193794
H    -2.706221  -1.831035  5.734169
H    -4.795472  -2.230276  4.437595
O    2.065508  0.306096  0.162527
H    2.595930  0.968474  -0.321342
