23
Energy: -15097.8566616 eV PBE+vdW (tier 2 basis)
N    0.916461  -2.097633  -0.098546
C    -0.068834  -1.164368  0.478045
C    0.733856  -0.102478  1.232932
O    0.855992  0.005611  2.431627
H    0.426695  -2.828888  -0.615570
H    1.513754  -1.609575  -0.766912
H    -0.662746  -0.627132  -0.287372
C    -1.029911  -1.920957  1.407598
C    -2.260123  -1.127709  1.781416
C    -2.337929  -0.434050  2.996114
C    -3.350393  -1.056843  0.901952
C    -3.473074  0.310245  3.321124
C    -4.485655  -0.312788  1.222472
C    -4.550005  0.374844  2.435860
H    -0.477568  -2.234911  2.302442
H    -1.338628  -2.836549  0.879319
H    -1.493723  -0.472368  3.684141
H    -3.312499  -1.600071  -0.044875
H    -3.515500  0.841883  4.272006
H    -5.324112  -0.274946  0.526615
H    -5.437074  0.954470  2.691237
O    1.356028  0.734088  0.350564
H    1.884988  1.352125  0.891812
