23
Energy: -15097.8154988 eV PBE+vdW (tier 2 basis)
N    0.036344  -0.475330  -0.261436
C    0.303597  -0.242713  1.165078
C    1.816330  -0.183269  1.458506
O    2.412029  0.863152  1.581371
H    0.449582  -1.354898  -0.576551
H    0.465324  0.266267  -0.816206
H    -0.050072  0.771322  1.392760
C    -0.516357  -1.209457  2.056598
C    -0.288471  -2.688515  1.841211
C    0.518106  -3.431547  2.720427
C    -0.881282  -3.361243  0.758114
C    0.745192  -4.794498  2.513230
C    -0.652759  -4.720663  0.549287
C    0.164973  -5.441559  1.422811
H    -1.572088  -0.976057  1.859438
H    -0.318020  -0.954539  3.107567
H    0.964248  -2.936588  3.585095
H    -1.534474  -2.808495  0.082312
H    1.372554  -5.349366  3.210537
H    -1.123204  -5.222778  -0.296187
H    0.339289  -6.504663  1.259328
O    2.503242  -1.361641  1.483836
H    1.881417  -2.119647  1.479552
