30
Energy: -106348.12209 eV PBE+vdW (tier 2 basis)
C    -0.641953  0.778269  0.392856
C    -0.646569  0.263636  1.793020
O    -0.193085  0.938452  2.754612
H    -1.504108  1.445926  0.239762
H    -0.672980  -0.018811  -0.356932
H    0.258045  1.387892  0.249977
N    -1.164739  -0.971824  2.068172
C    -2.414911  -1.480467  1.526486
C    -3.540418  -0.418805  1.719055
O    -3.414693  0.511902  2.559896
H    -0.987299  -1.256835  3.030646
H    -2.306663  -1.642456  0.443101
C    -2.765294  -2.859964  2.159689
C    -2.330235  -3.164188  3.616645
C    -2.870614  -2.283074  4.727805
O    -2.444092  -1.105521  4.896796
N    -3.790302  -2.798490  5.538624
H    -2.285723  -3.633061  1.545852
H    -3.847179  -3.020624  2.061441
H    -1.232486  -3.145938  3.703552
H    -2.609427  -4.208920  3.806467
H    -4.107723  -3.758306  5.449818
H    -4.137607  -2.261179  6.329155
N    -4.608403  -0.545877  0.940561
C    -5.783462  0.326896  0.958877
H    -4.607623  -1.298258  0.255415
H    -5.918737  0.783399  -0.028786
H    -5.634375  1.109664  1.705480
H    -6.677986  -0.256178  1.208412
Sr    -1.976363  1.139744  4.351545
