30
Energy: -106347.600899 eV PBE+vdW (tier 2 basis)
C    -1.027550  0.751504  0.021348
C    -0.737024  0.632121  1.483107
O    0.471099  0.714289  1.895239
H    -0.718942  1.746730  -0.327819
H    -2.084901  0.603649  -0.218378
H    -0.419342  0.019380  -0.526465
N    -1.765481  0.455912  2.305446
C    -1.806011  0.108102  3.739417
C    -1.103200  1.099503  4.674934
O    0.161342  1.178252  4.770252
H    -2.674881  0.154562  1.896154
H    -2.878595  0.175116  3.961069
C    -1.392075  -1.355084  4.014778
C    -2.025229  -2.390843  3.056549
C    -3.511036  -2.176681  2.751316
O    -3.920476  -1.105011  2.268801
N    -4.340698  -3.201069  3.007076
H    -1.670704  -1.583516  5.053746
H    -0.298685  -1.458248  3.955984
H    -1.840356  -3.391541  3.466724
H    -1.512638  -2.359719  2.083422
H    -4.018610  -4.091131  3.366507
H    -5.321997  -3.111900  2.758098
N    -1.893204  1.842263  5.436410
C    -1.436186  2.800630  6.442404
H    -2.897127  1.751313  5.301965
H    -2.173337  2.840057  7.250117
H    -1.336115  3.801685  6.002658
H    -0.471857  2.477484  6.843841
Sr    2.022198  1.089287  3.452621
