30
Energy: -106348.656431 eV PBE+vdW (tier 2 basis)
C    -0.419264  -0.312168  0.176694
C    -0.199115  -0.094770  1.642371
O    0.954789  0.094447  2.098851
H    0.225447  -1.132309  -0.164726
H    -0.099747  0.588995  -0.364995
H    -1.458183  -0.534421  -0.087792
N    -1.287657  -0.116918  2.442806
C    -1.383751  0.100353  3.899455
C    -0.848156  1.502446  4.289926
O    0.378871  1.695973  4.498604
H    -2.172348  -0.280704  1.971998
H    -2.465865  0.105868  4.077023
C    -0.769309  -0.991759  4.837945
C    -0.200624  -2.283750  4.218614
C    1.260689  -2.505402  4.569104
O    2.079790  -1.545905  4.577075
N    1.659652  -3.742958  4.842060
H    -1.555792  -1.264649  5.550297
H    0.012043  -0.514830  5.440016
H    -0.243031  -2.256968  3.118760
H    -0.798672  -3.153946  4.513816
H    1.014172  -4.525064  4.867030
H    2.639007  -3.929023  5.043679
N    -1.748618  2.471679  4.408683
C    -1.441338  3.856451  4.768239
H    -2.723373  2.243026  4.234924
H    -2.236996  4.240288  5.414652
H    -1.376583  4.481763  3.868370
H    -0.488418  3.886246  5.302728
Sr    2.398379  0.653011  3.838798
