30
Energy: -106348.174999 eV PBE+vdW (tier 2 basis)
C    0.154357  -0.370386  1.719460
C    -0.724850  0.558171  2.488449
O    -0.259583  1.539842  3.125575
H    0.449682  0.097354  0.767849
H    -0.312865  -1.338619  1.514150
H    1.077421  -0.521289  2.292754
N    -2.077818  0.366690  2.505203
C    -2.876808  0.014949  1.336000
C    -2.520033  0.966273  0.165364
O    -2.003577  2.094293  0.413871
H    -2.550728  0.972907  3.174413
H    -2.658023  -1.022005  1.045378
C    -4.386370  0.092759  1.676934
C    -5.061882  1.487217  1.765295
C    -4.713497  2.352701  2.963139
O    -3.579116  2.905147  3.075007
N    -5.638481  2.522473  3.900659
H    -4.545871  -0.474708  2.605219
H    -4.927630  -0.458831  0.897858
H    -6.146209  1.318515  1.746458
H    -4.829992  2.082691  0.869451
H    -5.444493  3.108828  4.709635
H    -6.561646  2.106479  3.831328
N    -2.777795  0.600843  -1.085173
C    -3.363034  -0.643523  -1.589784
H    -2.544167  1.307936  -1.782958
H    -3.171500  -1.476524  -0.906929
H    -2.898695  -0.880365  -2.552444
H    -4.445016  -0.535591  -1.740201
Sr    -1.419780  3.463774  2.281037
