30
Energy: -106348.374653 eV PBE+vdW (tier 2 basis)
C    -1.526318  -2.622765  0.494615
C    -1.254128  -1.598767  1.545435
O    -0.109315  -1.088784  1.685356
H    -2.572244  -2.944650  0.460281
H    -0.885750  -3.497271  0.673359
H    -1.239180  -2.214449  -0.483520
N    -2.274147  -1.216465  2.355415
C    -2.047925  -0.204977  3.377989
C    -1.470802  -0.797243  4.679648
O    -0.222276  -0.692357  4.848922
H    -3.184173  -1.653666  2.237068
H    -1.196865  0.337412  2.977586
C    -3.109732  0.904942  3.506602
C    -2.690627  2.145304  2.675943
C    -1.369953  2.786957  3.095308
O    -0.270400  2.156981  3.081177
N    -1.404892  4.063035  3.466653
H    -3.224768  1.189708  4.561359
H    -4.099206  0.570966  3.165351
H    -3.493055  2.891919  2.712950
H    -2.580613  1.859092  1.617851
H    -2.265867  4.599867  3.470564
H    -0.544806  4.547157  3.712818
N    -2.276272  -1.391607  5.549949
C    -1.848177  -2.017648  6.802940
H    -3.270441  -1.414788  5.337753
H    -2.353531  -1.536597  7.648555
H    -0.767255  -1.899470  6.905585
H    -2.103186  -3.083991  6.790620
Sr    1.196325  0.255963  3.158296
