30
Energy: -106347.62431 eV PBE+vdW (tier 2 basis)
C    0.819479  -0.451858  0.774135
C    0.024060  -0.403400  2.044725
O    0.420385  -0.898236  3.109140
H    0.291481  -0.043988  -0.094855
H    1.111974  -1.489423  0.572994
H    1.746906  0.117352  0.925455
N    -1.195353  0.232274  1.997298
C    -1.937528  0.522156  3.224123
C    -2.705621  -0.743601  3.683313
O    -3.984062  -0.814262  3.667447
H    -1.531383  0.604492  1.115161
H    -1.170388  0.697053  3.997685
C    -2.796012  1.787022  3.056801
C    -2.902011  2.709214  4.282510
C    -3.819356  2.297696  5.411718
O    -4.901560  1.671462  5.199935
N    -3.492818  2.670461  6.643231
H    -3.793663  1.536123  2.665808
H    -2.323663  2.393450  2.272645
H    -3.301756  3.680450  3.942001
H    -1.900791  2.929567  4.678636
H    -2.644527  3.193761  6.837112
H    -4.134012  2.511021  7.416505
N    -1.948045  -1.745477  4.066998
C    -2.435995  -3.063482  4.458837
H    -0.919780  -1.573170  3.944909
H    -2.925731  -3.021334  5.440758
H    -1.580443  -3.740436  4.526247
H    -3.144831  -3.451657  3.717524
Sr    -6.012357  -0.047680  4.201695
