30
Energy: -106347.570342 eV PBE+vdW (tier 2 basis)
C    -0.318211  -0.160292  0.344521
C    -0.184083  -0.647386  1.753265
O    0.871409  -1.277991  2.117337
H    -1.225033  0.430268  0.180779
H    -0.344622  -1.033736  -0.322990
H    0.560005  0.433670  0.059781
N    -1.175315  -0.411401  2.594861
C    -1.389922  -0.933278  3.942717
C    -2.853788  -0.484267  4.245562
O    -3.310690  0.454732  3.581370
H    -1.996747  0.156719  2.315320
H    -1.306929  -2.029108  3.916684
C    -0.426492  -0.397428  5.029174
C    -0.258623  1.124474  5.095390
C    0.781339  1.717178  4.170528
O    1.818048  1.068915  3.829102
N    0.612253  2.971314  3.770758
H    0.555345  -0.883063  4.923160
H    -0.803176  -0.745557  5.999232
H    0.077088  1.397228  6.110303
H    -1.220942  1.635900  4.950998
H    1.337549  3.447840  3.240982
H    -0.202518  3.511737  4.045569
N    -3.538875  -1.099008  5.222559
C    -3.169183  -2.250265  6.039562
H    -4.467459  -0.705958  5.369026
H    -2.780581  -1.945665  7.021597
H    -2.424009  -2.872417  5.532676
H    -4.057670  -2.870333  6.200131
Sr    2.863488  -0.804400  3.035431
