30
Energy: -106347.527677 eV PBE+vdW (tier 2 basis)
C    2.099101  0.026567  2.521817
C    0.892898  0.427510  3.322039
O    0.933258  1.009565  4.392411
H    1.879717  -0.689090  1.720889
H    2.851413  -0.396094  3.197212
H    2.540645  0.930147  2.078224
N    -0.360605  0.073563  2.772168
C    -1.538978  0.643985  3.388768
C    -2.488624  -0.417758  3.941054
O    -3.688680  -0.105784  4.260581
H    -0.388789  -0.215360  1.798231
H    -1.111487  1.134149  4.294324
C    -2.243323  1.744807  2.578851
C    -2.990880  1.286505  1.300199
C    -4.327328  1.975074  1.142740
O    -5.194196  1.894781  2.068636
N    -4.590479  2.648589  0.034009
H    -1.484743  2.492362  2.315811
H    -2.936453  2.272294  3.249506
H    -3.226280  0.210572  1.351886
H    -2.371245  1.426894  0.406467
H    -3.914100  2.729577  -0.718505
H    -5.494607  3.099356  -0.091048
N    -1.998417  -1.626415  4.128472
C    -2.665508  -2.754961  4.766545
H    -1.028965  -1.735632  3.822471
H    -2.082688  -3.079062  5.637162
H    -2.744701  -3.591202  4.061472
H    -3.663614  -2.453647  5.092322
Sr    -5.613330  1.049403  4.160170
