30
Energy: -106347.805162 eV PBE+vdW (tier 2 basis)
C    1.354721  -0.229703  -0.063716
C    0.855084  0.306814  1.239114
O    1.636454  0.939007  2.016326
H    0.604909  -0.806027  -0.615324
H    2.239812  -0.855471  0.107229
H    1.678916  0.617959  -0.684634
N    -0.432444  0.114310  1.551989
C    -1.184336  0.703798  2.679369
C    -0.905512  -0.104903  3.966847
O    0.255268  0.025134  4.503510
H    -0.986693  -0.420207  0.886250
H    -0.754611  1.701866  2.862231
C    -2.642024  0.854290  2.208962
C    -3.633235  1.520419  3.188628
C    -4.687271  0.530423  3.682601
O    -4.379348  -0.653340  3.920082
N    -5.931969  0.987852  3.860773
H    -3.029082  -0.137075  1.927223
H    -2.603120  1.448061  1.286311
H    -4.105153  2.389163  2.714749
H    -3.122484  1.909037  4.084552
H    -6.204044  1.936659  3.634368
H    -6.643961  0.357254  4.218538
N    -1.820888  -0.891821  4.465635
C    -1.614408  -1.692068  5.672456
H    -2.825333  -0.862263  4.092216
H    -2.568042  -2.157587  5.934468
H    -1.272409  -1.064203  6.504413
H    -0.868930  -2.476126  5.490293
Sr    2.307131  0.903751  4.191543
