30
Energy: -106347.426801 eV PBE+vdW (tier 2 basis)
C    0.351917  0.581667  0.032685
C    0.019062  0.306234  1.463802
O    0.892342  0.496579  2.366996
H    -0.487266  0.421295  -0.651712
H    1.184095  -0.072385  -0.264364
H    0.707961  1.615383  -0.067192
N    -1.209271  -0.141865  1.752037
C    -1.761650  -0.631518  3.034475
C    -1.888961  0.491874  4.072159
O    -0.866216  0.901427  4.721717
H    -1.826731  -0.263775  0.953525
H    -2.773931  -0.982669  2.799062
C    -1.024314  -1.871978  3.579648
C    -1.758336  -2.590409  4.727251
C    -3.129949  -3.137542  4.315992
O    -3.907119  -2.459813  3.631916
N    -3.439870  -4.371928  4.755633
H    -0.007382  -1.614824  3.914256
H    -0.897159  -2.563898  2.734951
H    -1.926914  -1.907157  5.575727
H    -1.109873  -3.392311  5.103975
H    -2.809802  -4.935397  5.312384
H    -4.356543  -4.751762  4.538109
N    -3.072417  1.027072  4.314379
C    -4.374195  0.729130  3.698095
H    -3.061022  1.759590  5.025053
H    -4.447308  1.193770  2.706713
H    -5.149004  1.158732  4.339022
H    -4.529292  -0.354202  3.632472
Sr    1.378564  1.125501  4.481101
