30
Energy: -106347.693508 eV PBE+vdW (tier 2 basis)
C    0.467618  -0.681757  0.674087
C    -0.091193  -0.810578  2.056704
O    0.360486  -1.717098  2.846067
H    0.232765  -1.599103  0.115408
H    1.561309  -0.597149  0.713642
H    0.059000  0.173656  0.127239
N    -1.047822  0.023766  2.421142
C    -1.842457  0.092760  3.644637
C    -2.698005  1.384981  3.415013
O    -2.376460  2.140594  2.493872
H    -1.309632  0.826492  1.813735
H    -2.509538  -0.782993  3.688901
C    -1.027064  0.134663  4.955842
C    0.138418  1.141964  4.970937
C    1.314694  0.656231  5.785507
O    1.795700  -0.505266  5.595329
N    1.857227  1.466161  6.681971
H    -0.650583  -0.877052  5.152397
H    -1.716212  0.355523  5.781572
H    -0.195487  2.130718  5.307746
H    0.527103  1.284470  3.948678
H    1.491548  2.397746  6.852102
H    2.673891  1.173076  7.213747
N    -3.719461  1.586796  4.260914
C    -4.621837  2.735506  4.159366
H    -3.972003  0.849180  4.910847
H    -5.567246  2.444670  3.684012
H    -4.139303  3.504059  3.549887
H    -4.826738  3.132182  5.159497
Sr    1.786284  -2.467197  4.400207
