30
Energy: -106348.31318 eV PBE+vdW (tier 2 basis)
C    -0.488025  2.442312  0.204257
C    -0.608494  1.716544  1.502743
O    -0.783378  2.334467  2.587535
H    0.378860  3.115693  0.250019
H    -1.374275  3.076010  0.066742
H    -0.381128  1.776922  -0.658667
N    -0.529716  0.360748  1.494593
C    -0.662965  -0.376922  2.742260
C    0.659989  -0.459151  3.531298
O    0.770614  0.324432  4.520601
H    -0.366602  -0.114956  0.611481
H    -1.231729  0.317460  3.353289
C    -1.579973  -1.616760  2.734281
C    -3.013288  -1.234614  3.185092
C    -3.118596  -0.674523  4.600323
O    -2.518597  0.381919  4.959357
N    -3.890395  -1.331788  5.460459
H    -1.170871  -2.383789  3.406070
H    -1.640532  -2.078199  1.739342
H    -3.666221  -2.109894  3.083317
H    -3.418009  -0.464353  2.509543
H    -4.398982  -2.169317  5.197219
H    -4.024998  -0.973678  6.402967
N    1.642828  -1.284650  3.197100
C    1.710322  -2.228689  2.085275
H    2.469176  -1.219462  3.793352
H    2.496179  -1.926652  1.381626
H    0.755713  -2.274154  1.555236
H    1.941848  -3.231441  2.463716
Sr    -0.814742  2.064898  4.961629
