30
Energy: -106347.591809 eV PBE+vdW (tier 2 basis)
C    -0.317778  1.150996  -0.036749
C    -0.531139  0.444444  1.265543
O    0.237710  0.696547  2.262679
H    -0.294240  2.237130  0.120412
H    -1.082044  0.910764  -0.782358
H    0.664319  0.859234  -0.435690
N    -1.516761  -0.431010  1.343326
C    -1.914305  -1.325315  2.428914
C    -3.212257  -1.982893  1.860122
O    -3.755168  -1.437690  0.893177
H    -2.209813  -0.515214  0.573514
H    -1.130602  -2.084817  2.569590
C    -2.156365  -0.632027  3.789604
C    -3.024413  0.639298  3.730086
C    -2.604880  1.678599  4.743276
O    -1.386073  2.026317  4.845921
N    -3.528356  2.246116  5.504241
H    -1.177491  -0.396974  4.225704
H    -2.612147  -1.359774  4.472357
H    -4.089803  0.399031  3.828380
H    -2.914535  1.126900  2.746868
H    -4.507625  1.986210  5.440500
H    -3.274128  2.977812  6.164213
N    -3.693474  -3.091144  2.448459
C    -3.116248  -3.907755  3.511074
H    -4.555749  -3.426684  2.022322
H    -3.324948  -4.961964  3.299407
H    -3.544115  -3.664986  4.494145
H    -2.027581  -3.793707  3.552228
Sr    0.775778  1.882614  4.084307
