30
Energy: -106347.573429 eV PBE+vdW (tier 2 basis)
C    0.537582  -0.833668  0.851859
C    0.245220  0.010424  2.045820
O    1.066609  0.928615  2.410225
H    0.620489  -0.185118  -0.031556
H    -0.235353  -1.587497  0.673739
H    1.510930  -1.326284  0.977644
N    -0.879742  -0.194618  2.719587
C    -1.280614  0.654605  3.835446
C    -0.352953  0.440663  5.053415
O    0.417844  1.412365  5.364712
H    -1.598801  -0.946450  2.471414
H    -1.043198  1.691178  3.550950
C    -2.813776  0.696431  4.058526
C    -3.667766  -0.537780  4.397235
C    -3.795006  -1.592035  3.301517
O    -2.854670  -1.870024  2.526582
N    -4.960183  -2.248134  3.232607
H    -3.219762  1.159414  3.146793
H    -2.978272  1.432913  4.858250
H    -4.666805  -0.162222  4.659329
H    -3.310031  -1.045170  5.304138
H    -5.746709  -2.035496  3.834315
H    -5.070774  -2.986957  2.543763
N    -0.267375  -0.689886  5.739885
C    -0.864173  -2.006062  5.508216
H    0.388756  -0.636256  6.520410
H    -1.603600  -2.234414  6.285340
H    -0.067754  -2.757976  5.561034
H    -1.325161  -2.063130  4.520335
Sr    1.938178  2.369927  3.908627
