30
Energy: -106347.492036 eV PBE+vdW (tier 2 basis)
C    -0.209546  -0.873723  1.636278
C    -1.363090  -1.192293  2.528425
O    -1.791812  -2.399683  2.599330
H    0.118772  0.167319  1.692379
H    -0.452290  -1.122623  0.594441
H    0.626667  -1.526031  1.925881
N    -1.958790  -0.264301  3.267026
C    -2.050966  1.175887  3.030887
C    -2.764221  1.715630  4.293826
O    -3.612414  0.985246  4.827576
H    -2.681824  -0.555694  3.939452
H    -1.049945  1.610290  2.913370
C    -2.891840  1.455715  1.753981
C    -4.426188  1.379503  1.873903
C    -5.102984  0.105769  2.341379
O    -4.688542  -1.061258  2.042295
N    -6.232675  0.256334  3.019692
H    -2.537308  0.787963  0.956485
H    -2.664683  2.474301  1.410523
H    -4.839290  1.569833  0.867810
H    -4.791721  2.205339  2.498670
H    -6.554621  1.171660  3.316435
H    -6.785055  -0.546469  3.304545
N    -2.453405  2.960476  4.677025
C    -3.059385  3.633076  5.825530
H    -1.700366  3.440603  4.193479
H    -3.825958  2.977455  6.246575
H    -3.512770  4.581205  5.513100
H    -2.298626  3.834131  6.589330
Sr    -3.834129  -3.190236  2.047174
