30
Energy: -106347.407075 eV PBE+vdW (tier 2 basis)
C    -0.210367  -1.242530  -0.955641
C    0.058336  -0.760448  0.429909
O    1.246001  -0.819021  0.911019
H    -1.260002  -1.160746  -1.251244
H    0.127113  -2.281116  -1.068596
H    0.398171  -0.642140  -1.647580
N    -0.896694  -0.250045  1.195846
C    -2.348491  -0.355937  1.159755
C    -2.775067  0.521896  2.372241
O    -1.956102  0.681105  3.291594
H    -0.638719  0.140857  2.120753
H    -2.751801  0.049143  0.223497
C    -2.860663  -1.822610  1.361110
C    -1.890456  -2.824897  2.033588
C    -1.299562  -2.464271  3.384662
O    -0.055104  -2.239063  3.510894
N    -2.098543  -2.422706  4.439623
H    -3.108450  -2.253029  0.382209
H    -3.807937  -1.784125  1.916251
H    -1.044848  -3.040853  1.370938
H    -2.436722  -3.774108  2.144896
H    -3.090247  -2.625288  4.368883
H    -1.735657  -2.161144  5.352599
N    -4.019775  1.017802  2.390246
C    -5.012046  1.005888  1.312955
H    -4.230228  1.574879  3.215906
H    -5.219161  -0.011108  0.958165
H    -4.702593  1.635143  0.467627
H    -5.947372  1.409764  1.710451
Sr    2.054965  -1.582576  2.892091
