30
Energy: -106348.622776 eV PBE+vdW (tier 2 basis)
C    -0.874047  -0.166220  -0.187803
C    -0.443095  -0.074370  1.245473
O    0.778756  -0.048353  1.539698
H    -1.959025  -0.216165  -0.325466
H    -0.413116  -1.055632  -0.637725
H    -0.485417  0.704235  -0.733368
N    -1.423659  -0.025267  2.172280
C    -1.388689  0.029816  3.649620
C    -0.657388  1.264935  4.216343
O    0.543609  1.541721  3.974131
H    -2.362765  -0.053266  1.786298
H    -2.444881  0.194586  3.902755
C    -1.076511  -1.325732  4.350144
C    0.186493  -2.159676  4.020408
C    1.432009  -1.827035  4.815836
O    2.273292  -0.982858  4.407522
N    1.619369  -2.459308  5.973178
H    -1.933219  -1.967172  4.103108
H    -1.145086  -1.152592  5.434783
H    0.440861  -2.090643  2.956984
H    -0.072187  -3.210572  4.208761
H    0.992784  -3.187162  6.299083
H    2.453435  -2.271415  6.523897
N    -1.382118  2.032451  5.029128
C    -0.854189  3.219984  5.703351
H    -2.360020  1.804588  5.177626
H    0.067576  2.971074  6.240856
H    -1.603215  3.576309  6.415179
H    -0.642392  4.013212  4.975618
Sr    2.473831  0.773523  2.900298
