30
Energy: -106347.69947 eV PBE+vdW (tier 2 basis)
C    0.086412  0.845381  0.205504
C    -0.110909  0.323484  1.594477
O    0.825313  0.426068  2.447966
H    0.891931  0.265058  -0.267783
H    0.427200  1.887576  0.243540
H    -0.809078  0.780512  -0.420968
N    -1.288104  -0.245275  1.884720
C    -1.722806  -1.036297  3.053695
C    -1.884082  -0.225587  4.354569
O    -1.008242  0.622176  4.744253
H    -1.957263  -0.244850  1.119634
H    -2.733336  -1.363070  2.783170
C    -0.879572  -2.323272  3.240016
C    -1.462352  -3.351207  4.235442
C    -2.919799  -3.727466  3.966899
O    -3.826270  -2.872372  4.016227
N    -3.180645  -5.010196  3.675689
H    0.143277  -2.071452  3.553875
H    -0.792209  -2.786874  2.246977
H    -1.424431  -2.960210  5.263387
H    -0.814321  -4.236765  4.221142
H    -2.464416  -5.725824  3.659834
H    -4.145522  -5.294971  3.529942
N    -2.961628  -0.515076  5.047782
C    -3.323850  0.065070  6.334921
H    -3.509825  -1.339787  4.688299
H    -3.189309  -0.676018  7.133934
H    -4.380262  0.355296  6.307441
H    -2.707765  0.943557  6.540495
Sr    1.105862  1.350388  4.498924
