30
Energy: -106347.639608 eV PBE+vdW (tier 2 basis)
C    0.111812  -0.381569  -0.064775
C    -0.120250  -0.229457  1.401927
O    0.809394  -0.487806  2.236803
H    -0.768818  -0.137518  -0.667817
H    0.415440  -1.416356  -0.275288
H    0.944451  0.266077  -0.371158
N    -1.314666  0.174749  1.834927
C    -1.675628  0.367119  3.246918
C    -3.217433  0.238339  3.448520
O    -3.797305  1.025304  4.187602
H    -2.013082  0.418200  1.134703
H    -1.203380  -0.459192  3.804017
C    -1.154222  1.725814  3.762465
C    -1.202833  1.925561  5.280122
C    -0.312158  1.030184  6.101173
O    0.723064  0.470019  5.610283
N    -0.616483  0.854934  7.378849
H    -1.759368  2.522130  3.309858
H    -0.128090  1.874271  3.392560
H    -2.241917  1.842977  5.626860
H    -0.888428  2.958949  5.506823
H    -1.439969  1.286063  7.788942
H    -0.008278  0.317838  7.991362
N    -3.822730  -0.766540  2.773072
C    -5.257826  -1.028720  2.894540
H    -3.257849  -1.452078  2.283140
H    -5.624364  -1.467169  1.961146
H    -5.773598  -0.082534  3.082205
H    -5.467718  -1.714743  3.725865
Sr    2.140098  -0.371632  4.056674
