30
Energy: -106347.902907 eV PBE+vdW (tier 2 basis)
C    0.625032  1.116583  2.824676
C    0.102399  -0.274713  2.674591
O    0.885399  -1.273979  2.856273
H    -0.151536  1.875217  2.688871
H    1.428732  1.286363  2.095193
H    1.073008  1.222457  3.822079
N    -1.175907  -0.434413  2.355235
C    -1.893996  -1.714502  2.336480
C    -1.495344  -2.549404  1.098250
O    -0.482603  -3.316461  1.165461
H    -1.832334  0.420304  2.367481
H    -1.558767  -2.317068  3.197742
C    -3.411024  -1.470068  2.467237
C    -3.849274  -0.634118  3.688787
C    -3.846187  0.870917  3.422393
O    -2.990752  1.399251  2.681227
N    -4.793129  1.598760  4.025360
H    -3.896337  -2.453390  2.519053
H    -3.799576  -0.971123  1.565630
H    -3.191822  -0.819513  4.553710
H    -4.850303  -0.958703  3.999819
H    -5.511211  1.187833  4.609531
H    -4.799632  2.606610  3.895989
N    -2.205722  -2.443835  -0.010550
C    -1.931471  -3.156619  -1.259099
H    -2.997412  -1.806118  -0.002307
H    -1.431584  -4.102983  -1.036796
H    -1.295195  -2.549242  -1.916046
H    -2.880406  -3.354937  -1.766451
Sr    1.538958  -3.324106  2.251183
