30
Energy: -106347.838713 eV PBE+vdW (tier 2 basis)
C    0.666271  -0.625746  0.391255
C    0.398248  0.226848  1.585409
O    1.356918  0.802609  2.203241
H    1.408188  -1.394097  0.644250
H    1.110265  0.000731  -0.395667
H    -0.235988  -1.104026  -0.002536
N    -0.862271  0.393782  1.991831
C    -1.217650  1.232892  3.143439
C    -0.784635  0.514840  4.440826
O    0.234044  0.966935  5.071224
H    -1.599634  -0.217644  1.629432
H    -0.559384  2.110271  3.080655
C    -2.650906  1.820045  3.065909
C    -3.902573  1.009554  3.456379
C    -4.074086  -0.300936  2.712623
O    -3.120810  -1.114804  2.660328
N    -5.253473  -0.559183  2.141312
H    -2.764737  2.199278  2.039178
H    -2.643463  2.710789  3.709063
H    -4.771651  1.666129  3.318837
H    -3.882552  0.764657  4.530211
H    -6.032967  0.087139  2.184445
H    -5.401823  -1.457599  1.689052
N    -1.436323  -0.570073  4.795387
C    -1.123589  -1.393143  5.960117
H    -2.150837  -0.904502  4.106441
H    -0.600581  -0.794811  6.710930
H    -0.499754  -2.249696  5.670035
H    -2.058199  -1.774688  6.383924
Sr    2.280952  1.469450  4.174467
