30
Energy: -106347.531806 eV PBE+vdW (tier 2 basis)
C    0.327491  0.576562  -0.104587
C    0.011914  0.757013  1.349172
O    0.453113  1.799528  1.958407
H    -0.176202  1.378593  -0.663943
H    -0.001420  -0.390224  -0.496966
H    1.403820  0.700225  -0.278796
N    -0.706537  -0.189713  1.933459
C    -1.385153  -0.250033  3.226669
C    -0.689924  0.389549  4.426182
O    0.573380  0.498056  4.523747
H    -0.960256  -1.049892  1.331481
H    -2.357855  0.258426  3.114099
C    -1.658961  -1.746847  3.575730
C    -2.730130  -2.464033  2.728530
C    -2.259813  -2.976160  1.370068
O    -1.408712  -2.363523  0.692812
N    -2.824000  -4.103830  0.921575
H    -1.987796  -1.794861  4.621456
H    -0.702603  -2.287185  3.533002
H    -3.588400  -1.797414  2.542394
H    -3.126497  -3.300495  3.319599
H    -3.508184  -4.625186  1.456019
H    -2.576419  -4.446800  -0.002201
N    -1.457737  0.795136  5.437535
C    -2.919299  0.781691  5.557614
H    -0.937676  1.095310  6.260543
H    -3.189955  1.375156  6.435322
H    -3.304987  -0.236075  5.696957
H    -3.391317  1.237848  4.679768
Sr    2.021532  1.983288  3.544732
