30
Energy: -106347.51225 eV PBE+vdW (tier 2 basis)
C    0.253053  -0.083970  -0.549718
C    -0.212632  -0.245431  0.861360
O    -0.221094  -1.406193  1.397240
H    0.158110  0.942428  -0.916848
H    -0.318939  -0.761636  -1.197436
H    1.305995  -0.391292  -0.618496
N    -0.594419  0.845832  1.518158
C    -1.266563  0.973553  2.825377
C    -0.478633  0.373042  3.993286
O    -0.519741  -0.870933  4.265293
H    -0.808756  1.706560  0.973329
H    -1.281819  2.057699  2.976214
C    -2.740935  0.518815  2.797687
C    -3.546020  1.049618  1.588291
C    -3.296815  2.517625  1.227203
O    -2.152225  2.931797  0.967821
N    -4.369168  3.324560  1.181418
H    -3.204895  0.855121  3.736262
H    -2.807952  -0.579049  2.796743
H    -4.609943  0.858607  1.776136
H    -3.286505  0.473746  0.687207
H    -5.310990  2.995662  1.354497
H    -4.246085  4.288035  0.882335
N    0.231120  1.187647  4.760803
C    0.427520  2.638272  4.634019
H    0.682049  0.733436  5.555213
H    1.260384  2.920107  5.284407
H    -0.465531  3.187532  4.958038
H    0.687561  2.913713  3.606715
Sr    -0.336373  -2.831994  3.116805
