30
Energy: -106347.546448 eV PBE+vdW (tier 2 basis)
C    0.671979  0.335563  0.230165
C    -0.004932  0.260593  1.565031
O    -0.235182  1.328000  2.215279
H    1.573864  0.955941  0.298339
H    -0.010593  0.843029  -0.467665
H    0.935071  -0.641878  -0.187375
N    -0.338894  -0.954544  2.017150
C    -1.230158  -1.404694  3.104743
C    -1.127464  -0.632982  4.430992
O    -0.094430  0.041000  4.773747
H    -0.076545  -1.712582  1.390971
H    -2.267513  -1.278522  2.757970
C    -0.950170  -2.927217  3.277067
C    -1.852544  -3.734344  4.231253
C    -3.346722  -3.572824  3.973211
O    -3.901216  -2.461497  4.109847
N    -4.035745  -4.656736  3.594864
H    0.093358  -3.056123  3.599477
H    -1.032132  -3.371185  2.271923
H    -1.671892  -3.441161  5.275450
H    -1.546731  -4.785765  4.156522
H    -3.611634  -5.572820  3.513144
H    -5.039535  -4.579207  3.453966
N    -2.189370  -0.748350  5.197751
C    -2.301507  -0.195266  6.541568
H    -2.977970  -1.361765  4.817680
H    -1.323507  -0.170550  7.033906
H    -2.982639  -0.825761  7.121774
H    -2.728181  0.817768  6.513703
Sr    0.516931  2.138879  4.201550
