30
Energy: -106348.24404 eV PBE+vdW (tier 2 basis)
C    1.016198  -0.034868  0.227577
C    0.799166  -0.323576  1.675368
O    1.751926  -0.615181  2.445674
H    1.779492  -0.727658  -0.148187
H    1.427363  0.978840  0.105863
H    0.106874  -0.129093  -0.374107
N    -0.458726  -0.261028  2.206190
C    -1.427846  0.788615  1.910101
C    -0.740255  2.175794  2.042346
O    0.277013  2.309786  2.777523
H    -0.502557  -0.623940  3.157699
H    -1.797760  0.668493  0.880532
C    -2.649017  0.673619  2.857505
C    -2.512239  1.164700  4.323116
C    -1.671904  0.318122  5.261262
O    -0.408937  0.281220  5.168382
N    -2.297340  -0.389409  6.194684
H    -2.995660  -0.369740  2.828770
H    -3.460473  1.265404  2.414474
H    -3.529148  1.249192  4.727289
H    -2.088004  2.179584  4.348423
H    -1.763407  -0.956738  6.849622
H    -3.306142  -0.367821  6.304220
N    -1.289058  3.182033  1.374477
C    -0.828760  4.571747  1.397802
H    -2.084160  2.971438  0.775274
H    -0.525199  4.877698  0.389473
H    0.022214  4.654306  2.077180
H    -1.639861  5.225170  1.740167
Sr    1.643206  0.984288  4.231299
