30
Energy: -106347.450136 eV PBE+vdW (tier 2 basis)
C    -0.145580  0.188887  0.076897
C    -0.114711  0.073173  1.568015
O    0.976761  -0.199095  2.158855
H    -1.128360  0.458831  -0.322836
H    0.163462  -0.773926  -0.354222
H    0.592671  0.933322  -0.248573
N    -1.260364  0.260574  2.236283
C    -1.584278  0.057939  3.663450
C    -0.944312  1.090616  4.590584
O    0.327234  1.184665  4.696324
H    -2.063308  0.485856  1.655219
H    -2.672804  0.175939  3.719572
C    -1.320270  -1.376968  4.180699
C    -2.284830  -2.421172  3.603175
C    -3.740685  -2.190265  4.036127
O    -4.138470  -1.074376  4.392726
N    -4.550979  -3.263876  3.976320
H    -1.429522  -1.352775  5.274881
H    -0.285582  -1.682937  3.967195
H    -1.952285  -3.421462  3.912681
H    -2.251787  -2.421912  2.501639
H    -4.226461  -4.185659  3.711336
H    -5.531162  -3.151828  4.216833
N    -1.715896  1.855382  5.342767
C    -3.182445  1.931355  5.418624
H    -1.199373  2.488198  5.955233
H    -3.640581  0.952362  5.243960
H    -3.563215  2.665352  4.696906
H    -3.445299  2.265569  6.426907
Sr    2.291082  0.393435  3.904304
