30
Energy: -106347.522395 eV PBE+vdW (tier 2 basis)
C    -0.046504  0.899861  0.139192
C    -0.068783  0.542322  1.587703
O    1.020588  0.354418  2.226222
H    0.459028  0.099554  -0.419089
H    0.544011  1.814731  -0.002911
H    -1.045787  1.049404  -0.282527
N    -1.241149  0.414489  2.211297
C    -1.357238  -0.009643  3.610332
C    -2.576631  -0.881873  3.995219
O    -2.345420  -1.764750  4.822253
H    -2.082089  0.583602  1.666675
H    -0.532514  -0.714600  3.766660
C    -1.185445  1.176336  4.590504
C    -1.050487  0.753365  6.059393
C    0.082048  -0.208154  6.334998
O    1.182681  -0.130595  5.694964
N    -0.077166  -1.109730  7.286697
H    -2.037815  1.864043  4.507117
H    -0.303724  1.758027  4.283251
H    -1.987688  0.325547  6.436116
H    -0.853176  1.651705  6.667973
H    -0.971429  -1.234196  7.751571
H    0.676492  -1.745738  7.533689
N    -3.815669  -0.633137  3.512993
C    -4.291929  0.426487  2.631164
H    -4.508690  -1.297571  3.852911
H    -5.362881  0.570697  2.806577
H    -4.174681  0.173001  1.564627
H    -3.808669  1.387587  2.849590
Sr    2.532339  0.074382  3.883923
