30
Energy: -106347.627469 eV PBE+vdW (tier 2 basis)
C    0.052717  -1.384868  0.567577
C    -0.239104  -0.136805  1.331333
O    0.701461  0.663142  1.653390
H    0.549528  -1.125224  -0.376932
H    -0.842529  -1.976024  0.349020
H    0.756383  -2.002171  1.143139
N    -1.496951  0.137792  1.683300
C    -1.864197  1.282922  2.525404
C    -3.140806  1.093951  3.375643
O    -3.128822  1.580719  4.504126
H    -2.200597  -0.564858  1.470499
H    -1.078379  1.365698  3.287991
C    -1.931783  2.600187  1.716944
C    -2.070621  3.847162  2.601052
C    -0.964921  4.006066  3.617923
O    0.241320  3.712237  3.325295
N    -1.268644  4.486027  4.809967
H    -2.782057  2.569871  1.021763
H    -1.035893  2.682252  1.084241
H    -3.041340  3.863774  3.111333
H    -2.039710  4.743631  1.960002
H    -2.233327  4.649744  5.082382
H    -0.545552  4.650693  5.505667
N    -4.193431  0.447936  2.823671
C    -5.451534  0.255591  3.550073
H    -4.209017  0.263677  1.825582
H    -6.131679  1.104643  3.401263
H    -5.228390  0.165576  4.616959
H    -5.933100  -0.661526  3.197097
Sr    1.883978  2.427184  2.431300
