30
Energy: -106347.468351 eV PBE+vdW (tier 2 basis)
C    -2.009791  -1.355983  0.665911
C    -1.338924  -1.585653  1.988340
O    -0.383959  -2.357458  2.132164
H    -2.928625  -0.762106  0.731019
H    -2.228652  -2.323283  0.199306
H    -1.300826  -0.835387  0.006850
N    -1.833369  -0.888869  3.070713
C    -1.099640  -0.792828  4.329024
C    -1.246947  -2.062320  5.210126
O    -1.610353  -2.010455  6.437213
H    -2.630500  -0.283509  2.919755
H    -0.030423  -0.812706  4.051463
C    -1.324838  0.555772  5.050184
C    -2.695420  1.257956  5.011601
C    -3.831620  0.728857  5.858679
O    -3.634586  0.209511  6.995800
N    -5.070758  0.893483  5.406873
H    -0.625052  1.268348  4.594771
H    -0.983898  0.455587  6.089994
H    -3.043184  1.412210  3.979992
H    -2.530923  2.282699  5.389688
H    -5.264242  1.351865  4.522206
H    -5.866099  0.659196  5.996137
N    -0.899178  -3.188340  4.634089
C    -0.904490  -4.496107  5.280729
H    -0.567962  -3.084880  3.641609
H    -0.511745  -5.229846  4.572265
H    -1.924030  -4.787852  5.563511
H    -0.269041  -4.489502  6.175270
Sr    -2.521084  -1.270827  8.324130
