30
Energy: -106347.444281 eV PBE+vdW (tier 2 basis)
C    -0.058159  -1.182723  0.868738
C    -0.122203  -0.728768  2.288539
O    0.356002  -1.474104  3.217324
H    -0.640278  -2.105966  0.743632
H    0.985416  -1.438797  0.639366
H    -0.407213  -0.434393  0.151853
N    -0.657914  0.431717  2.636847
C    -1.535457  1.352112  1.926143
C    -1.557117  2.593837  2.862516
O    -1.306171  2.408783  4.064580
H    -0.577484  0.763718  3.615947
H    -1.133221  1.603548  0.936377
C    -2.963479  0.768109  1.768800
C    -3.686371  0.402810  3.102934
C    -3.631443  -1.060014  3.478238
O    -2.667779  -1.559924  4.138584
N    -4.640664  -1.832746  3.089394
H    -2.919476  -0.102638  1.099070
H    -3.575290  1.513952  1.246072
H    -4.740226  0.695322  3.016532
H    -3.266114  0.979033  3.938647
H    -4.661796  -2.821450  3.324689
H    -5.441574  -1.453019  2.594623
N    -1.897326  3.782735  2.348242
C    -2.102110  4.136096  0.943106
H    -1.920658  4.535897  3.032893
H    -2.265937  5.215705  0.887126
H    -2.986929  3.644781  0.518009
H    -1.220356  3.901133  0.332905
Sr    -0.683098  -2.218658  5.081605
