14
Energy: -10860.0670198 eV PBE+vdW (tier 2 basis)
N    0.706916  -0.070150  -0.355709
C    0.103324  0.311953  0.910591
C    1.128458  0.170452  2.022136
O    2.082199  -0.577978  1.997420
H    -0.029446  -0.316384  -1.017396
H    1.307775  -0.884634  -0.216560
H    -0.208329  1.368329  0.865176
C    -1.147606  -0.506262  1.300630
O    -2.084193  -0.344561  0.231522
H    -1.562494  -0.131599  2.252195
H    -0.863744  -1.566692  1.423802
H    -2.805188  -0.978063  0.358833
O    0.831909  0.960397  3.089797
H    1.513477  0.769712  3.763630
