14
Energy: -10860.0933494 eV PBE+vdW (tier 2 basis)
N    0.920434  -0.168496  -0.222274
C    0.287839  -0.145335  1.087951
C    1.276670  0.075861  2.233500
O    2.484161  0.054337  2.142845
H    1.217072  0.770891  -0.485706
H    1.777486  -0.723837  -0.181288
H    -0.457866  0.663543  1.117268
C    -0.493122  -1.471112  1.311735
O    -1.442743  -1.426156  2.362855
H    0.228064  -2.300823  1.446035
H    -1.050666  -1.660030  0.386872
H    -0.986971  -1.134252  3.170231
O    0.638121  0.260151  3.434442
H    1.343522  0.344259  4.106536
