14
Energy: -10860.0890775 eV PBE+vdW (tier 2 basis)
N    -1.245355  0.780520  0.528878
C    -0.294177  0.098601  1.408426
C    1.155687  0.354141  0.988387
O    1.871626  1.222696  1.437319
H    -0.976076  1.750012  0.365504
H    -1.293953  0.298350  -0.369876
H    -0.378014  0.532071  2.416176
C    -0.662347  -1.389733  1.503463
O    -0.768326  -2.040644  0.241202
H    -1.659573  -1.455700  1.957941
H    0.054401  -1.905835  2.166787
H    0.114160  -2.021354  -0.166493
O    1.576135  -0.475283  -0.025820
H    2.485812  -0.192841  -0.244895
