14
Energy: -10860.0007332 eV PBE+vdW (tier 2 basis)
N    -0.157369  0.422890  2.832275
C    0.408346  -0.599475  1.951854
C    1.223177  0.122864  0.883466
O    0.787085  1.023538  0.195675
H    -0.812351  0.004179  3.492820
H    -0.669279  1.109363  2.274617
H    1.082176  -1.245943  2.530617
C    -0.649774  -1.478876  1.262938
O    0.015816  -2.474877  0.485753
H    -1.290299  -0.833279  0.636480
H    -1.277955  -1.936191  2.050288
H    -0.640008  -2.920554  -0.069990
O    2.486431  -0.350676  0.780189
H    2.909006  0.157036  0.059020
