14
Energy: -10860.0134365 eV PBE+vdW (tier 2 basis)
N    0.527455  -1.661959  0.261351
C    0.326236  -0.416471  0.992866
C    1.301153  -0.265044  2.148559
O    1.698748  0.795126  2.582170
H    -0.079289  -1.697770  -0.557081
H    0.346114  -2.480047  0.843538
H    0.534376  0.416699  0.307375
C    -1.105512  -0.192895  1.561975
O    -2.093478  -0.213352  0.538688
H    -1.161692  0.800472  2.026205
H    -1.316295  -0.952116  2.336698
H    -2.232864  -1.135636  0.273349
O    1.624354  -1.463064  2.713358
H    2.213694  -1.253942  3.463948
