14
Energy: -10860.1099808 eV PBE+vdW (tier 2 basis)
N    1.668308  -1.334306  -0.873734
C    2.100042  -0.631413  0.324942
C    3.556727  -0.153657  0.147309
O    4.082732  -0.071576  -0.941153
H    2.326555  -1.112907  -1.625540
H    0.740229  -1.041035  -1.168948
H    1.516465  0.293921  0.517233
C    1.925720  -1.557436  1.546740
O    2.288654  -0.919371  2.793414
H    2.583268  -2.429803  1.445672
H    0.888703  -1.920391  1.583527
H    1.559150  -0.342808  3.070371
O    4.205331  0.192509  1.275477
H    3.632116  -0.040727  2.052691
