14
Energy: -10859.9141409 eV PBE+vdW (tier 2 basis)
N    3.060870  -1.666265  1.906144
C    2.536808  -1.200103  0.608491
C    3.645889  -0.643349  -0.296537
O    4.270698  -1.326448  -1.071232
H    3.659570  -0.960912  2.340525
H    3.627407  -2.504845  1.783044
H    2.142539  -2.081933  0.086775
C    1.363780  -0.249874  0.894122
O    0.425910  -0.867592  1.748877
H    0.849699  0.024191  -0.037583
H    1.736215  0.696405  1.356639
H    0.970142  -1.384580  2.378129
O    3.966808  0.678379  -0.138760
H    3.335666  1.098925  0.475365
