14
Energy: -10860.1111871 eV PBE+vdW (tier 2 basis)
N    -1.094137  0.577060  0.328442
C    -0.250070  0.070016  1.416382
C    1.241264  0.174414  1.120439
O    2.104896  -0.245136  1.858031
H    -0.643174  1.337061  -0.176071
H    -1.983751  0.916724  0.690304
H    -0.381616  0.613194  2.371578
C    -0.622726  -1.410395  1.653570
O    -0.581512  -2.130399  0.436380
H    -1.631742  -1.441852  2.109675
H    0.087631  -1.870932  2.350943
H    -0.981040  -1.520898  -0.217997
O    1.516024  0.814832  -0.050547
H    2.489953  0.824313  -0.126129
