14
Energy: -10860.0562114 eV PBE+vdW (tier 2 basis)
N    -0.206624  -0.051682  -0.026308
C    -0.017539  -0.116457  1.413918
C    1.355970  0.280578  1.988613
O    1.598210  0.356570  3.175047
H    0.353995  -0.777810  -0.473675
H    0.115083  0.841400  -0.396260
H    -0.726583  0.574849  1.899669
C    -0.367137  -1.515668  1.921670
O    0.551235  -2.429643  1.309042
H    -1.405477  -1.738014  1.626039
H    -0.280548  -1.536135  3.019182
H    0.317431  -3.328067  1.582508
O    2.274922  0.570960  1.028670
H    3.090845  0.807436  1.511648
