14
Energy: -10860.0503967 eV PBE+vdW (tier 2 basis)
N    -0.658269  0.887493  1.941782
C    0.035864  -0.382404  1.719931
C    1.410851  -0.187555  1.074027
O    1.600532  0.421116  0.039850
H    -0.583200  1.467253  1.102869
H    -0.213546  1.407077  2.698130
H    0.165968  -0.890722  2.684293
C    -0.826009  -1.264390  0.814029
O    -0.149455  -2.510177  0.637571
H    -0.973094  -0.746389  -0.150107
H    -1.807683  -1.390799  1.299415
H    -0.582263  -2.993285  -0.080661
O    2.414125  -0.735073  1.807202
H    3.240180  -0.557143  1.314670
