14
Energy: -10860.0920095 eV PBE+vdW (tier 2 basis)
N    0.343576  -2.073028  -0.388340
C    0.484629  -0.739217  0.169541
C    1.512990  -0.642120  1.310499
O    2.188994  -1.557586  1.724181
H    -0.135169  -2.661050  0.296767
H    1.264329  -2.493069  -0.519678
H    0.848357  -0.053694  -0.616262
C    -0.878912  -0.206176  0.608367
O    -1.339070  -1.039859  1.678611
H    -1.558221  -0.260982  -0.258076
H    -0.784032  0.842150  0.932048
H    -2.255654  -0.803253  1.880026
O    1.624439  0.632429  1.783491
H    2.306744  0.600454  2.481826
