14
Energy: -10860.0417777 eV PBE+vdW (tier 2 basis)
N    -0.191193  1.103363  0.564999
C    -0.223239  0.196773  1.706619
C    1.091374  0.135719  2.461594
O    1.197310  -0.142882  3.637380
H    -1.012076  0.917016  -0.014861
H    0.631216  0.917473  -0.010517
H    -0.957539  0.575516  2.436505
C    -0.635748  -1.262161  1.355854
O    -1.890635  -1.292564  0.679076
H    -0.649281  -1.881838  2.267618
H    0.093692  -1.687942  0.652199
H    -2.592269  -1.154950  1.334657
O    2.167695  0.353356  1.654218
H    2.954645  0.252563  2.224232
