14
Energy: -10859.9399648 eV PBE+vdW (tier 2 basis)
N    0.988350  -2.453606  1.168123
C    0.239437  -1.194412  1.126289
C    1.070653  -0.156750  0.373649
O    0.768207  0.373523  -0.669028
H    1.802100  -2.369511  1.778829
H    0.402261  -3.204133  1.533351
H    -0.659259  -1.344563  0.514075
C    -0.182114  -0.671193  2.507713
O    -0.911133  0.542759  2.328652
H    0.720141  -0.515022  3.125222
H    -0.802492  -1.448472  2.992401
H    -1.070563  0.939102  3.197611
O    2.242661  0.102940  1.027802
H    2.718750  0.751338  0.474311
