14
Energy: -10860.0735191 eV PBE+vdW (tier 2 basis)
N    0.232685  0.082083  3.001641
C    0.362606  -0.841173  1.883471
C    1.325391  -0.347893  0.818848
O    1.598703  -0.989674  -0.183697
H    -0.445481  -0.275795  3.674086
H    -0.092228  0.998768  2.693965
H    0.791783  -1.786127  2.256279
C    -0.972657  -1.213137  1.167945
O    -0.861784  -2.301730  0.273438
H    -1.374677  -0.306228  0.671472
H    -1.692095  -1.508972  1.945608
H    -0.071625  -2.130127  -0.276446
O    1.810977  0.895535  1.035639
H    2.374401  1.099469  0.262751
