14
Energy: -10860.0305387 eV PBE+vdW (tier 2 basis)
N    0.664415  -0.945142  0.203558
C    0.288530  -0.226147  1.406331
C    1.541376  0.109392  2.202902
O    2.674517  0.046555  1.779462
H    -0.129153  -1.014723  -0.429934
H    1.444504  -0.491912  -0.269228
H    -0.184488  0.767781  1.220093
C    -0.732043  -1.055721  2.207776
O    -1.926387  -1.275299  1.451753
H    -0.948592  -0.573038  3.171901
H    -0.307123  -2.051199  2.391593
H    -2.464645  -0.470229  1.499623
O    1.245373  0.550180  3.459140
H    2.102716  0.778502  3.868030
