14
Energy: -10860.2766391 eV PBE+vdW (tier 2 basis)
N    -0.070172  0.480035  -0.130200
C    -0.049683  0.424829  1.341119
C    1.247088  -0.274381  1.797312
O    2.163455  -0.397707  0.829637
H    -0.602584  -0.300396  -0.519530
H    -0.495480  1.339964  -0.470685
H    0.010458  1.453500  1.730251
C    -1.281637  -0.251962  1.975691
O    -1.278484  -0.188227  3.385252
H    -1.334263  -1.299826  1.610604
H    -2.188270  0.264318  1.626144
H    -0.384574  -0.485597  3.660079
O    1.425683  -0.673222  2.934384
H    1.698907  -0.022728  0.026283
