14
Energy: -10860.0153909 eV PBE+vdW (tier 2 basis)
N    -0.591704  -1.397418  0.341558
C    0.100281  -0.500527  1.255514
C    1.110171  0.405592  0.561075
O    2.008539  0.993344  1.128233
H    -1.216565  -1.996251  0.882238
H    -1.147791  -0.887430  -0.342375
H    -0.571864  0.216593  1.783736
C    0.803614  -1.331647  2.342003
O    -0.137336  -2.086747  3.109763
H    1.420185  -0.675806  2.972238
H    1.454264  -2.070073  1.854716
H    -0.542452  -1.492245  3.759733
O    0.868542  0.539147  -0.769692
H    1.545115  1.162467  -1.099740
