14
Energy: -10859.9355939 eV PBE+vdW (tier 2 basis)
N    0.172932  -2.021713  0.317416
C    0.220656  -0.717166  0.984008
C    1.649193  -0.268033  1.291146
O    2.242411  0.638945  0.747637
H    0.702653  -2.715869  0.846525
H    0.586712  -1.966091  -0.612942
H    -0.190207  0.031814  0.294361
C    -0.643899  -0.705061  2.248116
O    -2.008597  -0.643961  1.843554
H    -0.373264  0.173576  2.863102
H    -0.435022  -1.610677  2.843870
H    -2.562546  -0.869243  2.604810
O    2.233186  -1.060134  2.244194
H    3.147792  -0.731386  2.342202
