14
Energy: -10860.0721299 eV PBE+vdW (tier 2 basis)
N    -0.207204  0.096928  -0.055372
C    -0.251470  -0.055987  1.389840
C    0.909299  0.709728  1.993409
O    1.892543  1.092178  1.398537
H    -0.659777  -0.685644  -0.524891
H    0.761247  0.155633  -0.372808
H    -1.186228  0.366423  1.795637
C    -0.182033  -1.537559  1.876005
O    -0.561190  -1.736432  3.227021
H    0.826151  -1.940576  1.660196
H    -0.903868  -2.108800  1.274697
H    -0.031551  -1.136992  3.779511
O    0.759046  0.871740  3.345503
H    1.572433  1.317332  3.654348
