14
Energy: -10860.0127635 eV PBE+vdW (tier 2 basis)
N    0.223297  -1.992448  0.867321
C    0.445530  -0.554105  0.956634
C    1.560458  -0.184728  1.922145
O    2.213796  0.834906  1.861598
H    -0.620310  -2.153630  0.315102
H    0.060643  -2.387983  1.794223
H    0.775075  -0.193311  -0.029732
C    -0.799757  0.278194  1.335075
O    -1.784756  0.002317  0.336159
H    -0.536777  1.349366  1.355533
H    -1.154212  -0.024218  2.337525
H    -2.610558  0.437717  0.592384
O    1.714325  -1.101339  2.918065
H    2.428246  -0.756739  3.488967
