14
Energy: -10860.1219751 eV PBE+vdW (tier 2 basis)
N    0.981648  0.108053  -0.090465
C    0.036428  -0.066955  1.017448
C    0.741064  -0.334650  2.348574
O    0.744498  -1.391537  2.954548
H    1.606897  -0.696611  -0.159740
H    1.563463  0.933183  0.050784
H    -0.535001  0.866971  1.128116
C    -0.934753  -1.206540  0.682350
O    -1.884521  -1.448126  1.709415
H    -0.356541  -2.119026  0.445501
H    -1.493277  -0.923289  -0.218178
H    -1.385561  -1.820126  2.457541
O    1.430369  0.754621  2.784354
H    1.878289  0.484031  3.609750
