14
Energy: -10860.1638684 eV PBE+vdW (tier 2 basis)
N    -1.164415  -0.253011  2.149785
C    0.028555  -0.893229  1.593791
C    1.362902  -0.610111  2.273053
O    2.335053  -1.331958  2.213056
H    -1.472004  -0.719467  3.001073
H    -0.972862  0.720131  2.391234
H    -0.113187  -1.981988  1.629508
C    0.124710  -0.492753  0.098687
O    -1.095758  -0.777218  -0.552692
H    0.920592  -1.064611  -0.394933
H    0.378817  0.584286  0.031322
H    -1.783723  -0.519269  0.094876
O    1.372836  0.589930  2.926150
H    2.278485  0.695268  3.277089
