14
Energy: -10860.1411374 eV PBE+vdW (tier 2 basis)
N    3.115727  -2.263482  0.732365
C    2.428699  -0.982778  0.488601
C    3.381775  -0.014313  -0.250536
O    3.145094  1.162344  -0.405401
H    3.559250  -2.287654  1.652160
H    2.484469  -3.058797  0.664182
H    1.601009  -1.178776  -0.211144
C    1.832022  -0.312871  1.732598
O    0.766428  -1.067212  2.305327
H    1.411738  0.657055  1.444837
H    2.632983  -0.121420  2.471522
H    1.138806  -1.847317  2.743956
O    4.489882  -0.616006  -0.723692
H    4.389117  -1.562773  -0.427776
