14
Energy: -10859.9814238 eV PBE+vdW (tier 2 basis)
N    -0.308265  1.004424  0.600932
C    -0.180072  0.150880  1.783199
C    1.285185  -0.041707  2.150754
O    1.747361  0.078781  3.263063
H    0.116607  0.554712  -0.211283
H    -1.293202  1.161466  0.384519
H    -0.622804  0.683598  2.638018
C    -0.871602  -1.229382  1.638311
O    -0.652930  -2.122286  2.722987
H    -0.473814  -1.738184  0.748783
H    -1.949878  -1.046556  1.467238
H    -0.921857  -1.686809  3.547452
O    2.028053  -0.412997  1.070475
H    2.939218  -0.538941  1.398554
