14
Energy: -10859.9914233 eV PBE+vdW (tier 2 basis)
N    -0.191468  1.147195  0.865105
C    -0.223807  0.138611  1.917307
C    1.164440  -0.407336  2.255262
O    1.394794  -1.079514  3.239838
H    -1.130871  1.517482  0.716615
H    0.102723  0.721896  -0.014956
H    -0.572216  0.616315  2.846668
C    -1.154928  -1.063623  1.668366
O    -0.720767  -1.706553  0.467493
H    -2.189815  -0.688034  1.566671
H    -1.107100  -1.745343  2.533464
H    -1.210735  -2.535230  0.368845
O    2.108480  -0.094683  1.335703
H    2.929272  -0.524182  1.646621
