14
Energy: -10859.9156743 eV PBE+vdW (tier 2 basis)
N    0.651934  -0.831126  -0.586037
C    0.132794  -0.314684  0.680749
C    1.251644  0.175278  1.596822
O    1.221272  1.233707  2.189769
H    1.144031  -0.102388  -1.102543
H    -0.121411  -1.139885  -1.176582
H    -0.536732  0.561674  0.577527
C    -0.653391  -1.445313  1.377805
O    -1.117571  -1.106500  2.675481
H    0.005563  -2.313715  1.500003
H    -1.486249  -1.741422  0.710802
H    -1.650389  -0.297596  2.616726
O    2.273109  -0.710027  1.707651
H    2.896395  -0.313004  2.346827
