14
Energy: -10860.1848304 eV PBE+vdW (tier 2 basis)
N    3.145095  -0.366688  2.282102
C    2.833520  -1.025703  1.001650
C    3.782876  -0.492572  -0.097677
O    3.627480  -0.709466  -1.279003
H    2.993859  -1.001191  3.064153
H    2.526425  0.432116  2.434040
H    3.074283  -2.095497  1.110577
C    1.379977  -0.920207  0.555662
O    0.579722  -1.566013  1.550808
H    1.276420  -1.393521  -0.431976
H    1.102967  0.147074  0.452701
H    -0.336515  -1.584150  1.237794
O    4.812357  0.212536  0.401776
H    4.630534  0.218281  1.386395
