14
Energy: -10860.1296912 eV PBE+vdW (tier 2 basis)
N    0.308028  -0.754804  -0.295667
C    0.475150  -0.376615  1.124854
C    1.969387  -0.533815  1.489981
O    2.752830  0.381348  1.366566
H    -0.527961  -0.311972  -0.679881
H    1.096346  -0.421304  -0.850933
H    0.233321  0.679509  1.329585
C    -0.453172  -1.287750  1.938253
O    -0.166874  -2.662951  1.637800
H    -1.506417  -1.054574  1.703570
H    -0.306871  -1.153579  3.017702
H    -0.129408  -2.679671  0.656312
O    2.355286  -1.748504  1.928792
H    1.564372  -2.353579  1.910286
