14
Energy: -10860.0430192 eV PBE+vdW (tier 2 basis)
N    2.559527  -2.414241  1.308380
C    2.469008  -1.179734  0.532619
C    3.826071  -0.696037  0.008167
O    4.885332  -1.069667  0.452159
H    3.462153  -2.430113  1.791724
H    2.546890  -3.228840  0.696674
H    1.778749  -1.348311  -0.309688
C    1.835614  -0.099385  1.451011
O    0.629902  -0.586615  1.998676
H    1.602471  0.817420  0.890508
H    2.567666  0.163658  2.239346
H    0.837427  -1.514070  2.239152
O    3.791635  0.244830  -0.980517
H    2.869554  0.421106  -1.238211
