14
Energy: -10860.069717 eV PBE+vdW (tier 2 basis)
N    -0.738685  0.319768  -0.958880
C    -0.400955  0.111115  0.445887
C    1.103833  0.022817  0.703519
O    1.894137  -0.541189  -0.024352
H    -0.170195  -0.304906  -1.535697
H    -0.501502  1.269510  -1.244818
H    -0.806854  0.946898  1.034934
C    -1.074431  -1.201045  0.912895
O    -0.746467  -1.589174  2.240955
H    -0.727662  -2.021513  0.268707
H    -2.160158  -1.086452  0.761104
H    -1.090695  -0.920627  2.853309
O    1.468083  0.650839  1.853676
H    2.428550  0.497960  1.956760
