20
Energy: -564345.974387 eV PBE+vdW (tier 2 basis)
N    0.770827  -0.126615  0.396144
C    0.046024  0.202937  1.627081
C    0.966694  0.760265  2.754289
O    2.178557  0.994754  2.611277
H    0.318954  0.238563  -0.450160
H    0.917949  -1.139396  0.290980
H    -0.630505  1.041696  1.390640
C    -0.790546  -1.071174  2.095456
C    0.094932  -2.196129  2.629047
C    -1.913497  -0.669229  3.070742
H    -1.285594  -1.396888  1.166797
H    -0.527319  -3.076847  2.835191
H    0.596397  -1.926479  3.569206
H    0.861230  -2.538996  1.916015
H    -2.656073  -1.481230  3.074591
H    -2.456580  0.240080  2.776881
H    -1.575448  -0.599230  4.119609
O    0.430074  1.039489  3.901194
H    -0.518044  0.774493  3.964047
Hg    2.940223  0.733423  0.467499
