20
Energy: -564346.248038 eV PBE+vdW (tier 2 basis)
N    0.732782  -1.159915  0.532735
C    0.180457  -0.560645  1.756016
C    1.131618  -0.757349  2.946898
O    1.881809  -1.741328  3.087173
H    1.490848  -0.619501  0.097350
H    -0.004757  -1.340107  -0.162667
H    0.108796  0.532566  1.602086
C    -1.246669  -1.124174  2.086678
C    -2.225247  -0.743523  0.967590
C    -1.255057  -2.624545  2.406995
H    -1.552015  -0.586563  2.998141
H    -3.243246  -1.025196  1.263997
H    -2.030996  -1.275189  0.019700
H    -2.228021  0.335491  0.766131
H    -2.286958  -2.951420  2.609712
H    -0.676430  -2.897096  3.300909
H    -0.968211  -3.271277  1.546546
O    1.017349  0.186621  3.834100
H    1.576050  0.036847  4.633200
Hg    1.621897  -3.154698  1.252711
