20
Energy: -564346.51233 eV PBE+vdW (tier 2 basis)
N    -0.383053  0.463197  0.213694
C    0.081773  -0.174276  1.513250
C    1.650634  -0.198965  1.488213
O    2.214501  0.115076  0.415536
H    -0.047618  1.431911  0.104357
H    -1.416080  0.472505  0.195943
H    -0.209236  0.514664  2.321303
C    -0.535063  -1.573850  1.734071
C    -0.298806  -2.038079  3.167628
C    -2.057498  -1.526524  1.417876
H    -0.065946  -2.281359  1.028569
H    -0.822249  -1.400153  3.892664
H    0.767758  -2.056307  3.446566
H    -0.658509  -3.068907  3.284153
H    -2.281057  -1.392980  0.349281
H    -2.576252  -0.761790  2.014097
H    -2.486216  -2.497956  1.692897
O    2.233246  -0.527285  2.565092
H    -0.057318  -0.067950  -0.609127
Hg    4.306989  -0.303969  1.632938
