20
Energy: -564345.96405 eV PBE+vdW (tier 2 basis)
N    0.962825  -0.837769  0.345786
C    0.407994  -0.212786  1.560632
C    1.507975  -0.033863  2.634557
O    2.450205  -0.840049  2.768622
H    1.533208  -0.207116  -0.232245
H    0.233244  -1.263522  -0.239196
H    0.058961  0.798876  1.279616
C    -0.806839  -1.036259  2.120159
C    -0.431636  -2.426967  2.644958
C    -1.580654  -0.240502  3.178038
H    -1.469902  -1.149374  1.244414
H    0.063362  -3.093001  1.893709
H    -1.345475  -2.994593  2.878521
H    0.169478  -2.398020  3.563854
H    -1.851877  0.763094  2.815612
H    -1.035949  -0.152183  4.128510
H    -2.525040  -0.751792  3.403311
O    1.432248  0.941115  3.488308
H    0.682031  1.555831  3.342752
Hg    2.341841  -2.494121  1.187081
