20
Energy: -564346.018742 eV PBE+vdW (tier 2 basis)
N    -0.303324  -0.144566  -0.286527
C    -0.349946  0.037224  1.072054
C    1.166555  0.397387  1.622408
O    1.271894  1.538245  2.037397
H    -0.751258  0.514318  -0.923821
H    0.140051  -0.952367  -0.724113
H    -0.948815  0.916013  1.334605
C    -0.805344  -1.223553  1.982189
C    -0.602507  -0.948316  3.460995
C    -2.273790  -1.456830  1.606637
H    -0.191428  -2.080379  1.647616
H    -1.011233  -1.796020  4.032390
H    -1.147091  -0.053194  3.791439
H    0.450298  -0.867101  3.765881
H    -2.921260  -0.611924  1.879832
H    -2.615438  -2.321025  2.200948
H    -2.404951  -1.683011  0.542627
O    2.144744  -0.452235  1.559359
H    1.901554  -1.362668  1.287623
Hg    3.351259  2.505496  2.873619
