20
Energy: -564346.245907 eV PBE+vdW (tier 2 basis)
N    0.695353  -1.603948  0.560991
C    0.283781  -0.794634  1.698934
C    1.134345  -1.053057  2.967289
O    2.159208  -1.748100  3.001485
H    0.702339  -1.085990  -0.324888
H    0.110334  -2.445553  0.458166
H    0.470680  0.264009  1.453751
C    -1.281735  -1.013294  2.011665
C    -2.107583  -0.410410  0.878249
C    -1.612167  -2.468764  2.320999
H    -1.416213  -0.407671  2.920814
H    -3.158797  -0.388780  1.206664
H    -2.074967  -1.004160  -0.045964
H    -1.831727  0.628147  0.651741
H    -1.555666  -3.131910  1.441922
H    -2.658865  -2.527046  2.651573
H    -1.006906  -2.894585  3.133578
O    0.678502  -0.406243  4.001260
H    1.244964  -0.525778  4.798815
Hg    2.828123  -2.497232  0.880955
