20
Energy: -564345.941271 eV PBE+vdW (tier 2 basis)
N    0.107750  0.313492  0.086691
C    -0.186127  0.318812  1.528377
C    0.880679  1.128406  2.317309
O    2.080327  1.155247  1.983863
H    -0.197224  1.156727  -0.416795
H    -0.292084  -0.522498  -0.364343
H    -1.144590  0.860609  1.653657
C    -0.297030  -1.132259  2.091569
C    -0.665920  -1.140967  3.582052
C    -1.302279  -1.955349  1.264860
H    0.706756  -1.594275  1.985359
H    0.110334  -0.716006  4.231124
H    -0.798710  -2.179690  3.907685
H    -1.622878  -0.629815  3.766904
H    -1.368985  -2.964293  1.690357
H    -1.015023  -2.113137  0.211750
H    -2.308891  -1.515754  1.297308
O    0.548303  1.759335  3.400683
H    -0.399979  1.687256  3.642088
Hg    2.412574  0.191163  -0.069500
