20
Energy: -564345.965072 eV PBE+vdW (tier 2 basis)
N    1.020390  -1.654437  0.556279
C    0.293736  -0.518764  1.145785
C    1.224276  0.434896  1.942158
O    2.301148  0.077103  2.454421
H    0.431784  -2.498053  0.517800
H    1.402159  -1.466880  -0.379099
H    -0.093992  0.079716  0.299304
C    -0.887034  -0.993056  2.061060
C    -1.949928  -1.699466  1.207108
C    -0.423246  -1.840066  3.255375
H    -1.336441  -0.068343  2.457210
H    -2.295911  -1.083476  0.366697
H    -2.822264  -1.921908  1.834396
H    -1.606339  -2.668872  0.807747
H    -0.018642  -2.822827  2.957415
H    -1.292078  -2.075324  3.884254
H    0.292675  -1.324273  3.911570
O    0.842072  1.656719  2.157432
H    0.000078  1.911951  1.723420
Hg    2.812555  -2.088646  1.944664
