20
Energy: -564346.544894 eV PBE+vdW (tier 2 basis)
N    -1.168224  0.835644  0.412782
C    -0.477523  0.136130  1.574534
C    1.036179  -0.056393  1.190871
O    1.412193  0.425220  0.098163
H    -2.075928  1.220416  0.717359
H    -1.351720  0.172716  -0.357940
H    -0.470495  0.850722  2.412625
C    -1.195653  -1.169330  1.950994
C    -1.122741  -2.251739  0.864955
C    -0.762732  -1.656705  3.327388
H    -2.260476  -0.855156  2.042761
H    -1.462711  -1.921024  -0.128836
H    -1.769959  -3.092796  1.139612
H    -0.101245  -2.648691  0.769185
H    -1.357872  -2.535706  3.613551
H    -0.878924  -0.890958  4.104400
H    0.289436  -1.993539  3.331772
O    1.766629  -0.655043  2.032878
H    -0.600389  1.606100  0.026469
Hg    3.638153  -0.393870  0.727480
