17
Energy: -239082.618531 eV PBE+vdW (tier 2 basis)
N    -1.718712  0.559054  1.757367
C    -0.785569  -0.498511  2.240724
C    0.588828  -0.439752  1.566665
O    1.523125  -1.111344  1.876364
H    -2.649758  0.366929  2.142458
H    -1.447041  1.445356  2.196991
H    -0.560173  -0.356946  3.310840
C    -1.361563  -1.924093  2.121353
C    -1.692765  -2.375290  0.715233
O    -1.653065  -1.604959  -0.259611
O    -2.051630  -3.616212  0.496009
H    -2.270609  -2.016311  2.739707
H    -0.634523  -2.624635  2.562120
O    0.663852  0.504504  0.521805
H    1.612178  0.529655  0.265869
H    -2.041860  -4.182560  1.294294
Ba    -1.566715  0.742117  -1.034191
