17
Energy: -239082.851377 eV PBE+vdW (tier 2 basis)
N    0.338197  -1.031599  -0.141588
C    0.266295  -0.148759  1.090444
C    1.611464  -0.063945  1.835440
O    1.709007  0.483256  2.898022
H    0.948342  -0.626971  -0.863885
H    0.717180  -1.962149  0.081488
H    0.046255  0.861866  0.715608
C    -0.853589  -0.616198  2.025608
C    -2.240676  -0.649308  1.411794
O    -3.251671  -0.549451  2.174098
O    -2.386703  -0.808183  0.138649
H    -0.863640  0.040343  2.905187
H    -0.643339  -1.625566  2.420856
O    2.593181  -0.658320  1.122957
H    3.441873  -0.565966  1.606508
H    -0.645531  -1.119832  -0.489794
Ba    -4.998646  -0.718220  0.453607
