17
Energy: -239082.249671 eV PBE+vdW (tier 2 basis)
N    -0.521969  -1.466057  0.772698
C    0.207068  -0.323690  1.271755
C    1.552969  -0.938147  1.645908
O    1.784794  -1.531257  2.751555
H    -0.933774  -1.362578  -0.148366
H    -1.124907  -1.959767  1.420870
H    0.415624  0.349151  0.429779
C    -0.463706  0.539981  2.366098
C    -0.897271  -0.111498  3.659844
O    -1.902198  0.338328  4.283720
O    -0.229309  -1.104505  4.177611
H    -1.348788  1.019550  1.928021
H    0.209540  1.368212  2.653533
O    2.464739  -0.908995  0.730516
H    3.264278  -1.425375  0.980523
H    0.960414  -1.423985  3.408291
Ba    -1.784504  -1.028369  6.335646
