17
Energy: -239083.026062 eV PBE+vdW (tier 2 basis)
N    0.515582  -0.671197  -0.175604
C    0.494898  -0.076830  1.210401
C    1.322697  1.220495  1.090750
O    2.054181  1.394462  0.138882
H    1.400216  -0.340873  -0.620103
H    -0.258417  -0.320855  -0.753379
H    -0.544602  0.146177  1.480145
C    1.139052  -1.027713  2.235892
C    0.607941  -2.451681  2.266602
O    0.607229  -3.081929  3.368469
O    0.221498  -3.026036  1.177323
H    1.035655  -0.591387  3.236579
H    2.224461  -1.106436  2.047438
O    1.136451  2.016164  2.134485
H    1.695326  2.818450  2.046914
H    0.447046  -1.710873  -0.089917
Ba    -0.143212  -5.262937  2.491123
