17
Energy: -239082.510691 eV PBE+vdW (tier 2 basis)
N    0.509351  -0.044798  0.089912
C    -0.020644  0.004228  1.423948
C    1.119672  -0.227119  2.422128
O    1.236185  0.397068  3.495951
H    -0.067773  0.435151  -0.596396
H    0.761745  -0.972778  -0.244562
H    -0.370417  1.030678  1.604501
C    -1.221460  -0.964453  1.722269
C    -2.054825  -0.650443  2.940450
O    -1.705250  0.168624  3.812828
O    -3.212492  -1.246630  3.115018
H    -0.870144  -2.007378  1.803405
H    -1.875218  -0.943131  0.835230
O    1.960652  -1.160473  2.055150
H    2.699609  -1.257718  2.693847
H    -3.442608  -1.872185  2.398462
Ba    -0.194381  1.500357  5.223858
