17
Energy: -239083.033865 eV PBE+vdW (tier 2 basis)
N    -0.380312  -0.183117  0.618440
C    -0.199337  -0.063970  2.111458
C    1.234483  0.485828  2.275383
O    1.879608  0.844021  1.311316
H    -1.306207  0.109992  0.289486
H    0.372612  0.411089  0.200451
H    -0.881613  0.715924  2.478585
C    -0.500968  -1.374201  2.854601
C    0.180756  -2.624866  2.326902
O    0.471618  -3.560148  3.133051
O    0.409632  -2.750657  1.061206
H    -1.585386  -1.573925  2.827205
H    -0.247850  -1.250826  3.914198
O    1.600187  0.531035  3.550692
H    2.477326  0.963760  3.627660
H    -0.184405  -1.179570  0.359787
Ba    1.309854  -5.170372  1.455580
