17
Energy: -239083.028474 eV PBE+vdW (tier 2 basis)
N    1.031491  0.215093  0.630665
C    -0.376897  0.117337  1.183647
C    -0.335972  -0.531782  2.587437
O    0.152235  -1.636457  2.821854
H    1.724898  0.545020  1.313470
H    1.243901  -0.786343  0.282726
H    -0.794445  1.126142  1.268517
C    -1.201315  -0.756151  0.211805
C    -0.616145  -2.162674  0.187335
O    -1.328296  -3.152352  0.500358
O    0.660848  -2.281938  0.000517
H    -1.178958  -0.309440  -0.794232
H    -2.249010  -0.788661  0.531291
O    -0.925842  0.242835  3.473342
H    -0.951796  -0.179005  4.360809
H    1.055764  0.858688  -0.172332
Ba    0.540539  -4.236313  1.737790
