17
Energy: -239083.287723 eV PBE+vdW (tier 2 basis)
N    0.066847  -1.400648  0.254718
C    -0.196931  -0.189690  1.135289
C    1.149244  0.553909  1.245384
O    1.155000  1.680076  1.804284
H    -0.241289  -1.243428  -0.714624
H    -0.377057  -2.266716  0.586050
H    -0.946778  0.436307  0.638607
C    -0.716507  -0.565206  2.535880
C    0.298459  -1.100583  3.540528
O    -0.194218  -2.113922  4.227124
O    1.424181  -0.630064  3.736928
H    -1.571047  -1.251428  2.473901
H    -1.109454  0.364394  2.979597
O    2.189260  -0.098855  0.905464
H    1.113555  -1.493591  0.251536
H    0.426994  -2.398241  4.932585
Ba    3.320741  1.085685  2.977747
