17
Energy: -239082.681912 eV PBE+vdW (tier 2 basis)
N    -0.159314  -0.186712  -0.091989
C    0.068399  0.176286  1.355940
C    1.584988  0.514676  1.422677
O    2.271613  0.351912  0.436437
H    0.716293  0.117160  -0.582989
H    -0.995426  0.241257  -0.503680
H    -0.519792  1.076403  1.581887
C    -0.357124  -0.966979  2.299326
C    0.273001  -2.320548  1.996667
O    0.690908  -3.045804  2.947833
O    0.340223  -2.722723  0.772565
H    -1.450545  -1.096418  2.244584
H    -0.138176  -0.701784  3.340362
O    2.091300  0.944800  2.571969
H    1.425332  1.138307  3.258480
H    -0.186119  -1.230902  -0.162146
Ba    1.426439  -4.963931  1.545075
