17
Energy: -239082.942367 eV PBE+vdW (tier 2 basis)
N    0.099986  0.471891  0.714795
C    -1.216182  -0.053203  1.267126
C    -0.956575  -0.548376  2.708590
O    -1.246498  -1.650962  3.098556
H    0.576938  1.064873  1.410156
H    0.675583  -0.378101  0.502232
H    -1.908533  0.798609  1.318109
C    -1.775500  -1.153894  0.374027
C    -0.886080  -2.379506  0.274974
O    0.394541  -2.250271  0.388949
O    -1.413420  -3.513089  0.064393
H    -1.954883  -0.775011  -0.645935
H    -2.756139  -1.463878  0.754867
O    -0.369608  0.432082  3.418382
H    -0.240811  0.144713  4.346918
H    -0.032913  1.019997  -0.145503
Ba    0.605094  -4.861873  0.388361
