17
Energy: -239082.467114 eV PBE+vdW (tier 2 basis)
N    0.543177  -1.265184  0.366176
C    -0.135193  -0.362906  1.272309
C    0.858993  0.201743  2.294807
O    0.980366  -0.172560  3.482858
H    1.080413  -2.005496  0.815414
H    1.106144  -0.798342  -0.342604
H    -0.493155  0.494185  0.682725
C    -1.347474  -1.121025  1.883004
C    -2.203008  -0.320799  2.833974
O    -1.932784  -0.229805  4.048241
O    -3.257869  0.331748  2.405822
H    -0.987260  -2.009333  2.419997
H    -1.934305  -1.480909  1.027657
O    1.658090  1.096474  1.754069
H    2.376269  1.364326  2.365561
H    -3.445165  0.186044  1.456887
Ba    -0.140240  -0.413161  5.711103
