17
Energy: -239082.243524 eV PBE+vdW (tier 2 basis)
N    -0.156845  -0.700424  0.024899
C    0.264607  -0.455130  1.383432
C    1.424000  -1.358807  1.754875
O    1.817865  -1.537102  2.949054
H    0.605486  -0.638268  -0.649523
H    -0.882987  -0.046430  -0.265344
H    0.684564  0.563592  1.576451
C    -0.974963  -0.645359  2.304468
C    -0.887194  -0.237652  3.754598
O    -1.899415  0.240077  4.341036
O    0.210471  -0.409385  4.441177
H    -1.293824  -1.701476  2.273145
H    -1.804931  -0.078749  1.864346
O    2.060302  -1.916048  0.778020
H    2.827419  -2.448380  1.089175
H    1.170949  -1.036324  3.663507
Ba    -1.027503  0.458866  6.642686
