17
Energy: -239082.934646 eV PBE+vdW (tier 2 basis)
N    0.877961  0.611782  -0.759629
C    0.694440  -0.435177  0.332545
C    1.160124  0.104615  1.697079
O    1.094269  -0.549568  2.720887
H    1.874989  0.812393  -0.932720
H    0.429676  1.508511  -0.516446
H    -0.388456  -0.615526  0.411968
C    1.391989  -1.747389  -0.059204
C    1.118290  -2.773583  1.046592
O    2.102126  -3.264398  1.676901
O    -0.095053  -2.982393  1.372668
H    2.475341  -1.618289  -0.179310
H    0.964535  -2.123053  -1.000805
O    1.619615  1.353309  1.609072
H    1.900923  1.686494  2.489017
H    0.467946  0.280669  -1.646328
Ba    0.692287  -3.328398  3.737713
