17
Energy: -239082.824383 eV PBE+vdW (tier 2 basis)
N    -0.369319  -0.450495  -0.017405
C    0.095239  0.030887  1.339599
C    1.626602  -0.165775  1.447572
O    2.165217  -1.183684  1.019107
H    0.245940  -0.164984  -0.789234
H    -1.317053  -0.105548  -0.221852
H    -0.191824  1.083368  1.455531
C    -0.594665  -0.859378  2.408922
C    -0.109468  -2.294860  2.215058
O    0.552166  -2.865202  3.120292
O    -0.242017  -2.815336  1.037644
H    -1.686789  -0.792957  2.291915
H    -0.344116  -0.508192  3.416131
O    2.339351  0.736010  2.087641
H    1.844693  1.534090  2.361756
H    -0.400491  -1.533188  0.091124
Ba    2.128533  -3.913753  1.479199
