17
Energy: -239081.753568 eV PBE+vdW (tier 2 basis)
N    0.692555  -0.076030  0.135167
C    -0.208365  -0.154988  1.255596
C    0.507899  0.622400  2.364584
O    1.524638  0.319400  2.903880
H    0.263321  -0.281721  -0.763502
H    1.562440  -0.592846  0.252604
H    -1.126723  0.379588  0.971333
C    -0.596214  -1.572713  1.762272
C    -1.694066  -1.559042  2.787494
O    -2.174832  -0.485231  3.223124
O    -2.202272  -2.667031  3.262234
H    0.285398  -2.077181  2.194628
H    -0.912418  -2.191542  0.906347
O    -0.144445  1.863724  2.708909
H    0.563794  2.399346  3.130071
H    -1.787874  -3.474690  2.894023
Ba    -2.621367  1.839360  3.725502
