17
Energy: -239082.344683 eV PBE+vdW (tier 2 basis)
N    -0.028878  -0.011851  -0.189273
C    -0.166776  -0.470206  1.224790
C    1.099594  -0.018335  1.999066
O    1.860317  0.790283  1.519825
H    0.638292  0.781101  -0.127860
H    0.518812  -0.717259  -0.698456
H    -0.994557  0.092512  1.693618
C    -0.473345  -1.964570  1.362990
C    -1.790556  -2.384636  0.751584
O    -2.477159  -1.616645  0.049026
O    -2.246131  -3.598303  0.935799
H    -0.473688  -2.232239  2.431182
H    0.324951  -2.579934  0.910176
O    1.174061  -0.582494  3.204783
H    1.955376  -0.231790  3.683896
H    -1.679210  -4.152248  1.510429
Ba    -2.477104  0.403615  -1.335574
