17
Energy: -239081.662996 eV PBE+vdW (tier 2 basis)
N    -0.515618  -0.026715  0.125488
C    -0.092653  0.024506  1.495525
C    1.367180  0.478053  1.676155
O    2.170441  0.660458  0.813062
H    0.226358  -0.345459  -0.499803
H    -0.842378  0.876583  -0.212369
H    -0.728309  0.744564  2.034147
C    -0.321016  -1.404305  2.128343
C    -0.551224  -1.492599  3.601687
O    -1.424653  -2.296903  4.073678
O    0.099869  -0.774341  4.455715
H    0.537109  -2.057443  1.888227
H    -1.186951  -1.834387  1.611898
O    1.671573  0.653026  3.031793
H    2.608764  0.927393  3.120064
H    0.792189  -0.165651  3.995415
Ba    -2.788861  -3.543981  5.501162
