17
Energy: -239082.293094 eV PBE+vdW (tier 2 basis)
N    -0.364782  0.080344  -0.046318
C    -0.150805  -0.090481  1.379763
C    1.344362  0.204692  1.556218
O    1.740123  1.367034  1.842259
H    -0.259048  -0.756311  -0.614979
H    -1.233242  0.555792  -0.277206
H    -0.666026  0.727739  1.898188
C    -0.666677  -1.403155  2.032056
C    -0.139327  -2.690143  1.479030
O    1.043538  -2.851149  1.049544
O    -0.971297  -3.684617  1.468639
H    -1.762413  -1.429074  1.967472
H    -0.430306  -1.415931  3.112435
O    2.235744  -0.721722  1.305695
H    1.641264  -1.925319  1.137081
H    -0.553420  -4.513720  1.141991
Ba    4.137697  1.150647  1.325218
