17
Energy: -239083.216581 eV PBE+vdW (tier 2 basis)
N    -0.031786  -1.086188  -0.178406
C    -0.108878  -0.389171  1.168438
C    1.198554  0.409082  1.323864
O    1.159748  1.496353  1.954854
H    0.958434  -1.377610  -0.307401
H    -0.272084  -0.444857  -0.948769
H    -0.981174  0.273176  1.165131
C    -0.210553  -1.467661  2.276239
C    0.224696  -1.013026  3.666461
O    -0.725631  -1.191114  4.558858
O    1.351383  -0.583410  3.934124
H    0.467639  -2.302057  2.031073
H    -1.232789  -1.859900  2.333428
O    2.257417  -0.179867  0.936061
H    -0.650174  -1.906828  -0.252033
H    -0.414198  -0.956552  5.460193
Ba    3.368398  0.902628  3.071886
