17
Energy: -239082.234814 eV PBE+vdW (tier 2 basis)
N    0.608298  -0.747945  -0.380888
C    0.024559  -0.190861  0.881770
C    1.084809  0.280260  1.912721
O    0.864086  0.341882  3.093146
H    1.455927  -0.196039  -0.571044
H    0.981797  -1.682958  -0.176412
H    -0.521198  0.730980  0.612626
C    -0.947184  -1.143628  1.585268
C    -2.217440  -1.435715  0.835360
O    -2.355161  -1.170092  -0.377958
O    -3.224858  -2.013770  1.437383
H    -1.177181  -0.713301  2.573454
H    -0.460905  -2.110443  1.810925
O    2.221968  0.642197  1.285887
H    2.859817  0.980359  1.949571
H    -3.074958  -2.173519  2.391873
Ba    -1.223376  -0.700409  -2.471682
