17
Energy: -239082.280658 eV PBE+vdW (tier 2 basis)
N    -0.637728  0.363789  0.317195
C    -0.010809  -0.197406  1.491380
C    1.505233  -0.202506  1.313546
O    2.055277  0.579287  0.489072
H    -1.594359  0.664936  0.500898
H    -0.117951  1.160560  -0.048213
H    -0.152690  0.395547  2.427220
C    -0.640230  -1.604920  1.723948
C    -0.339007  -2.291013  3.016811
O    0.811261  -2.306478  3.559816
O    -1.322613  -2.914607  3.580427
H    -0.336995  -2.286724  0.910574
H    -1.729690  -1.511849  1.638960
O    2.258176  -0.974387  2.048224
H    1.509722  -1.756586  2.955093
H    -1.047183  -3.382080  4.402033
Ba    4.435971  0.018762  0.895249
