17
Energy: -239083.040933 eV PBE+vdW (tier 2 basis)
N    -0.138922  2.324103  1.419116
C    0.172643  0.943883  1.951328
C    1.682827  0.755178  1.566133
O    2.204144  -0.377911  1.871274
H    -0.816450  2.336404  0.647549
H    0.841288  2.599890  1.047729
H    0.080181  0.982435  3.044465
C    -0.776168  -0.124281  1.356423
C    -0.816180  -1.422776  2.149503
O    -1.882837  -1.491106  2.921234
O    0.027135  -2.325445  2.083087
H    -0.481746  -0.363589  0.324863
H    -1.802470  0.265155  1.342070
O    2.222902  1.703463  0.998615
H    -0.457115  2.982071  2.139697
H    -1.918275  -2.346135  3.402970
Ba    2.584044  -2.686339  1.910946
