17
Energy: -239083.101175 eV PBE+vdW (tier 2 basis)
N    0.025367  -0.225761  0.065078
C    0.227276  0.023263  1.551145
C    1.755955  -0.066653  1.774948
O    2.200911  0.143969  2.929441
H    -0.658799  -0.959152  -0.156073
H    -0.253429  0.625807  -0.439795
H    -0.121103  1.039210  1.771810
C    -0.535315  -0.962078  2.455755
C    0.077841  -2.350117  2.656803
O    1.274949  -2.596701  2.503959
O    -0.711205  -3.321968  3.075037
H    -1.587892  -1.035867  2.143423
H    -0.563108  -0.507759  3.460895
O    2.447124  -0.485227  0.788529
H    0.990773  -0.514227  -0.257704
H    -1.645453  -3.058723  3.190209
Ba    3.794605  -1.828676  2.619329
