17
Energy: -239082.476733 eV PBE+vdW (tier 2 basis)
N    0.369225  0.058014  0.116339
C    -0.120814  0.121709  1.469239
C    0.973314  -0.311668  2.455055
O    1.005538  0.084641  3.639109
H    1.182332  0.648747  -0.052783
H    -0.344960  0.294785  -0.571163
H    -0.441121  1.123881  1.829433
C    -1.346729  -0.831454  1.551392
C    -2.168558  -0.823866  2.814498
O    -1.929919  -0.095477  3.795458
O    -3.205500  -1.625377  2.906735
H    -1.029645  -1.862896  1.325219
H    -2.024083  -0.550521  0.726252
O    1.868879  -1.123982  1.959914
H    2.549524  -1.353628  2.629959
H    -3.356709  -2.168540  2.106539
Ba    -0.472775  0.992630  5.441804
