 14
Energy: -19690.54654215.7 eV PBE+vdW (tier 2 basis)
N   -0.683878    0.473963   2.631398
C    0.000787   -0.538986   1.815196
C    1.476079   -0.109623   1.596123
O    1.856370    0.894733   2.405413
H   -1.411697    0.050746   3.205142
H   -1.149838    1.162396   2.036885
H    0.063969   -1.458974   2.418612
C   -0.656898   -0.881440   0.472693
S   -2.341714   -1.575542   0.612494
H   -0.012235   -1.555423  -0.101035
H   -0.781004    0.031555  -0.128671
H   -1.971008   -2.791037   1.078261
O    2.213837   -0.644896   0.799666
H    1.025231    1.109529   2.916823
