 14
Energy: -19690.44539815.7 eV PBE+vdW (tier 2 basis)
N   -0.879331   -0.491712   3.084706
C    0.039043   -0.867700   2.026509
C    1.318108   -0.057377   2.189686
O    1.372363    1.074729   2.619938
H   -0.972082    0.524180   3.132647
H   -1.797181   -0.904791   2.918027
H    0.286977   -1.934115   2.130161
C   -0.449587   -0.638087   0.565086
S   -1.987889   -1.526263   0.149559
H    0.296823   -1.019378  -0.145259
H   -0.586647    0.433219   0.367933
H   -2.843956   -0.658926   0.736438
O    2.405682   -0.732914   1.729521
H    3.162677   -0.120865   1.818047
