 14
Energy: -19690.49277315.7 eV PBE+vdW (tier 2 basis)
N   -0.221729    0.396369   0.100870
C    0.069734   -0.216526   1.381619
C    1.484895    0.072304   1.910273
O    2.301587    0.788857   1.375668
H    0.126859    1.355365   0.085049
H    0.298872   -0.105451  -0.624348
H   -0.610904    0.209349   2.142764
C   -0.230169   -1.723923   1.342242
S    0.751387   -2.668340   0.120042
H   -1.268944   -1.857642   1.015672
H   -0.116451   -2.176459   2.332036
H    1.931250   -2.609669   0.781182
O    1.717852   -0.551677   3.102367
H    2.614973   -0.280409   3.378938
