 14
Energy: -19690.40293815.7 eV PBE+vdW (tier 2 basis)
N   -0.223193   -0.017284   0.433734
C    0.077795   -0.054981   1.857030
C    1.530953   -0.442597   2.108619
O    2.211388   -0.020689   3.018225
H   -0.124349   -0.939659   0.008080
H   -1.184224    0.297560   0.294671
H   -0.031070    0.962604   2.255817
C   -0.798004   -0.997189   2.731912
S   -2.573415   -0.581169   2.716829
H   -0.497411   -0.911109   3.785231
H   -0.666885   -2.044823   2.429845
H   -2.855084   -1.100985   1.499887
O    1.970411   -1.388014   1.231062
H    2.888783   -1.592716   1.493911
