 14
Energy: -19690.47776515.7 eV PBE+vdW (tier 2 basis)
N   -0.156573   -0.860264  -0.031534
C    0.063848   -0.116288   1.197687
C    1.459764   -0.330299   1.805794
O    2.319679   -1.049550   1.348871
H    0.429684   -0.483843  -0.776321
H    0.160164   -1.823597   0.100876
H   -0.005980    0.960597   0.965220
C   -1.046818   -0.402830   2.224268
S   -1.113416   -2.130281   2.820194
H   -2.014405   -0.136767   1.784611
H   -0.895835    0.200393   3.126868
H   -1.630751   -2.662390   1.688989
O    1.637698    0.415299   2.933443
H    2.541362    0.218588   3.248598
