 14
Energy: -19690.40613915.7 eV PBE+vdW (tier 2 basis)
N   -0.755819   -0.352649   2.829254
C    0.091559   -0.778932   1.716793
C    1.487463   -0.166458   1.801640
O    2.193887    0.096849   0.852732
H   -1.570563   -0.965598   2.878656
H   -0.256034   -0.438393   3.713159
H    0.280486   -1.875762   1.706807
C   -0.546693   -0.413364   0.372276
S   -2.136050   -1.257815   0.061992
H    0.112665   -0.719870  -0.447524
H   -0.694153    0.670729   0.302456
H   -2.898088   -0.459585   0.844527
O    1.894755    0.003590   3.090891
H    2.802586    0.361255   3.040341
