 14
Energy: -19690.38199915.7 eV PBE+vdW (tier 2 basis)
N    0.131986    0.151547  -0.056068
C    0.011879   -0.071024   1.375904
C    1.362759   -0.064216   2.088212
O    1.478831   -0.057076   3.295967
H   -0.779283    0.086825  -0.509368
H    0.752465   -0.534319  -0.486282
H   -0.532562    0.788231   1.804975
C   -0.774370   -1.328806   1.828661
S   -0.043553   -2.928909   1.341668
H   -1.806723   -1.268540   1.459690
H   -0.809805   -1.359939   2.925499
H   -0.268414   -2.810143   0.012060
O    2.420337   -0.093720   1.241332
H    3.214160   -0.124212   1.810495
