 14
Energy: -19690.38414915.7 eV PBE+vdW (tier 2 basis)
N    1.588475   -1.880172   0.363230
C    0.622479   -1.080632   1.109004
C    1.387062   -0.242915   2.129174
O    2.587109   -0.065489   2.113523
H    2.510172   -1.443761   0.414549
H    1.320846   -1.961035  -0.615164
H    0.076849   -0.343815   0.484661
C   -0.441627   -2.009465   1.745308
S   -2.096340   -1.295477   2.024120
H   -0.060147   -2.475260   2.662506
H   -0.623520   -2.821439   1.030362
H   -1.735879   -0.402568   2.972537
O    0.580181    0.319913   3.068144
H    1.169339    0.842115   3.647049
