 14
Energy: -19690.37870215.7 eV PBE+vdW (tier 2 basis)
N    0.103691    0.055643  -0.135407
C   -0.020931    0.005629   1.332444
C    1.396141    0.065966   1.947646
O    2.307383    0.629574   1.129148
H    0.261253   -0.875591  -0.525085
H   -0.737900    0.430455  -0.570422
H   -0.518301    0.936883   1.649306
C   -0.824523   -1.181089   1.882095
S   -1.286568   -0.987694   3.651416
H   -0.246665   -2.109578   1.776483
H   -1.749860   -1.285685   1.305438
H   -2.621947   -1.072714   3.449899
O    1.661951   -0.332443   3.058425
H    1.815276    0.763645   0.275613
