 14
Energy: -19690.46695515.7 eV PBE+vdW (tier 2 basis)
N   -0.031768    0.138694   0.123223
C    0.028754   -0.039580   1.583139
C    1.433736   -0.473097   2.005572
O    1.848655   -1.615663   2.007928
H    0.556263    0.919519  -0.169319
H    0.314743   -0.697063  -0.351891
H   -0.192817    0.928710   2.050429
C   -1.021052   -1.063281   2.011831
S   -1.185918   -1.258776   3.819608
H   -0.818855   -2.042255   1.559212
H   -2.000759   -0.721854   1.656683
H   -0.070370   -2.003602   3.995106
O    2.221996    0.597920   2.299151
H    3.112497    0.238930   2.483436
