 14
Energy: -19690.54517015.7 eV PBE+vdW (tier 2 basis)
N    0.064491   -0.178260  -0.174397
C   -0.036824   -0.146887   1.292385
C    1.365318    0.130682   1.897123
O    2.255292    0.570000   0.988880
H    0.221472   -1.127948  -0.516262
H   -0.784812    0.169781  -0.615996
H   -0.644187    0.732521   1.558859
C   -0.663368   -1.377451   1.952958
S   -2.440986   -1.601000   1.609199
H   -0.590556   -1.272299   3.042359
H   -0.113643   -2.290498   1.683109
H   -2.322461   -1.948027   0.306245
O    1.620485   -0.004612   3.072175
H    1.745778    0.549997   0.131360
