 14
Energy: -19690.18673415.7 eV PBE+vdW (tier 2 basis)
N    0.308576   -1.440096   0.229933
C    0.038451   -0.189580   0.911394
C    1.255758    0.156317   1.783727
O    1.321293    1.440572   2.232173
H    0.978144   -1.990202   0.770860
H   -0.534334   -1.984669   0.061025
H   -0.063613    0.619047   0.157856
C   -1.272371   -0.159282   1.737822
S   -1.285361   -1.155097   3.267414
H   -2.103107   -0.460321   1.083818
H   -1.498880    0.862112   2.078381
H   -0.939648   -2.327009   2.684077
O    2.115644   -0.635760   2.077464
H    0.582446    1.958970   1.868059
