 14
Energy: -19690.37795615.7 eV PBE+vdW (tier 2 basis)
N    0.354358   -1.195064   0.099963
C    0.018646   -0.685831   1.438821
C    1.293970   -0.162854   2.095931
O    1.728383   -0.477997   3.182049
H    0.887184   -0.497932  -0.420137
H   -0.502481   -1.370379  -0.425475
H   -0.680560    0.176255   1.427642
C   -0.620996   -1.806513   2.264781
S   -1.490347   -1.259411   3.772721
H    0.120634   -2.574916   2.510631
H   -1.402550   -2.283626   1.658139
H   -0.376975   -0.929310   4.466191
O    1.910488    0.754491   1.297434
H    2.711246    1.039086   1.779310
