 14
Energy: -19690.49986415.7 eV PBE+vdW (tier 2 basis)
N   -0.627967    0.395232   2.705069
C    0.135637   -0.652283   2.002745
C    1.536656   -0.099814   1.619544
O    1.794029    1.096304   2.171713
H   -1.122085    0.027518   3.515402
H   -1.328485    0.816207   2.093532
H    0.331474   -1.470448   2.714424
C   -0.538000   -1.235993   0.760730
S   -2.089949   -2.079268   1.255238
H    0.148854   -1.945807   0.288495
H   -0.761262   -0.433960   0.042187
H   -2.402638   -2.549590   0.027184
O    2.316225   -0.701739   0.915948
H    0.948512    1.305640   2.666787
