 14
Energy: -19690.48295615.7 eV PBE+vdW (tier 2 basis)
N   -1.317684   -1.577486   0.399265
C   -0.228156   -0.612262   0.321940
C    0.978448   -1.153543   1.085037
O    1.060305   -2.273605   1.542588
H   -1.770378   -1.706187  -0.501849
H   -0.953807   -2.477301   0.716884
H    0.128612   -0.460951  -0.716809
C   -0.666696    0.770697   0.843931
S   -1.163440    0.741494   2.598517
H   -1.499177    1.134522   0.227403
H    0.156454    1.490750   0.769298
H   -1.983997   -0.326953   2.436438
O    1.982847   -0.244828   1.158237
H    2.700670   -0.674347   1.662120
