 14
Energy: -19690.38739915.7 eV PBE+vdW (tier 2 basis)
N   -0.532428    0.341020   0.787816
C    0.017615   -0.647382   1.715707
C    1.475447   -0.254050   1.976592
O    2.437844   -0.612279   1.326770
H   -1.550511    0.345084   0.841597
H   -0.281633    0.068343  -0.167290
H   -0.510486   -0.533551   2.673919
C   -0.102222   -2.128346   1.288850
S    0.361025   -2.503519  -0.439163
H   -1.158418   -2.423916   1.351394
H    0.462445   -2.778591   1.970749
H    1.663940   -2.158453  -0.309179
O    1.579998    0.582851   3.039919
H    2.524384    0.828787   3.100319
