 14
Energy: -19690.39407015.7 eV PBE+vdW (tier 2 basis)
N    1.899955   -1.877588   1.635367
C    1.089540   -0.650007   1.615448
C    1.854108    0.562205   2.191057
O    2.430248    1.355006   1.480271
H    2.318833   -2.020811   2.556292
H    2.677840   -1.782528   0.981884
H    0.922947   -0.393621   0.559534
C   -0.299491   -0.905948   2.216429
S   -0.340691   -1.445589   3.972039
H   -0.814978   -1.664512   1.616136
H   -0.900637    0.013064   2.199810
H    0.250605   -2.647810   3.774357
O    1.923857    0.660918   3.543136
H    1.346866   -0.031781   3.959241
