 14
Energy: -19690.41906015.7 eV PBE+vdW (tier 2 basis)
N    1.712073   -1.959555  -0.109785
C    0.425852   -1.264201   0.055507
C    0.604097    0.004997   0.891026
O    0.811171    1.111179   0.440913
H    2.377314   -1.364709  -0.604765
H    2.121785   -2.182359   0.799041
H    0.100320   -0.921527  -0.935086
C   -0.607435   -2.245444   0.611911
S   -2.305275   -1.583698   0.720400
H   -0.302529   -2.634564   1.591357
H   -0.670812   -3.096907  -0.077240
H   -2.106931   -0.807764   1.810493
O    0.606674   -0.253142   2.236334
H    0.808695    0.598696   2.669895
