 14
Energy: -19690.58409515.7 eV PBE+vdW (tier 2 basis)
N   -0.243953    0.225384   0.041226
C   -0.107846    0.002138   1.485122
C    1.385183    0.083305   1.883662
O    2.215862   -0.008560   0.828734
H   -1.073230   -0.267609  -0.303890
H   -0.377984    1.214663  -0.166261
H   -0.641734    0.745151   2.099896
C   -0.601519   -1.402276   1.873524
S   -2.328334   -1.762700   1.399016
H   -0.460118   -1.556240   2.948182
H   -0.014472   -2.167335   1.345029
H   -2.909792   -0.840277   2.201999
O    1.759582    0.179332   3.030272
H    1.595561   -0.043424   0.045529
