 14
Energy: -19690.31282115.7 eV PBE+vdW (tier 2 basis)
N   -0.772261   -0.932790  -0.286576
C    0.182222   -0.063944   0.393050
C    1.176474   -0.833708   1.261043
O    1.902679   -0.317288   2.082020
H   -0.324304   -1.767763  -0.657932
H   -1.223737   -0.440910  -1.056250
H    0.836519    0.507702  -0.302416
C   -0.560940    0.965725   1.247704
S   -1.724336    0.110161   2.385618
H   -1.123082    1.646406   0.594654
H    0.157155    1.548471   1.832358
H   -1.447741    0.893869   3.452347
O    1.219054   -2.160332   0.966266
H    1.902299   -2.541599   1.551116
