 14
Energy: -19690.34240615.7 eV PBE+vdW (tier 2 basis)
N    0.379595   -0.113492  -0.014196
C    0.129292   -0.007328   1.421478
C    1.491079   -0.027246   2.113073
O    2.359939   -0.838993   1.874744
H   -0.493032   -0.251379  -0.523568
H    0.985310   -0.915783  -0.198003
H   -0.354920    0.957305   1.630075
C   -0.750607   -1.148778   1.978718
S   -1.135242   -0.891885   3.760333
H   -0.226684   -2.104315   1.846144
H   -1.688155   -1.166103   1.407831
H   -1.846028   -2.031977   3.909304
O    1.615459    0.957207   3.035035
H    2.490465    0.832847   3.453828
