 14
Energy: -19690.35912115.7 eV PBE+vdW (tier 2 basis)
N   -0.014063    0.445996   0.192249
C    0.175980    0.038643   1.583291
C    1.640496   -0.303955   1.828395
O    2.277918   -0.005554   2.814357
H   -0.988206    0.699387   0.026813
H    0.225146   -0.312022  -0.447599
H   -0.046143    0.892355   2.236808
C   -0.713638   -1.156425   2.022522
S   -0.817257   -1.476413   3.819372
H   -0.421057   -2.068350   1.483817
H   -1.749616   -0.923615   1.739860
H    0.506941   -1.652085   4.036486
O    2.156403   -1.059799   0.816468
H    3.081815   -1.248394   1.065346
