 14
Energy: -19690.40063215.7 eV PBE+vdW (tier 2 basis)
N   -0.404215   -1.866900   3.314755
C    0.184107   -1.161304   2.189246
C    1.712461   -1.288303   2.108531
O    2.441793   -1.550356   3.040882
H   -0.366032   -2.874992   3.169980
H    0.129266   -1.673639   4.164939
H   -0.241123   -1.564173   1.258968
C   -0.169583    0.334049   2.261111
S   -1.994984    0.518254   2.332398
H    0.213292    0.857992   1.379145
H    0.282225    0.778712   3.159297
H   -2.022685    1.693012   1.661490
O    2.173195   -1.046811   0.849522
H    3.147285   -1.115541   0.895733
