 14
Energy: -19690.35951515.7 eV PBE+vdW (tier 2 basis)
N   -0.006319    0.317330   0.013431
C   -0.007400    0.016271   1.448033
C    1.435624    0.067496   1.950538
O    1.881124    0.866866   2.739822
H   -0.959861    0.435974  -0.328543
H    0.421686   -0.443874  -0.515348
H   -0.518292    0.841535   1.962273
C   -0.695951   -1.314379   1.811723
S   -0.603470   -1.792990   3.575291
H   -0.207123   -2.142809   1.281114
H   -1.744638   -1.280140   1.486029
H   -1.218506   -0.692986   4.069082
O    2.190448   -0.909967   1.369252
H    3.092990   -0.802376   1.726294
