 14
Energy: -19690.44317415.7 eV PBE+vdW (tier 2 basis)
N    0.666436   -0.946333   0.779576
C    0.541589   -0.147908   1.988664
C    1.828993    0.427500   2.609637
O    1.863616    1.052726   3.648706
H    1.085399   -0.398813   0.029011
H    1.299012   -1.729987   0.952119
H   -0.061961    0.743958   1.742126
C   -0.243087   -0.906464   3.070226
S    0.539323   -2.470817   3.611051
H   -1.255277   -1.118338   2.710138
H   -0.309468   -0.292570   3.975438
H    0.141672   -3.217778   2.555512
O    2.934909    0.192855   1.853329
H    3.676265    0.608320   2.336007
