 14
Energy: -19690.26124415.7 eV PBE+vdW (tier 2 basis)
N    1.763446   -1.777584   1.329784
C    0.997422   -0.569234   1.598631
C    1.935492    0.465200   2.251547
O    3.138252    0.355562   2.240912
H    2.758883   -1.545552   1.331720
H    1.520245   -2.187900   0.431493
H    0.641218   -0.078183   0.667591
C   -0.255402   -0.906602   2.432472
S    0.141924   -1.590402   4.076947
H   -0.866293   -1.623051   1.866308
H   -0.897228   -0.028128   2.602715
H    1.069282   -2.442031   3.567742
O    1.355740    1.571399   2.782050
H    0.388021    1.470509   2.787088
