 14
Energy: -19690.63393715.7 eV PBE+vdW (tier 2 basis)
N    0.299620   -0.309543  -0.270003
C    0.000721    0.069450   1.116570
C    1.307342    0.540812   1.807029
O    2.302268    0.776692   0.938148
H    0.475853   -1.319353  -0.310232
H   -0.471072   -0.095277  -0.899978
H   -0.643919    0.964430   1.096562
C   -0.709794   -0.996475   1.962487
S    0.112798   -2.630473   1.937012
H   -1.715514   -1.185714   1.565000
H   -0.805401   -0.651410   2.997715
H    1.187705   -2.267024   2.676019
O    1.405517    0.701320   3.003973
H    1.905875    0.508565   0.058697
