 14
Energy: -19690.34899015.7 eV PBE+vdW (tier 2 basis)
N   -0.377839   -2.212441   2.226601
C    0.256998   -0.972398   1.801738
C    1.790795   -0.928271   1.857614
O    2.499479   -0.364757   1.051397
H   -0.079486   -2.475905   3.166236
H   -0.140140   -2.982024   1.602797
H   -0.003215   -0.796024   0.749185
C   -0.284108    0.204530   2.627618
S   -2.114156    0.252800   2.479429
H    0.135608    1.145062   2.254649
H   -0.000667    0.086427   3.683009
H   -2.206156    1.597744   2.594927
O    2.288003   -1.584664   2.946743
H    3.257885   -1.475078   2.906057
