 14
Energy: -19690.31086215.7 eV PBE+vdW (tier 2 basis)
N    0.054765   -1.628880   0.806775
C   -0.130372   -0.204164   1.015315
C    1.092100    0.631742   1.480891
O    2.214995   -0.066679   1.776584
H    0.725987   -1.879663   0.086805
H    0.198705   -2.154121   1.668412
H   -0.412828    0.246129   0.049433
C   -1.304745    0.052755   1.972957
S   -1.106958   -0.717573   3.625656
H   -2.240340   -0.302888   1.528916
H   -1.388289    1.129654   2.156206
H   -1.641587   -1.918495   3.306787
O    1.057250    1.837040   1.563629
H    1.996317   -1.014856   1.664632
