 14
Energy: -19690.39894115.7 eV PBE+vdW (tier 2 basis)
N   -0.530834    0.817158   0.850148
C   -0.002694   -0.003210   1.927031
C    1.472303   -0.376450   1.733312
O    2.035750   -0.455388   0.661875
H   -0.250800    1.789788   0.967393
H   -0.134968    0.504646  -0.039429
H   -0.092975    0.540741   2.876994
C   -0.804253   -1.322034   2.048856
S   -2.526951   -1.095966   2.606842
H   -0.302088   -2.034223   2.713891
H   -0.872558   -1.787027   1.056012
H   -2.255937   -1.135814   3.931489
O    2.087667   -0.652349   2.917100
H    3.001336   -0.920875   2.695484
