 14
Energy: -19690.44606615.7 eV PBE+vdW (tier 2 basis)
N   -1.229593    0.553726   1.505240
C   -0.269670   -0.450053   1.954962
C    1.131674    0.068695   2.294105
O    1.819457   -0.328787   3.209587
H   -0.823602    1.141605   0.776327
H   -1.502348    1.166476   2.272011
H   -0.650502   -0.905913   2.878071
C   -0.125465   -1.564468   0.898073
S   -1.676071   -2.485335   0.634675
H    0.611929   -2.304948   1.232619
H    0.228093   -1.138697  -0.051741
H   -2.434827   -1.365670   0.535750
O    1.552500    1.027808   1.416359
H    2.458425    1.266560   1.692962
