 14
Energy: -19690.35074715.7 eV PBE+vdW (tier 2 basis)
N    0.207057   -0.806308  -0.385574
C    0.078320   -0.126481   0.890132
C    1.453716   -0.123697   1.578008
O    1.595647    0.747555   2.603883
H    0.975240   -1.478827  -0.334848
H   -0.648594   -1.285966  -0.658470
H   -0.211596    0.928206   0.728154
C   -1.001556   -0.763494   1.803021
S   -1.441182    0.194054   3.311391
H   -0.723547   -1.785592   2.087997
H   -1.938712   -0.818953   1.233256
H   -0.579472   -0.417170   4.155449
O    2.361925   -0.850262   1.245655
H    0.715755    1.137938   2.814943
