 14
Energy: -19690.42795615.7 eV PBE+vdW (tier 2 basis)
N    1.198534   -2.076529   2.010192
C    0.780648   -0.789272   1.484635
C    1.486105    0.313105   2.270541
O    2.449977    0.147102   2.985730
H    0.994714   -2.817173   1.341804
H    2.194902   -2.070359   2.224059
H    1.092261   -0.603356   0.431429
C   -0.750713   -0.656812   1.532853
S   -1.615891   -1.903118   0.509459
H   -1.077936    0.344877   1.237744
H   -1.095194   -0.852652   2.556572
H   -1.347198   -1.330188  -0.687322
O    0.943214    1.539516   2.034939
H    1.489578    2.173862   2.538364
