 14
Energy: -19690.54798015.7 eV PBE+vdW (tier 2 basis)
N    0.299308   -0.477506  -0.112831
C    0.033491    0.038628   1.234450
C    1.356292    0.570236   1.847475
O    2.329676    0.734148   0.936765
H    0.524071   -1.475811  -0.057213
H   -0.499871   -0.363828  -0.733677
H   -0.600521    0.935650   1.130930
C   -0.676524   -0.913878   2.207578
S    0.117152   -2.560084   2.343858
H   -1.728262   -1.051550   1.932818
H   -0.636245   -0.481727   3.214389
H   -0.604806   -3.172743   1.378223
O    1.478676    0.847692   3.019348
H    1.920604    0.390645   0.093211
