 14
Energy: -19690.42266515.7 eV PBE+vdW (tier 2 basis)
N    0.099682    0.336416   0.029741
C    0.036711   -0.011741   1.437818
C    1.458542   -0.172543   1.962458
O    2.452831   -0.242345   1.275218
H    0.922332   -0.083957  -0.403922
H   -0.737662    0.052215  -0.474324
H   -0.413630    0.825706   2.003123
C   -0.815193   -1.255126   1.794064
S   -0.140011   -2.866206   1.263870
H   -1.826301   -1.121088   1.385158
H   -0.910332   -1.341633   2.884241
H   -0.064447   -2.575314  -0.056477
O    1.481110   -0.239716   3.320062
H    2.414831   -0.383158   3.567724
