 14
Energy: -19690.50535215.7 eV PBE+vdW (tier 2 basis)
N   -1.028243    0.281993   2.682750
C   -0.086660   -0.601128   2.009327
C    1.333918   -0.028613   1.958981
O    1.613081    1.148932   2.044547
H   -0.939958    0.196945   3.694127
H   -0.807127    1.253343   2.451430
H   -0.054715   -1.564863   2.535617
C   -0.543862   -0.871817   0.557753
S   -2.150130   -1.727587   0.480936
H    0.173375   -1.526157   0.047433
H   -0.594847    0.076456   0.003768
H   -2.740636   -0.885549   1.365412
O    2.266189   -1.001620   1.769236
H    3.129617   -0.547335   1.707684
