 14
Energy: -19690.31024615.7 eV PBE+vdW (tier 2 basis)
N    0.224948   -1.726045   1.133195
C    0.141186   -0.303933   1.434057
C    1.520631    0.386828   1.440835
O    1.525185    1.732397   1.204828
H    0.346781   -1.873183   0.132043
H    1.060786   -2.107898   1.584062
H   -0.507867    0.170617   0.680667
C   -0.507339   -0.096664   2.821593
S   -2.234372   -0.674531   2.879627
H   -0.537228    0.967349   3.091530
H    0.093118   -0.614084   3.582778
H   -1.945235   -1.864500   2.296017
O    2.554677   -0.190301   1.675582
H    0.622729    2.033951   0.999188
