 14
Energy: -19690.41163015.7 eV PBE+vdW (tier 2 basis)
N   -0.192739    0.579567   0.237204
C   -0.005490   -0.165649   1.487161
C    1.485263   -0.497817   1.560002
O    2.027385   -1.348915   0.883729
H   -0.005234   -0.022502  -0.566368
H   -1.153151    0.913411   0.159437
H   -0.249358    0.501511   2.324063
C   -0.844712   -1.450614   1.591100
S   -0.694887   -2.348724   3.180342
H   -0.603869   -2.130802   0.763994
H   -1.908452   -1.187596   1.514972
H    0.518482   -2.892781   2.931934
O    2.146889    0.282261   2.446255
H    3.088033    0.021762   2.391512
