 14
Energy: -19690.38861415.7 eV PBE+vdW (tier 2 basis)
N    2.029530   -2.140654   1.713957
C    1.145291   -0.969362   1.596069
C    1.881055    0.246478   2.209041
O    2.605073    0.935418   1.523783
H    2.989936   -1.878195   1.489752
H    1.756149   -2.856140   1.038458
H    0.975219   -0.669363   0.546055
C   -0.237056   -1.296850   2.182357
S   -0.198770   -1.882997   3.921361
H   -0.721390   -2.065175   1.564030
H   -0.881732   -0.408784   2.170189
H    0.893075   -2.666288   3.705807
O    1.711958    0.493238   3.520364
H    1.125662   -0.208327   3.922773
