 14
Energy: -19690.46822315.7 eV PBE+vdW (tier 2 basis)
N   -0.423275    0.092835  -0.950443
C   -0.523160    0.031012   0.501549
C    0.798354   -0.063212   1.285878
O    0.943183   -0.597055   2.366499
H    0.261898    0.790619  -1.236712
H   -0.097793   -0.813716  -1.296087
H   -0.973445    0.981404   0.848906
C   -1.481251   -1.085893   0.927644
S   -0.993985   -2.759228   0.363844
H   -2.455094   -0.905363   0.457829
H   -1.609846   -1.099547   2.014156
H   -0.008023   -2.937427   1.273401
O    1.815449    0.578338   0.645993
H    2.591546    0.502955   1.234626
