 14
Energy: -19690.27028415.7 eV PBE+vdW (tier 2 basis)
N    0.135780   -1.562139   0.898107
C    0.129363   -0.262779   1.537668
C    1.570673    0.261532   1.594039
O    1.722914    1.613501   1.507993
H   -0.700299   -2.084657   1.167819
H    0.962699   -2.080366   1.202819
H   -0.484334    0.432280   0.933085
C   -0.420581   -0.230409   2.993276
S   -2.095600   -0.932126   3.163156
H   -0.403700    0.785969   3.410943
H    0.210365   -0.864940   3.631165
H   -2.746457    0.038170   2.478504
O    2.529741   -0.450448   1.765322
H    0.864435    2.024412   1.304103
