18
Energy: -566800.013002 eV PBE+vdW (tier 2 basis)
N    -0.078628  0.120444  -0.382006
C    -0.454753  0.290909  0.960962
C    0.807949  0.519178  1.909156
O    0.675607  0.629704  3.109517
H    0.038900  0.927193  -0.992942
H    0.358163  -0.742449  -0.703368
H    -1.012344  1.237622  1.055364
C    -1.326836  -0.910206  1.452730
C    -2.331193  -0.625494  2.571194
O    -3.482938  -1.159796  2.606628
N    -1.993594  0.169000  3.567073
H    -0.698991  -1.750270  1.792685
H    -1.899561  -1.262077  0.586575
H    -1.009677  0.478706  3.660419
H    -2.651671  0.348427  4.326741
O    1.930450  0.586729  1.228513
H    2.696189  0.762087  1.823817
Hg    -4.670552  -2.613918  1.244091
