18
Energy: -566800.512769 eV PBE+vdW (tier 2 basis)
N    0.643117  -1.854751  -2.880519
C    1.334413  -2.547812  -1.724823
C    2.863565  -2.403333  -2.131245
O    3.836548  -2.763074  -1.330769
H    1.471293  -1.620486  -3.523123
H    0.170602  -0.982085  -2.608954
H    1.147863  -1.935184  -0.831342
C    0.819951  -4.011943  -1.517429
C    0.426629  -4.401494  -0.088458
O    1.222810  -4.331537  0.914652
N    -0.784378  -4.875160  0.128913
H    1.581227  -4.739423  -1.846164
H    -0.040530  -4.196248  -2.173675
H    -1.483443  -4.969197  -0.603045
H    -1.038980  -5.201083  1.063506
O    3.101506  -1.912536  -3.222986
H    -0.028057  -2.438252  -3.395409
Hg    3.241866  -3.670404  0.463872
