18
Energy: -566800.043344 eV PBE+vdW (tier 2 basis)
N    0.169462  0.795999  0.626934
C    0.306970  0.040646  1.761511
C    1.799637  -0.004816  2.310490
O    2.195454  -1.030658  2.796758
H    -0.387828  0.489816  -0.170274
H    0.612696  1.712328  0.551901
H    -0.174904  0.637242  2.706902
C    -0.345358  -1.343041  1.680887
C    -0.470776  -2.160188  2.973605
O    -0.962502  -1.702662  4.050376
N    -0.134462  -3.435235  2.918322
H    0.222941  -1.940026  0.955031
H    -1.367195  -1.228260  1.283419
H    0.231107  -3.868520  2.074244
H    -0.268606  -4.031320  3.735647
O    2.405022  1.153135  2.141356
H    3.336799  1.122565  2.457208
Hg    -1.335460  0.540996  4.408684
