18
Energy: -566799.89937 eV PBE+vdW (tier 2 basis)
N    0.074257  0.178730  -0.138799
C    -0.030327  -0.261084  1.211729
C    1.303211  -0.047520  2.044742
O    1.560690  -0.782140  2.967983
H    0.685474  -0.342531  -0.771032
H    0.106368  1.186834  -0.302989
H    -0.749824  0.392837  1.735960
C    -0.463822  -1.741916  1.350516
C    -1.823599  -2.086467  0.783806
O    -2.541354  -3.071530  1.190023
N    -2.335651  -1.351593  -0.183191
H    -0.457980  -1.987319  2.422806
H    0.277063  -2.405918  0.872980
H    -1.801139  -0.543703  -0.532965
H    -3.239672  -1.583367  -0.597553
O    1.986252  0.994386  1.610563
H    2.784204  1.153026  2.165104
Hg    -2.031152  -4.758729  2.558317
