18
Energy: -566800.360422 eV PBE+vdW (tier 2 basis)
N    0.662797  -1.878839  -2.733771
C    1.354044  -2.609410  -1.682160
C    2.882693  -2.464386  -2.049166
O    3.868281  -2.889370  -1.372607
H    0.163690  -1.043770  -2.425296
H    0.069615  -2.432814  -3.351552
H    1.234756  -2.066452  -0.728465
C    0.892257  -4.103906  -1.521490
C    0.479537  -4.535505  -0.117520
O    1.289916  -4.560600  0.885130
N    -0.753632  -4.939280  0.098491
H    1.676751  -4.809158  -1.846030
H    0.056120  -4.280924  -2.208525
H    -1.458864  -4.963086  -0.634067
H    -1.027575  -5.275166  1.024216
O    3.095128  -1.817730  -3.122280
H    2.109323  -1.570264  -3.415514
Hg    3.298254  -3.933365  0.428271
