18
Energy: -566799.732006 eV PBE+vdW (tier 2 basis)
N    -0.300777  0.418448  -0.095096
C    0.012238  0.165889  1.347438
C    1.397005  -0.536577  1.361196
O    2.051697  -0.623590  0.345371
H    0.595259  0.439124  -0.621593
H    -0.834350  1.281710  -0.254918
H    0.171202  1.129616  1.862679
C    -1.114246  -0.551369  2.079916
C    -1.535755  -1.902594  1.383172
O    -1.837781  -2.724064  2.374956
N    -1.531585  -1.950414  0.121920
H    -2.046067  0.036849  2.090654
H    -0.823568  -0.719138  3.122398
H    -0.856227  -0.439378  -0.420479
H    -1.828053  -2.795613  -0.376665
O    1.721009  -0.950792  2.576048
H    2.634267  -1.313713  2.579239
Hg    -2.726264  -4.622394  2.062762
