18
Energy: -566801.012339 eV PBE+vdW (tier 2 basis)
N    -1.276783  -0.415322  0.670757
C    -0.158331  -0.070460  1.578905
C    1.149312  0.095382  0.768746
O    1.386759  -0.487435  -0.294531
H    -1.565333  0.375229  0.082800
H    -2.102336  -0.750214  1.177856
H    -0.349739  0.916171  2.031784
C    -0.001482  -1.081465  2.746137
C    0.434485  -2.520056  2.465168
O    0.329989  -3.129750  1.348634
N    0.918646  -3.196766  3.493281
H    -0.964955  -1.134051  3.281484
H    0.701007  -0.636815  3.465212
H    1.029050  -2.789903  4.418720
H    1.167364  -4.179538  3.378075
O    1.976825  0.919365  1.357481
H    2.820852  1.015918  0.858544
Hg    -0.302330  -2.142288  -0.561054
