18
Energy: -566800.298807 eV PBE+vdW (tier 2 basis)
N    -0.505653  0.934877  0.782268
C    -0.119420  0.290791  1.953901
C    1.441141  0.351432  2.181442
O    1.904567  0.109099  3.273894
H    -0.072212  0.717883  -0.114819
H    -1.192508  1.687101  0.789755
H    -0.590078  0.775123  2.818595
C    -0.546181  -1.259019  1.917015
C    -0.662351  -2.004739  3.255096
O    -1.505166  -2.945252  3.143693
N    0.044403  -1.698100  4.318477
H    0.130745  -1.844485  1.274803
H    -1.539507  -1.292608  1.456189
H    0.777083  -0.975602  4.263965
H    -0.036510  -2.236624  5.178984
O    2.094866  0.674917  1.084423
H    3.064791  0.707908  1.248902
Hg    -2.280567  -4.549116  4.647303
