18
Energy: -566800.566775 eV PBE+vdW (tier 2 basis)
N    0.611770  -0.854313  -0.386481
C    0.043367  -0.283745  0.902978
C    1.307317  0.199228  1.653787
O    2.404234  -0.090217  1.211700
H    0.642810  -0.131935  -1.117971
H    1.608659  -1.097553  -0.175460
H    -0.576947  0.585960  0.644841
C    -0.753077  -1.279115  1.789157
C    -2.157186  -1.673209  1.350538
O    -2.403747  -2.345141  0.279238
N    -3.179040  -1.363289  2.120270
H    -0.808694  -0.820361  2.784886
H    -0.178417  -2.212512  1.921772
H    -3.068235  -0.859634  2.997347
H    -4.121911  -1.663585  1.865430
O    1.026792  0.895264  2.736332
H    1.848084  1.205436  3.180265
Hg    -0.709925  -2.496006  -1.093584
