18
Energy: -566799.827375 eV PBE+vdW (tier 2 basis)
N    3.807662  1.521582  -0.340018
C    4.273162  1.414592  1.076941
C    5.839461  1.404659  1.102312
O    6.460769  1.424626  0.067288
H    3.884785  2.481071  -0.701994
H    4.360549  0.917232  -0.966677
H    3.950805  2.323930  1.605446
C    3.727322  0.161815  1.765767
C    2.149368  0.069868  1.664824
O    1.774238  -0.527422  2.774406
N    1.575318  0.511619  0.625893
H    4.034942  0.167686  2.815807
H    4.091563  -0.773417  1.311616
H    2.768376  1.206416  -0.305087
H    0.562892  0.390163  0.520719
O    6.289110  1.390253  2.343690
H    7.272293  1.414624  2.356606
Hg    -0.228618  -1.157297  3.170460
