18
Energy: -566800.016987 eV PBE+vdW (tier 2 basis)
N    0.594198  -0.012604  0.204774
C    -0.026237  0.040543  1.503186
C    0.988043  0.212813  2.634711
O    0.835834  -0.152306  3.815331
H    -0.032096  0.186750  -0.576011
H    1.478823  0.484126  0.102642
H    -0.648057  0.958082  1.627315
C    -1.001407  -1.161575  1.681220
C    -0.327420  -2.509376  1.766420
O    -0.321443  -3.214212  2.848959
N    0.268378  -3.023411  0.709692
H    -1.692614  -1.153164  0.825275
H    -1.633702  -1.018008  2.566770
H    0.206234  -2.571286  -0.202104
H    0.742953  -3.926676  0.769873
O    2.039619  0.905326  2.265828
H    2.642793  1.091276  3.020984
Hg    -0.154901  -2.092298  4.717138
