26
Energy: -608771.859219 eV PBE+vdW (tier 2 basis)
C    0.853054  -0.645460  0.088033
C    0.232518  -0.366490  1.412029
O    0.948380  0.025778  2.381919
H    0.126502  -0.948246  -0.673321
H    1.609602  -1.433906  0.205902
H    1.385548  0.253998  -0.251096
N    -1.112016  -0.534195  1.552002
C    -1.697771  -0.222234  2.838272
C    -1.616976  -1.384787  3.843379
O    -0.735040  -1.291068  4.766428
H    -1.655178  -0.853072  0.754227
H    -0.934699  0.456002  3.213268
C    -2.906490  0.705653  2.963300
C    -2.597359  1.709004  4.085819
O    -3.637810  2.450072  4.382145
O    -1.494747  1.826441  4.644257
H    -3.863306  0.216356  3.184501
H    -3.057853  1.286731  2.039847
N    -2.395532  -2.446774  3.779580
C    -3.442030  -2.763460  2.807583
H    -2.217526  -3.149085  4.501858
H    -4.385016  -2.953536  3.334192
H    -3.162858  -3.663543  2.245809
H    -3.591051  -1.936824  2.107889
H    -3.421538  3.105484  5.081197
Pb    0.742192  0.476163  4.728984
