26
Energy: -608771.716726 eV PBE+vdW (tier 2 basis)
C    0.427561  -0.892471  0.159026
C    0.280751  -0.824476  1.639142
O    1.285314  -1.094579  2.380621
H    0.776719  -1.893801  -0.127616
H    1.212274  -0.184939  -0.147026
H    -0.496595  -0.658561  -0.379564
N    -0.896695  -0.456669  2.163601
C    -1.137017  -0.211679  3.589284
C    -1.292319  -1.552854  4.349807
O    -0.233342  -2.064989  4.878572
H    -1.642357  -0.234045  1.507185
H    -0.208308  0.207263  4.001993
C    -2.215769  0.855755  3.803722
C    -2.434656  1.025745  5.299730
O    -3.259340  2.031789  5.573134
O    -1.895478  0.294281  6.113106
H    -3.172010  0.627313  3.314321
H    -1.873815  1.808501  3.373880
N    -2.399999  -2.264098  4.399385
C    -3.749337  -1.962776  3.913587
H    -2.301176  -3.129721  4.932967
H    -4.300352  -2.906078  3.857827
H    -3.723140  -1.530287  2.908839
H    -4.275311  -1.293857  4.606668
H    -3.368992  2.112405  6.544309
Pb    1.923110  -1.873328  4.395497
