26
Energy: -608771.287517 eV PBE+vdW (tier 2 basis)
C    0.768858  -0.692895  0.250437
C    0.442507  -0.558646  1.696602
O    1.354483  -0.697409  2.585565
H    1.208908  -1.685395  0.076266
H    1.532912  0.047468  -0.024992
H    -0.102458  -0.567800  -0.400968
N    -0.818549  -0.306536  2.068892
C    -1.173157  -0.163302  3.477817
C    -2.650089  -0.256079  3.935032
O    -2.883311  0.230286  5.068803
H    -1.506881  -0.138469  1.339602
H    -0.690417  -1.015310  3.986809
C    -0.576490  1.170075  4.041516
C    0.003754  0.865212  5.400211
O    -0.792127  0.612235  6.359214
O    1.268209  0.761940  5.560629
H    -1.358477  1.935272  4.121887
H    0.202823  1.552486  3.377539
N    -3.619980  -0.846957  3.241989
C    -3.597976  -1.573344  1.969930
H    -4.515476  -0.818053  3.732666
H    -4.477966  -2.223059  1.942656
H    -2.715343  -2.216804  1.889853
H    -3.668654  -0.892565  1.109235
H    -1.788064  0.539052  5.928347
Pb    2.811003  -0.165347  4.244168
