26
Energy: -608772.38294 eV PBE+vdW (tier 2 basis)
C    0.483733  -2.248890  1.565198
C    0.160781  -0.873595  2.051981
O    1.100183  -0.060835  2.283781
H    1.093589  -2.165443  0.654931
H    -0.397559  -2.863540  1.354464
H    1.106758  -2.753719  2.316556
N    -1.142540  -0.556717  2.197428
C    -1.790010  0.713547  2.574831
C    -1.061307  1.976468  2.057975
O    -0.200577  2.594967  2.755748
H    -1.790690  -1.299976  1.947304
H    -2.747250  0.691867  2.034269
C    -2.220553  0.797425  4.062980
C    -1.217066  0.521493  5.165666
O    -1.680632  0.216990  6.358176
O    0.014719  0.569604  5.046598
H    -3.066450  0.106454  4.198140
H    -2.633178  1.803596  4.253256
N    -1.444149  2.425926  0.873231
C    -0.915177  3.619144  0.207348
H    -2.176670  1.918756  0.380772
H    -0.368125  3.324613  -0.697044
H    -0.251464  4.151207  0.891624
H    -1.750669  4.269525  -0.076287
H    -2.655677  0.167737  6.409639
Pb    1.634982  1.621397  3.733436
