26
Energy: -608772.585481 eV PBE+vdW (tier 2 basis)
C    0.102181  0.636257  -0.969768
C    -0.343696  -0.464001  -0.062023
O    -0.014265  -1.655536  -0.326008
H    1.198910  0.613773  -1.036440
H    -0.218958  1.632580  -0.648908
H    -0.278832  0.439590  -1.981253
N    -1.067127  -0.120599  1.022396
C    -1.594304  -0.945211  2.126618
C    -0.624358  -2.047280  2.609461
O    -0.659742  -3.229965  2.147731
H    -1.245722  0.876282  1.118583
H    -1.668062  -0.239190  2.965646
C    -3.055201  -1.425343  1.936410
C    -3.493208  -2.083227  0.648562
O    -4.745792  -1.800819  0.372309
O    -2.823016  -2.831355  -0.084654
H    -3.724060  -0.569327  2.093096
H    -3.303732  -2.136089  2.743931
N    0.197773  -1.716230  3.591994
C    1.171097  -2.610750  4.224072
H    0.145454  -0.769225  3.961952
H    1.002071  -2.614550  5.307239
H    2.187383  -2.250203  4.021730
H    1.044869  -3.620622  3.829121
H    -5.052334  -2.287674  -0.424355
Pb    -0.682895  -3.821226  -0.058559
