26
Energy: -608770.778421 eV PBE+vdW (tier 2 basis)
C    -1.562710  1.759086  0.551808
C    -0.363676  0.995398  1.055786
O    0.770570  1.409078  1.060399
H    -1.247859  2.786420  0.348606
H    -2.389252  1.779189  1.277007
H    -1.934013  1.329550  -0.391299
N    -0.593810  -0.311550  1.588079
C    -1.803273  -1.093214  1.485857
C    -2.689176  -0.929192  2.746312
O    -3.929549  -1.290155  2.759130
H    0.286777  -0.798185  1.755008
H    -2.412877  -0.722875  0.644046
C    -1.411919  -2.568540  1.202528
C    -2.444186  -3.508986  0.630301
O    -2.073708  -4.706587  0.259064
O    -3.652411  -3.234559  0.453813
H    -0.993870  -3.044774  2.106342
H    -0.584458  -2.537681  0.472960
N    -2.137756  -0.372258  3.793442
C    -2.760461  -0.094710  5.086145
H    -1.169025  -0.070182  3.633386
H    -2.207319  -0.623013  5.872530
H    -3.801146  -0.424891  5.077164
H    -2.709336  0.983069  5.283856
H    -1.117092  -4.887616  0.367283
Pb    -5.426634  -2.194653  1.419715
