26
Energy: -608772.505885 eV PBE+vdW (tier 2 basis)
C    -1.068653  0.246241  0.161960
C    -0.777886  0.054374  1.614666
O    0.415464  0.119196  2.026112
H    -0.670702  1.221608  -0.151171
H    -2.133736  0.193915  -0.086465
H    -0.523828  -0.514670  -0.413666
N    -1.823749  -0.159775  2.439219
C    -1.837389  -0.324553  3.902501
C    -0.846975  0.611237  4.622496
O    0.287908  0.198746  5.027242
H    -2.737043  -0.180973  1.991564
H    -2.834574  0.025877  4.203571
C    -1.804526  -1.791948  4.395165
C    -0.798528  -2.772096  3.838293
O    -1.304913  -3.980739  3.752925
O    0.380461  -2.542141  3.514439
H    -2.795729  -2.233291  4.230922
H    -1.663418  -1.795673  5.490054
N    -1.228224  1.850521  4.885263
C    -2.510189  2.503952  4.591740
H    -0.538309  2.398782  5.402022
H    -3.315592  2.091111  5.213774
H    -2.764114  2.417518  3.529380
H    -2.407435  3.566096  4.830548
H    -0.626978  -4.630316  3.462645
Pb    1.847659  -0.700999  3.619800
