26
Energy: -608771.806611 eV PBE+vdW (tier 2 basis)
C    -0.026261  -0.043667  0.035443
C    0.074416  -0.081954  1.520194
O    1.233167  -0.249477  2.058654
H    0.605110  0.776191  -0.337390
H    -1.052715  0.101221  -0.315651
H    0.382199  -0.972664  -0.385221
N    -1.024907  0.081134  2.245810
C    -1.091567  0.220759  3.702332
C    -0.960636  -1.168235  4.373795
O    0.229345  -1.558095  4.677098
H    -1.956044  0.233835  1.793001
H    -0.177596  0.735898  4.033506
C    -2.266222  1.135675  4.122359
C    -3.527232  1.097642  3.269935
O    -4.559221  1.614161  3.923907
O    -3.574399  0.679713  2.118457
H    -1.910420  2.176814  4.066451
H    -2.522889  0.979195  5.177558
N    -1.959197  -1.980484  4.652365
C    -3.401873  -1.858654  4.405515
H    -1.657427  -2.845638  5.105869
H    -3.838661  -2.853965  4.525840
H    -3.596891  -1.519329  3.384024
H    -3.871406  -1.187894  5.135723
H    -5.336992  1.666086  3.327212
Pb    2.260598  -1.137277  3.807403
