26
Energy: -608771.284367 eV PBE+vdW (tier 2 basis)
C    0.523173  -0.147706  -0.844700
C    0.065579  0.468605  0.431475
O    0.917687  0.566157  1.404145
H    1.390696  0.403184  -1.232936
H    -0.263271  -0.176372  -1.605173
H    0.864850  -1.172418  -0.636838
N    -1.186730  0.867381  0.541663
C    -1.946607  1.298919  1.712771
C    -3.358718  0.651283  1.442690
O    -3.598946  0.337711  0.274587
H    -1.879753  0.602199  -0.196224
H    -1.483326  0.918986  2.632023
C    -2.136365  2.830373  1.758455
C    -0.897148  3.654965  1.997497
O    -0.846950  4.899180  1.596594
O    0.099797  3.229108  2.619241
H    -2.829011  3.088915  2.579245
H    -2.631355  3.161194  0.832722
N    -4.223009  0.511096  2.456500
C    -4.064277  0.833453  3.870509
H    -5.123091  0.128024  2.167252
H    -4.554353  0.059081  4.470733
H    -4.521887  1.801497  4.119598
H    -3.006922  0.846679  4.157138
H    -1.655251  5.197029  1.130704
Pb    1.813824  1.772514  2.969181
