26
Energy: -608770.927708 eV PBE+vdW (tier 2 basis)
C    0.225536  0.915557  0.374440
C    0.084515  0.353913  1.745796
O    1.067342  -0.310586  2.240108
H    1.113223  1.561255  0.331087
H    -0.653502  1.482079  0.049564
H    0.402060  0.087749  -0.328327
N    -1.057875  0.532886  2.413834
C    -1.414441  -0.079863  3.693527
C    -2.647149  -1.054898  3.707000
O    -2.465523  -2.085459  4.341172
H    -1.786543  1.037671  1.912336
H    -0.626015  -0.806648  3.916615
C    -1.491011  0.920358  4.858651
C    -0.151545  1.396079  5.374673
O    -0.074741  2.468806  6.117054
O    0.923611  0.792291  5.168500
H    -1.980819  0.415519  5.711738
H    -2.121429  1.786972  4.611746
N    -3.803989  -0.722524  3.096519
C    -4.173325  0.489626  2.375491
H    -4.512932  -1.450886  3.172564
H    -5.264426  0.579809  2.382236
H    -3.858708  0.465184  1.319950
H    -3.791900  1.394670  2.868980
H    -0.936633  2.905563  6.274613
Pb    2.086415  -0.874305  4.116169
