26
Energy: -608771.846774 eV PBE+vdW (tier 2 basis)
C    -0.232832  -0.308947  0.350993
C    -0.478632  -0.693370  1.769616
O    0.413125  -0.469117  2.645202
H    0.101835  0.735824  0.310968
H    -1.106595  -0.441057  -0.295352
H    0.592244  -0.925082  -0.036646
N    -1.650293  -1.276947  2.079121
C    -2.057864  -1.830676  3.377936
C    -1.986096  -0.783382  4.505175
O    -0.980739  -0.711253  5.291415
H    -2.281361  -1.450810  1.300607
H    -3.122069  -2.065151  3.254974
C    -1.380323  -3.182194  3.766944
C    0.019353  -3.415366  3.248912
O    1.027442  -3.101147  4.212132
O    0.324980  -3.836287  2.176075
H    -1.974365  -3.986269  3.314654
H    -1.417905  -3.307792  4.855463
N    -3.019047  0.015043  4.702215
C    -4.295631  0.064244  3.975691
H    -2.912030  0.656907  5.490041
H    -4.865203  0.915420  4.358583
H    -4.883969  -0.846161  4.149895
H    -4.132983  0.217465  2.902852
H    1.857644  -3.500028  3.865397
Pb    1.214312  -0.652866  4.771138
