26
Energy: -608771.290405 eV PBE+vdW (tier 2 basis)
C    0.223174  0.578036  0.109649
C    0.133041  0.195739  1.553323
O    0.943125  0.563966  2.412430
H    -0.509268  0.073560  -0.529795
H    1.237505  0.373949  -0.253975
H    0.071308  1.664328  0.032796
N    -0.930613  -0.607711  1.929575
C    -1.191036  -0.854989  3.338104
C    -0.266367  -1.965448  3.905104
O    -0.707498  -3.118898  4.304304
H    -1.525574  -1.023965  1.219358
H    -0.884179  0.067197  3.862353
C    -2.706450  -1.091319  3.553332
C    -3.133155  -1.002442  5.001172
O    -3.571721  0.120258  5.505545
O    -3.080635  -1.972428  5.793338
H    -3.009295  -2.072747  3.161256
H    -3.239288  -0.330245  2.967125
N    1.004766  -1.665392  3.915413
C    2.107050  -2.525078  4.334320
H    1.214093  -0.718930  3.496259
H    2.888205  -2.489268  3.566200
H    1.764647  -3.554333  4.464176
H    2.530631  -2.145719  5.273711
H    -3.643143  0.848167  4.855486
Pb    -2.113246  -4.045886  5.703648
