26
Energy: -608771.40274 eV PBE+vdW (tier 2 basis)
C    -1.384783  -1.707116  1.758856
C    -0.275901  -0.750391  1.999334
O    0.927575  -1.074149  1.691715
H    -1.066190  -2.682507  2.158363
H    -1.538148  -1.861103  0.680179
H    -2.324973  -1.415697  2.235297
N    -0.487718  0.460769  2.554377
C    -1.545569  1.369001  2.117853
C    -1.063846  1.995338  0.767586
O    0.084401  1.667604  0.264770
H    0.364352  0.925619  2.873504
H    -2.438900  0.770069  1.887561
C    -1.889789  2.368468  3.242944
C    -3.243505  3.045295  3.071995
O    -3.719154  3.466570  4.233402
O    -3.811220  3.186390  1.995047
H    -1.128966  3.161024  3.328410
H    -1.889312  1.830174  4.199987
N    -1.871309  2.828039  0.171464
C    -1.646019  3.504158  -1.103901
H    -2.759603  3.026324  0.702986
H    -1.806684  4.579848  -0.964836
H    -2.372948  3.137192  -1.839923
H    -0.630112  3.322388  -1.460067
H    -4.571097  3.933327  4.093199
Pb    1.904903  0.352663  0.216880
