26
Energy: -608771.920802 eV PBE+vdW (tier 2 basis)
C    0.510201  -0.553268  0.057012
C    0.088343  -0.188050  1.436881
O    0.074455  1.027424  1.798832
H    1.540462  -0.207068  -0.106099
H    -0.121370  -0.013234  -0.662116
H    0.451488  -1.628696  -0.140991
N    -0.287791  -1.179859  2.290096
C    -0.733097  -0.799443  3.613692
C    0.427158  -0.621032  4.612695
O    0.811457  0.571114  4.861660
H    -0.268775  -2.143648  1.966747
H    -1.040952  0.224974  3.411734
C    -2.044835  -1.325270  4.191260
C    -2.741691  -0.130783  4.864258
O    -3.789874  -0.500337  5.560843
O    -2.375310  1.049773  4.753524
H    -1.957789  -2.143174  4.918076
H    -2.713719  -1.683905  3.392811
N    0.997862  -1.670606  5.170369
C    2.129871  -1.629981  6.104892
H    0.635268  -2.591447  4.930949
H    2.397830  -0.589693  6.300112
H    2.983720  -2.158867  5.664691
H    1.843076  -2.123704  7.040676
H    -4.244389  0.274523  5.958350
Pb    -0.256603  2.308261  3.791049
