26
Energy: -608770.79234 eV PBE+vdW (tier 2 basis)
C    -1.284375  -1.551300  1.615874
C    -0.643414  -0.339158  2.243506
O    0.181208  -0.367435  3.124530
H    -1.235233  -1.538347  0.517840
H    -2.338731  -1.649533  1.916719
H    -0.753821  -2.435361  1.980801
N    -1.011268  0.948248  1.728248
C    -2.183857  1.263639  0.960647
C    -1.821110  1.938694  -0.380067
O    -2.724340  2.409303  -1.173907
H    -0.614936  1.688587  2.310666
H    -2.659548  0.309605  0.680069
C    -3.218817  2.121258  1.791817
C    -4.653488  1.705032  1.615073
O    -5.363767  1.276936  2.624068
O    -5.247715  1.721063  0.507102
H    -3.144103  3.187050  1.526612
H    -2.932207  2.040270  2.846974
N    -0.552091  1.986861  -0.694234
C    0.043505  2.531134  -1.912226
H    0.060563  1.569761  0.017624
H    0.555011  1.725675  -2.454118
H    0.781866  3.294108  -1.637114
H    -0.731345  2.973117  -2.541740
H    -4.886442  1.285253  3.478500
Pb    -4.885014  2.455051  -1.611079
