26
Energy: -608771.844216 eV PBE+vdW (tier 2 basis)
C    -1.267306  2.037552  0.262941
C    -0.694406  2.211162  1.626151
O    0.325805  2.982266  1.771305
H    -1.515305  3.027451  -0.145566
H    -2.159453  1.403672  0.255552
H    -0.504970  1.603601  -0.399535
N    -1.264602  1.575187  2.644980
C    -0.995091  1.782307  4.075499
C    0.368795  1.167919  4.478363
O    1.428487  1.883769  4.390868
H    -2.223918  1.193925  2.483034
H    -0.884224  2.864445  4.258997
C    -2.180955  1.268115  4.924324
C    -3.551321  1.604880  4.336215
O    -4.384675  2.079792  5.250729
O    -3.828879  1.398784  3.162718
H    -2.091535  1.650674  5.946691
H    -2.190248  0.167840  4.985387
N    0.436126  -0.070857  4.912771
C    1.657791  -0.779241  5.309587
H    -0.434118  -0.594363  4.982454
H    1.934193  -1.503204  4.532146
H    1.463217  -1.315431  6.244773
H    2.466545  -0.060429  5.455605
H    -5.272465  2.210971  4.851944
Pb    2.042512  3.558213  3.029066
