26
Energy: -608771.831863 eV PBE+vdW (tier 2 basis)
C    -0.404476  0.754785  0.148839
C    -0.400723  -0.054004  1.400885
O    0.635425  -0.049213  2.142120
H    -0.200138  1.805653  0.395110
H    -1.340887  0.686715  -0.414460
H    0.424526  0.413630  -0.488729
N    -1.486340  -0.791083  1.686291
C    -1.671457  -1.783772  2.757947
C    -1.933521  -1.099012  4.108959
O    -1.070664  -0.314038  4.633704
H    -2.251130  -0.720372  1.019263
H    -2.584185  -2.318988  2.480819
C    -0.509495  -2.839017  2.794952
C    -0.082966  -3.227549  4.190805
O    1.105711  -2.551402  4.575697
O    -0.628976  -3.982304  4.935935
H    0.351456  -2.476611  2.226829
H    -0.865897  -3.756309  2.311955
N    -3.066228  -1.327539  4.745470
C    -4.179493  -2.215354  4.373715
H    -3.147809  -0.840378  5.640164
H    -4.949072  -2.120543  5.144479
H    -3.850449  -3.261311  4.342527
H    -4.622844  -1.917530  3.416042
H    1.386361  -2.944412  5.432683
Pb    1.159708  0.008804  4.338471
