26
Energy: -608772.27106 eV PBE+vdW (tier 2 basis)
C    0.197624  -0.596348  -0.293842
C    -0.245480  0.082257  0.960680
O    0.460614  -0.011031  2.006401
H    1.170093  -0.185159  -0.598690
H    -0.510578  -0.502988  -1.123483
H    0.362226  -1.660902  -0.075600
N    -1.412831  0.754738  0.927393
C    -2.179627  1.414894  1.996418
C    -1.548690  2.749210  2.440813
O    -0.295742  2.888081  2.591184
H    -1.871493  0.761763  0.020061
H    -3.114757  1.686210  1.489633
C    -2.665662  0.480727  3.140917
C    -1.793637  0.138043  4.335977
O    -2.226969  -0.799130  5.152164
O    -0.741662  0.708089  4.649809
H    -3.012769  -0.454029  2.674524
H    -3.571268  0.938840  3.575182
N    -2.345954  3.791867  2.627520
C    -3.795655  3.905960  2.422911
H    -1.855020  4.638135  2.921028
H    -4.353552  3.278168  3.128506
H    -4.073587  3.659969  1.390109
H    -4.077738  4.946523  2.605356
H    -3.077293  -1.203724  4.888892
Pb    1.201403  1.460836  3.587141
