26
Energy: -608771.027142 eV PBE+vdW (tier 2 basis)
C    -0.179383  0.757866  -0.005571
C    -0.207352  0.849805  1.474734
O    0.685147  1.538729  2.091125
H    -0.376915  1.739951  -0.460539
H    -0.864630  0.007855  -0.409954
H    0.850702  0.496515  -0.295432
N    -1.140456  0.214284  2.211721
C    -2.572507  0.246555  1.911851
C    -3.061369  1.688690  2.251448
O    -2.274814  2.534157  2.827487
H    -0.918479  0.155744  3.207562
H    -2.710512  0.089512  0.833083
C    -3.291629  -0.874580  2.689484
C    -4.694864  -1.283215  2.249014
O    -5.122330  -0.595214  1.130493
O    -5.337832  -2.125082  2.802891
H    -3.346878  -0.650214  3.765041
H    -2.684750  -1.787927  2.595317
N    -4.290740  2.008014  1.929260
C    -4.950882  3.293763  2.161279
H    -4.840348  1.258442  1.482662
H    -5.160693  3.774939  1.197602
H    -4.313196  3.938243  2.768811
H    -5.899687  3.115316  2.680868
H    -5.990340  -0.973615  0.873002
Pb    -0.180363  3.172143  3.403741
