26
Energy: -608771.773781 eV PBE+vdW (tier 2 basis)
C    -0.009023  0.455257  0.063517
C    0.003979  0.011185  1.485510
O    1.115960  -0.380203  1.993630
H    0.326665  -0.381889  -0.566194
H    0.720384  1.265390  -0.072416
H    -0.994284  0.788467  -0.277780
N    -1.138623  0.022762  2.170679
C    -1.458607  -0.538554  3.502005
C    -0.789984  0.225735  4.651646
O    0.456805  0.103751  4.926742
H    -1.965511  0.266923  1.627619
H    -2.541085  -0.375913  3.586837
C    -1.260296  -2.058922  3.582992
C    -2.274000  -2.742972  2.655728
O    -2.116389  -4.067326  2.682664
O    -3.091424  -2.126402  2.005544
H    -1.427412  -2.411485  4.611732
H    -0.252541  -2.390529  3.295228
N    -1.562498  0.989157  5.397981
C    -1.139612  1.769526  6.564069
H    -2.548683  1.044373  5.147827
H    -1.172145  2.839200  6.320416
H    -0.125774  1.482744  6.849720
H    -1.831405  1.570501  7.390469
H    -2.788990  -4.484200  2.103395
Pb    2.281491  -0.610576  3.856443
