26
Energy: -608771.461859 eV PBE+vdW (tier 2 basis)
C    -0.298206  1.144859  0.095182
C    -0.400827  0.100005  1.149731
O    0.370040  -0.920591  1.131777
H    0.720993  1.555393  0.080416
H    -1.015085  1.962204  0.226437
H    -0.466098  0.674924  -0.884979
N    -1.322828  0.223956  2.118365
C    -1.429280  -0.774810  3.173703
C    -2.731166  -0.855009  3.996784
O    -2.665390  -1.502735  5.070795
H    -1.824977  1.107691  2.185153
H    -1.384857  -1.745014  2.650968
C    -0.220535  -0.677322  4.161002
C    0.195456  -2.096717  4.457714
O    -0.572423  -2.818876  5.164229
O    1.240238  -2.592442  3.906007
H    -0.513442  -0.157844  5.081985
H    0.606986  -0.124195  3.708762
N    -3.852681  -0.296249  3.560838
C    -5.133657  -0.392822  4.276924
H    -3.871238  0.127470  2.638075
H    -5.690033  0.537525  4.128201
H    -4.936564  -0.542818  5.341394
H    -5.719078  -1.237735  3.893029
H    -1.518473  -2.258855  5.292198
Pb    1.983733  -2.381912  1.816755
