26
Energy: -608771.72463 eV PBE+vdW (tier 2 basis)
C    0.866938  0.572551  0.147589
C    0.444064  0.064245  1.483718
O    1.294466  -0.573227  2.195052
H    1.177440  -0.284727  -0.467998
H    1.751611  1.213073  0.264786
H    0.082279  1.125308  -0.379165
N    -0.815149  0.277796  1.880785
C    -1.536721  -0.229583  3.069106
C    -1.012422  0.419005  4.362435
O    0.079246  0.011842  4.914853
H    -1.388643  0.798732  1.221109
H    -2.564785  0.124214  2.937830
C    -1.605865  -1.763023  3.130661
C    -2.457643  -2.178375  4.322815
O    -2.638368  -3.497474  4.364133
O    -2.893954  -1.368343  5.119303
H    -0.624298  -2.254251  3.193704
H    -2.056603  -2.144378  2.203319
N    -1.647354  1.433680  4.906004
C    -2.971587  1.969385  4.565779
H    -1.214724  1.792251  5.759087
H    -3.741452  1.209510  4.751903
H    -3.006687  2.313370  3.525712
H    -3.158824  2.831153  5.211787
H    -3.209095  -3.723792  5.128939
Pb    1.946130  -0.994944  4.283756
