26
Energy: -608771.044111 eV PBE+vdW (tier 2 basis)
C    -0.573371  0.923313  0.085573
C    -0.542790  0.288559  1.432442
O    0.409162  -0.532931  1.711338
H    0.361376  1.476028  -0.082036
H    -1.422940  1.600604  -0.051410
H    -0.613482  0.132826  -0.678076
N    -1.510511  0.553735  2.304229
C    -1.703213  -0.035763  3.633098
C    -3.223755  -0.379153  3.879573
O    -3.766364  0.080433  4.875701
H    -2.238566  1.192170  1.983220
H    -1.134477  -0.975924  3.664648
C    -1.267946  0.900816  4.765887
C    0.163465  0.863974  5.190632
O    0.586730  1.686629  6.114240
O    1.026523  0.065636  4.743395
H    -1.916004  0.653950  5.633839
H    -1.539919  1.943231  4.535518
N    -3.845950  -1.163934  2.973361
C    -3.297282  -1.912472  1.847497
H    -4.829229  -1.315614  3.194480
H    -3.312426  -1.333543  0.913046
H    -3.907623  -2.808851  1.697118
H    -2.273694  -2.251834  2.051400
H    -0.115183  2.266608  6.476320
Pb    1.948057  -1.213178  3.138430
