26
Energy: -608771.487677 eV PBE+vdW (tier 2 basis)
C    -0.362202  0.741975  -0.498205
C    -0.336025  0.251346  0.907446
O    0.712103  -0.302932  1.359422
H    -1.353278  1.048247  -0.842658
H    -0.025432  -0.096333  -1.127903
H    0.365843  1.550402  -0.648405
N    -1.441478  0.295174  1.704567
C    -2.323333  1.445727  2.023054
C    -2.206881  2.620105  1.058837
O    -1.153116  3.381318  1.065471
H    -1.334605  -0.311454  2.521496
H    -3.363564  1.102582  2.038671
C    -1.941809  1.929774  3.476568
C    -0.445050  1.723797  3.631806
O    0.364701  2.377527  2.867769
O    -0.016044  0.780469  4.358303
H    -2.468330  1.311277  4.211767
H    -2.231702  2.976674  3.640279
N    -3.182349  2.960492  0.253737
C    -4.464822  2.292027  -0.004343
H    -3.018792  3.833052  -0.258208
H    -4.404347  1.222089  0.211411
H    -4.702587  2.419183  -1.065886
H    -5.258094  2.758256  0.593912
H    -0.460501  3.086914  1.775730
Pb    1.992486  0.501922  3.160721
