26
Energy: -608772.065539 eV PBE+vdW (tier 2 basis)
C    0.139347  -0.375844  0.176407
C    0.061852  -0.140733  1.644197
O    1.115367  0.222472  2.277120
H    0.918164  -1.120677  -0.035811
H    0.455082  0.559176  -0.309842
H    -0.810815  -0.702293  -0.258709
N    -1.109269  -0.286280  2.269801
C    -1.350936  0.013014  3.687734
C    -0.779106  -1.125854  4.568413
O    0.407806  -0.976989  5.058649
H    -1.890952  -0.650673  1.726383
H    -0.733760  0.889204  3.932585
C    -2.803521  0.459019  3.939814
C    -3.892867  -0.497609  3.480970
O    -5.058614  0.116146  3.361053
O    -3.701310  -1.689022  3.254476
H    -2.963863  1.435546  3.462160
H    -2.944332  0.634138  5.018138
N    -1.486585  -2.203483  4.778795
C    -1.073477  -3.365510  5.565096
H    -2.403353  -2.228862  4.280526
H    -0.890584  -4.215325  4.894534
H    -1.887232  -3.630602  6.249741
H    -0.169940  -3.135036  6.133538
H    -5.754152  -0.530250  3.111940
Pb    2.204049  0.046326  4.228297
