26
Energy: -608771.811257 eV PBE+vdW (tier 2 basis)
C    1.073100  0.693271  -0.007463
C    0.659712  0.102413  1.296545
O    1.548284  -0.459294  2.032929
H    1.882030  1.418407  0.153276
H    0.252308  1.173083  -0.550357
H    1.492692  -0.111178  -0.630745
N    -0.626731  0.151122  1.645689
C    -1.346696  -0.520529  2.744948
C    -1.092581  0.117693  4.120496
O    0.089334  0.404254  4.545014
H    -1.231323  0.631017  0.981878
H    -2.404935  -0.341167  2.516525
C    -1.185362  -2.053973  2.766505
C    -2.435604  -2.692614  3.378652
O    -2.327746  -4.018286  3.399660
O    -3.389440  -2.048910  3.777223
H    -0.300072  -2.402796  3.315086
H    -1.075062  -2.430477  1.739246
N    -2.149047  0.328935  4.869979
C    -2.159299  0.875835  6.225898
H    -3.031576  -0.047867  4.505560
H    -1.163608  1.236056  6.490799
H    -2.479835  0.096308  6.929054
H    -2.877763  1.703089  6.266052
H    -3.149151  -4.407025  3.768816
Pb    2.186372  -0.213366  4.141735
