26
Energy: -608771.688632 eV PBE+vdW (tier 2 basis)
C    0.573457  0.615040  0.178329
C    0.223971  0.183631  1.559089
O    1.146951  0.100209  2.438102
H    1.004518  1.625916  0.229078
H    -0.284327  0.623984  -0.502084
H    1.355831  -0.042902  -0.223528
N    -1.053141  -0.091869  1.857433
C    -1.548624  -0.365736  3.208979
C    -1.269256  -1.821798  3.616284
O    -0.189750  -2.050914  4.279685
H    -1.735011  0.022814  1.109923
H    -0.919439  0.241009  3.885984
C    -2.944694  0.212028  3.444205
C    -2.788244  1.660533  3.938792
O    -3.951799  2.303001  3.891886
O    -1.729813  2.112127  4.330366
H    -3.472085  -0.344139  4.233428
H    -3.597609  0.185085  2.561894
N    -2.056621  -2.836874  3.328102
C    -3.321064  -2.864277  2.585935
H    -1.728567  -3.735647  3.689828
H    -4.173653  -2.774552  3.271033
H    -3.386819  -3.825611  2.066342
H    -3.357300  -2.067067  1.839411
H    -3.840792  3.208979  4.250491
Pb    1.666879  -0.776972  4.434014
