26
Energy: -608771.706872 eV PBE+vdW (tier 2 basis)
C    0.359571  0.371333  0.376905
C    -0.076758  0.429162  1.798944
O    0.690093  0.913869  2.683181
H    1.271203  -0.238500  0.306378
H    0.631698  1.383902  0.047919
H    -0.404785  -0.037096  -0.292538
N    -1.315693  -0.040191  2.121780
C    -1.726923  0.057515  3.505569
C    -1.253566  -1.129503  4.367514
O    -0.228506  -0.946112  5.104596
H    -1.900698  -0.435141  1.390214
H    -1.065803  0.858973  3.824228
C    -3.059374  0.696612  3.901423
C    -2.760294  1.640706  5.091986
O    -3.765547  2.205860  5.718952
O    -1.613024  1.904827  5.474711
H    -3.848430  -0.014187  4.183785
H    -3.455148  1.313042  3.078358
N    -1.884803  -2.287187  4.321644
C    -1.504449  -3.495048  5.065494
H    -2.694349  -2.363220  3.709150
H    -2.347198  -3.816334  5.688591
H    -0.640907  -3.271819  5.695281
H    -1.253248  -4.294091  4.357735
H    -4.642426  1.968860  5.356834
Pb    0.804541  1.122896  5.078161
