26
Energy: -608771.29126 eV PBE+vdW (tier 2 basis)
C    -0.167833  -0.114958  -0.478065
C    -0.352074  0.198867  0.969600
O    -0.635156  1.344108  1.370160
H    0.648548  0.509671  -0.867372
H    -1.073038  0.176289  -1.027122
H    0.060938  -1.167700  -0.674790
N    -0.180330  -0.824631  1.877148
C    -0.399888  -0.501939  3.270575
C    0.160744  -1.428011  4.349336
O    -0.365728  -1.362892  5.524853
H    -0.206891  -1.783775  1.544401
H    0.179658  0.428468  3.431135
C    -1.906217  -0.165961  3.554120
C    -1.960312  1.177165  4.233119
O    -1.664293  2.216494  3.547694
O    -2.200859  1.291662  5.478944
H    -2.403048  -0.943101  4.142486
H    -2.431010  -0.097481  2.594926
N    1.197928  -2.226186  4.187427
C    2.098691  -2.440517  3.044147
H    1.437329  -2.744294  5.035636
H    1.754259  -3.285858  2.434378
H    3.085755  -2.687466  3.448019
H    2.181937  -1.538034  2.435597
H    -1.307891  1.932241  2.599890
Pb    -1.590215  -0.193163  7.038758
