26
Energy: -608771.691443 eV PBE+vdW (tier 2 basis)
C    -0.219779  -0.833517  -0.142445
C    -0.731824  -0.573996  1.228314
O    -0.743042  -1.535528  2.075049
H    -1.000245  -1.406367  -0.670161
H    0.679742  -1.457918  -0.103177
H    -0.021437  0.081317  -0.711176
N    -1.178094  0.650714  1.526324
C    -2.065462  1.082825  2.627883
C    -1.290864  1.245189  3.946467
O    -0.829233  0.235457  4.585274
H    -1.124033  1.310379  0.753754
H    -2.395200  2.084623  2.321423
C    -3.343088  0.236803  2.828509
C    -4.074327  -0.050854  1.512404
O    -5.335235  0.389053  1.560809
O    -3.550045  -0.617378  0.576563
H    -4.001132  0.770346  3.525344
H    -3.124680  -0.743360  3.274884
N    -1.140153  2.464125  4.423733
C    -0.462264  2.824985  5.672428
H    -1.527694  3.233529  3.880008
H    0.480738  3.337173  5.442488
H    -0.263428  1.923607  6.255252
H    -1.108591  3.503248  6.240983
H    -5.789383  0.154699  0.723148
Pb    -0.523244  -1.958153  4.226918
