15
Energy: -609832.4031443  eV PBE+vdW (tier 2 basis)
N    -0.165823  -1.161375  0.171014
C    -0.271029  -0.148332  1.295153
C    1.124900  0.123343  1.826866
O    1.998582  -0.788838  1.666694
H    0.628960  -1.798003  0.372344
H    -1.029379  -1.707711  0.035852
H    -0.758588  0.749666  0.895865
C    -1.091144  -0.661680  2.520333
S    -0.226987  -1.519452  3.904736
H    -1.929150  -1.302571  2.211579
H    -1.527687  0.218582  3.008693
H    0.081673  -2.684984  3.280434
O    1.257371  1.084055  2.643467
H    0.044046  -0.696585  -0.726515
Pb    2.632256  -0.282115  3.952490
