15
Energy: -609832.3308880  eV PBE+vdW (tier 2 basis)
N    2.110492  1.003543  1.533782
C    2.693701  -0.045755  2.436588
C    4.191397  -0.179404  2.232098
O    4.865487  -0.841415  3.091736
H    2.167639  1.954660  1.920091
H    2.556818  1.005836  0.604295
H    2.505129  0.267580  3.472599
C    1.968321  -1.409117  2.180134
S    0.157471  -1.159818  2.080962
H    2.198865  -2.073942  3.019831
H    2.323848  -1.880892  1.256794
H    0.013151  -1.557150  0.793819
O    4.753679  0.327427  1.200114
H    1.085138  0.713135  1.444872
Pb    6.848865  -0.507690  1.938282
