15
Energy: -609831.3241166  eV PBE+vdW (tier 2 basis)
N    -0.396207  -0.592078  -0.309838
C    0.057793  -0.243866  0.994224
C    1.581383  -0.362929  1.108500
O    2.306163  -0.309584  0.058798
H    -0.333550  -1.570546  -0.578437
H    -1.270195  -0.167291  -0.605126
H    -0.128131  0.837020  1.143269
C    -0.712287  -1.026422  2.097517
S    -0.406738  -0.443761  3.860071
H    -0.531437  -2.107323  2.065167
H    -1.785121  -0.834761  1.967427
H    -1.425985  -1.111521  4.476649
O    2.135130  -0.464836  2.267546
H    0.534591  -1.341388  4.253753
Pb    4.266877  -0.324982  1.229709
