15
Energy: -609832.3446058  eV PBE+vdW (tier 2 basis)
N    -0.050508  -1.349818  0.751307
C    -0.125235  -0.156617  1.664644
C    1.287268  0.210924  2.119368
O    2.302054  -0.332857  1.561819
H    -0.175793  -2.183507  1.402955
H    -0.799282  -1.353915  0.045882
H    -0.499418  0.707830  1.093516
C    -1.097644  -0.461203  2.832827
S    -0.760888  -2.115325  3.550959
H    -2.132515  -0.413582  2.476871
H    -0.975625  0.310023  3.601380
H    -1.961222  -2.672675  3.264011
O    1.430016  1.089254  3.032889
H    0.863966  -1.419652  0.279625
Pb    3.746828  0.991119  2.900945
