15
Energy: -609832.3908190  eV PBE+vdW (tier 2 basis)
N    0.152018  -0.288930  -0.036471
C    0.047592  0.234489  1.368883
C    1.411817  0.296617  2.031373
O    2.403761  -0.341452  1.534044
H    0.348481  0.441190  -0.732963
H    0.877293  -1.017726  -0.120848
H    -0.371313  1.248183  1.319837
C    -0.928680  -0.682509  2.181639
S    -2.385058  -1.181738  1.214675
H    -1.212558  -0.165426  3.104370
H    -0.433675  -1.624320  2.456533
H    -3.019897  0.018397  1.233667
O    1.531178  0.956890  3.118188
H    -0.809996  -0.715885  -0.222724
Pb    3.775036  0.403221  3.320798
