15
Energy: -609831.6467740  eV PBE+vdW (tier 2 basis)
N    0.798834  -0.022656  0.743760
C    0.120449  -0.342364  2.042236
C    1.203254  -0.314096  3.141671
O    2.061256  0.627903  3.121973
H    1.211868  -0.870366  0.332689
H    0.107425  0.304707  0.059101
H    -0.499838  0.538814  2.282366
C    -0.851422  -1.545107  2.022667
S    -0.065092  -3.162989  2.448870
H    -1.328438  -1.615189  1.036779
H    -1.644010  -1.352385  2.755029
H    -1.124488  -3.664401  3.131027
O    1.237815  -1.176830  4.072965
H    0.693024  -2.049761  3.780553
Pb    2.596466  1.694666  1.244132
