15
Energy: -609831.9254655  eV PBE+vdW (tier 2 basis)
N    2.546779  -6.155205  0.355608
C    2.810429  -7.328414  1.193526
C    4.333456  -7.576701  1.042062
O    4.957250  -8.574461  1.518282
H    2.079244  -6.360778  -0.529927
H    2.035414  -5.412671  0.834051
H    2.642998  -7.051734  2.248245
C    1.950413  -8.558350  0.835976
S    1.948545  -9.814121  2.200365
H    2.264772  -9.030180  -0.103121
H    0.899426  -8.253155  0.749906
H    1.413326  -10.859290  1.511955
O    4.944756  -6.670174  0.395381
H    4.123982  -6.030806  0.140025
Pb    4.680338  -10.582138  2.416975
