15
Energy: -609832.3874074  eV PBE+vdW (tier 2 basis)
N    -0.403960  -0.032204  -0.113758
C    -0.216543  0.343571  1.345956
C    1.262445  0.360448  1.689220
O    1.653096  1.186020  2.564344
H    -1.373630  -0.315425  -0.326101
H    -0.175461  0.758811  -0.737161
H    -0.679568  1.323258  1.505860
C    -0.857800  -0.761143  2.253589
S    -0.082875  -1.109257  3.883229
H    -0.803316  -1.737587  1.751183
H    -1.913448  -0.532810  2.448084
H    -0.356460  0.081525  4.478580
O    1.955052  -0.638555  1.300761
H    0.230276  -0.814295  -0.357592
Pb    2.957189  -0.561358  3.474801
