15
Energy: -609831.6758795  eV PBE+vdW (tier 2 basis)
N    0.079929  -0.689490  -0.017950
C    0.089012  -0.297568  1.375771
C    1.189196  0.675241  1.825848
O    1.826018  1.361232  0.955742
H    -0.388931  -0.018933  -0.625595
H    1.008225  -0.871136  -0.402769
H    -0.849164  0.247762  1.581753
C    0.084720  -1.578710  2.241615
S    -1.131408  -2.676138  1.388147
H    -0.283863  -1.432965  3.264488
H    1.052570  -2.092385  2.272573
H    -1.189738  -3.642770  2.358084
O    1.432930  0.824641  3.076758
H    -0.312950  -3.408640  0.588596
Pb    2.954455  2.524862  2.626936
