15
Energy: -609832.0043329  eV PBE+vdW (tier 2 basis)
N    -0.024854  -0.369183  0.009748
C    0.120198  0.130838  1.452018
C    1.609657  0.131520  1.792344
O    2.462091  -0.031131  0.849091
H    -0.895668  -0.019132  -0.415694
H    0.777717  -0.061573  -0.564688
H    -0.212703  1.179869  1.445805
C    -0.792094  -0.682009  2.404699
S    -1.199689  0.179684  3.949110
H    -0.375508  -1.678280  2.602202
H    -1.761254  -0.822792  1.903001
H    -0.108949  -0.216477  4.644236
O    1.990910  0.317658  2.993028
H    -0.052705  -1.399364  -0.031466
Pb    4.243150  0.312930  2.393614
