15
Energy: -609832.8624348  eV PBE+vdW (tier 2 basis)
N    -0.075365  0.252561  0.481268
C    -0.280720  -0.755385  1.554989
C    1.075399  -1.023382  2.203732
O    2.130529  -0.991822  1.540053
H    -0.935113  0.367898  -0.068373
H    0.118389  1.176949  0.887104
H    -0.984292  -0.399415  2.324296
C    -0.857523  -2.057745  0.958025
S    0.085624  -2.785936  -0.454432
H    -1.856597  -1.859816  0.545089
H    -0.973061  -2.831878  1.726641
H    0.974758  -3.527794  0.259045
O    1.011308  -1.330059  3.466309
H    1.894735  -1.535742  3.851486
Pb    1.905928  -0.597432  -0.796234
