15
Energy: -609832.5703758  eV PBE+vdW (tier 2 basis)
N    0.710628  -1.074130  -0.079811
C    0.245469  -0.520235  1.215618
C    1.467543  -0.410978  2.141619
O    2.367207  -1.269260  2.080736
H    -0.089823  -1.295902  -0.682920
H    1.261493  -0.375255  -0.594142
H    -0.225074  0.468291  1.081429
C    -0.809231  -1.447894  1.865221
S    -0.271554  -3.207443  2.100359
H    -1.729038  -1.456157  1.267676
H    -1.071890  -1.083948  2.866817
H    -1.038607  -3.770370  1.129621
O    1.560767  0.518961  3.047718
H    0.860710  1.203648  3.020302
Pb    2.146168  -3.048943  0.573555
