15
Energy: -609832.3979119  eV PBE+vdW (tier 2 basis)
N    0.202236  0.165928  -0.048532
C    0.035978  -0.031206  1.447368
C    1.369483  -0.484828  2.027813
O    1.470421  -0.523339  3.290328
H    -0.680733  0.058754  -0.569781
H    0.569996  1.107088  -0.259233
H    -0.319614  0.913162  1.878125
C    -0.964303  -1.155827  1.818007
S    -0.260535  -2.877236  1.699833
H    -1.858045  -1.126371  1.179308
H    -1.274954  -0.982732  2.853705
H    -1.091470  -3.421950  2.625324
O    2.171954  -1.079830  1.238227
H    0.900943  -0.516591  -0.400148
Pb    2.488849  -2.624577  3.087344
