17
Energy: -11929.5448839 eV PBE+vdW (tier 2 basis)
N    0.362512  -0.465671  -0.532469
C    0.119955  -0.060972  0.860031
C    1.487860  0.197529  1.487160
O    2.048442  -0.466980  2.330544
H    0.694871  0.329093  -1.077265
H    -0.527097  -0.771236  -0.929047
H    -0.470036  0.874821  0.951536
C    -0.648880  -1.168049  1.590435
O    -1.829428  -1.375488  0.786513
C    -1.020728  -0.804180  3.023300
H    -0.024685  -2.077954  1.576376
H    -2.297609  -2.145823  1.140713
H    -1.613359  -1.610843  3.477549
H    -1.624175  0.113670  3.045321
H    -0.125071  -0.664201  3.640369
O    2.050815  1.312025  0.936902
H    2.940211  1.388413  1.334103
