17
Energy: -11929.5075831 eV PBE+vdW (tier 2 basis)
N    0.601951  0.759148  0.627691
C    -0.106024  0.073126  1.711878
C    0.754254  -0.151013  2.960043
O    0.544339  0.339559  4.047438
H    0.812517  1.719191  0.898302
H    1.494348  0.303291  0.434176
H    -0.914342  0.730046  2.057205
C    -0.787119  -1.210799  1.186595
O    -1.432337  -1.785944  2.331338
C    0.120094  -2.211568  0.477932
H    -1.542241  -0.853138  0.462065
H    -1.812409  -2.636878  2.066000
H    0.601716  -1.753727  -0.396630
H    -0.481713  -3.053083  0.103989
H    0.892531  -2.604702  1.148909
O    1.860551  -0.917324  2.706545
H    2.348882  -0.958184  3.551526
