17
Energy: -11929.6079277 eV PBE+vdW (tier 2 basis)
N    0.570809  -0.293324  -0.045859
C    0.069243  -0.087850  1.302614
C    1.246263  0.287060  2.189300
O    2.412066  0.097130  1.916348
H    -0.026575  -0.892245  -0.610267
H    1.526256  -0.650081  -0.026705
H    -0.635922  0.761540  1.318226
C    -0.680387  -1.297455  1.950902
O    0.190175  -2.411955  2.144606
C    -1.933491  -1.683110  1.167063
H    -0.972732  -0.990810  2.965581
H    0.598915  -2.621938  1.287199
H    -2.439510  -2.514883  1.671582
H    -1.692470  -2.016778  0.146039
H    -2.634583  -0.840067  1.093341
O    0.836690  0.845989  3.358418
H    1.646907  1.001462  3.881150
