17
Energy: -11929.4454982 eV PBE+vdW (tier 2 basis)
N    -0.905863  -1.036374  3.566581
C    -0.019496  -1.387259  2.459010
C    1.317471  -0.670558  2.613457
O    2.406093  -1.164127  2.432811
H    -1.805018  -1.507733  3.464751
H    -1.079700  -0.031947  3.594666
H    0.224703  -2.456014  2.529974
C    -0.632795  -1.194107  1.038078
O    0.233579  -1.878625  0.129811
C    -0.881946  0.249206  0.615155
H    -1.609418  -1.719125  1.089204
H    -0.028371  -1.646710  -0.774211
H    -1.492754  0.784056  1.355249
H    -1.432647  0.274376  -0.336510
H    0.060897  0.795624  0.486112
O    1.155141  0.639604  2.976118
H    2.058123  1.002713  3.057743
