17
Energy: -11929.6141166 eV PBE+vdW (tier 2 basis)
N    0.111998  0.400672  0.066328
C    -0.078998  -0.006023  1.465149
C    1.265104  -0.084425  2.227750
O    1.723839  0.869374  2.818058
H    0.679368  -0.287611  -0.430471
H    0.616251  1.286778  0.034278
H    -0.644847  0.789876  1.968453
C    -0.923473  -1.287193  1.549232
O    -0.151074  -2.326432  0.881128
C    -2.301351  -1.143119  0.922881
H    -1.021101  -1.552930  2.617263
H    -0.629888  -3.166094  0.954174
H    -2.857331  -2.089657  0.985191
H    -2.216899  -0.841082  -0.126860
H    -2.885518  -0.382316  1.458251
O    1.950121  -1.251190  2.138330
H    1.386664  -1.902944  1.650343
