17
Energy: -11929.6094747 eV PBE+vdW (tier 2 basis)
N    -0.190032  -2.404854  2.829482
C    0.349525  -1.380689  1.941486
C    1.461123  -0.655454  2.682588
O    1.391222  -0.289319  3.837470
H    -0.362116  -1.994323  3.749652
H    -1.086350  -2.718633  2.455245
H    0.776168  -1.865595  1.050165
C    -0.703243  -0.351277  1.441416
O    -1.709733  -1.162453  0.811345
C    -0.149133  0.693636  0.479328
H    -1.128740  0.144406  2.334428
H    -2.454420  -0.589011  0.575714
H    0.580823  1.349241  0.972943
H    -0.959120  1.333263  0.100615
H    0.338742  0.213899  -0.379498
O    2.553032  -0.437259  1.902890
H    3.190251  0.049422  2.462731
