17
Energy: -11929.7370161 eV PBE+vdW (tier 2 basis)
N    -1.469241  -0.018127  1.784721
C    -0.385833  -0.931445  2.171627
C    0.577747  -0.388976  3.217273
O    0.979168  -0.992272  4.189424
H    -1.107177  0.923927  1.629461
H    -2.176000  0.044103  2.515746
H    -0.835346  -1.835576  2.603453
C    0.358481  -1.357007  0.871043
O    -0.612725  -1.826035  -0.052957
C    1.389993  -2.448923  1.090780
H    0.859436  -0.452606  0.467357
H    -1.377386  -1.224981  0.069116
H    2.195978  -2.113787  1.756289
H    1.833707  -2.732856  0.128835
H    0.922573  -3.339907  1.530674
O    0.975651  0.887798  2.927448
H    1.597975  1.142669  3.635708
