17
Energy: -11929.5467257 eV PBE+vdW (tier 2 basis)
N    -0.263298  0.493150  0.591073
C    0.064512  -0.103618  1.891311
C    1.582027  -0.009530  2.044643
O    2.383821  -0.911771  1.944635
H    -1.230620  0.250967  0.368855
H    -0.187043  1.508433  0.629076
H    -0.388213  0.432264  2.753702
C    -0.432361  -1.562096  1.918430
O    -1.822361  -1.591291  1.541721
C    -0.208191  -2.251409  3.256658
H    0.085689  -2.108390  1.117649
H    -2.346298  -1.377052  2.330980
H    -0.608222  -3.272308  3.222359
H    -0.714779  -1.707924  4.070551
H    0.859741  -2.309726  3.498388
O    1.952774  1.280659  2.291097
H    2.929821  1.280643  2.315872
