17
Energy: -11929.5662507 eV PBE+vdW (tier 2 basis)
N    -0.137744  0.756972  0.287017
C    -0.082939  0.109861  1.596632
C    1.358152  -0.014277  2.066698
O    1.766755  0.256877  3.174344
H    -1.108953  0.754729  -0.028119
H    0.398761  0.216449  -0.393372
H    -0.580701  0.765069  2.326169
C    -0.797157  -1.269126  1.668491
O    -2.141390  -0.984135  1.245947
C    -0.768978  -1.907874  3.051999
H    -0.312211  -1.939488  0.932852
H    -2.642949  -1.813122  1.260266
H    -1.344987  -2.844656  3.054399
H    -1.204487  -1.233199  3.800819
H    0.255386  -2.151755  3.363697
O    2.166538  -0.514642  1.086633
H    3.062689  -0.554634  1.473186
