17
Energy: -11929.6515645 eV PBE+vdW (tier 2 basis)
N    1.616861  -2.115015  1.791701
C    0.826261  -1.184827  0.998760
C    0.754269  0.269496  1.472986
O    0.076884  1.133503  0.939835
H    2.607441  -1.880874  1.744261
H    1.358175  -2.070308  2.777167
H    1.262263  -1.138559  -0.011935
C    -0.623359  -1.726423  0.789446
O    -1.287620  -1.029053  -0.257060
C    -1.449066  -1.748704  2.077298
H    -0.489436  -2.757007  0.430894
H    -1.184303  -0.074855  -0.070176
H    -2.441305  -2.163217  1.862763
H    -1.589466  -0.736962  2.485514
H    -0.982326  -2.377056  2.849423
O    1.506990  0.526505  2.572906
H    1.367735  1.473356  2.774217
