17
Energy: -11929.6372633 eV PBE+vdW (tier 2 basis)
N    1.795748  -1.936395  1.343327
C    0.837709  -0.864366  1.102175
C    0.973268  0.159306  2.214304
O    1.121256  -0.115184  3.387474
H    1.800623  -2.158059  2.341425
H    1.478765  -2.769661  0.843969
H    1.074044  -0.367291  0.146079
C    -0.645224  -1.363436  1.016980
O    -0.707488  -2.452974  0.085980
C    -1.654579  -0.276512  0.672534
H    -0.892897  -1.819408  1.988154
H    -0.701345  -2.079194  -0.811041
H    -1.704051  0.493900  1.452603
H    -2.653752  -0.716316  0.563089
H    -1.389274  0.227390  -0.269809
O    0.879140  1.439062  1.761523
H    0.944056  2.009138  2.553235
