17
Energy: -11929.5485365 eV PBE+vdW (tier 2 basis)
N    0.765944  -2.226445  0.920993
C    0.853925  -0.829845  1.319345
C    1.446303  -0.654376  2.717960
O    1.815191  0.417268  3.155227
H    0.493862  -2.298824  -0.058674
H    0.051949  -2.704253  1.471953
H    1.563855  -0.321943  0.648619
C    -0.464429  -0.005265  1.276776
O    -1.363990  -0.675580  2.174597
C    -1.044975  0.111567  -0.127459
H    -0.223498  1.000071  1.664566
H    -2.189510  -0.170095  2.211595
H    -1.971464  0.702940  -0.112816
H    -1.286361  -0.876722  -0.542360
H    -0.342119  0.618787  -0.803588
O    1.496650  -1.801457  3.435953
H    1.855665  -1.546827  4.308314
