17
Energy: -11929.5799217 eV PBE+vdW (tier 2 basis)
N    1.133699  -2.046871  2.477440
C    0.786160  -1.171388  1.358770
C    0.719934  0.301940  1.768987
O    0.200171  0.710072  2.790045
H    2.128943  -1.968216  2.684455
H    0.640657  -1.734578  3.316954
H    1.550126  -1.271545  0.577149
C    -0.548863  -1.636142  0.723626
O    -0.755262  -0.791267  -0.417074
C    -1.746614  -1.624400  1.666359
H    -0.358513  -2.676006  0.400643
H    -1.642470  -0.970913  -0.762965
H    -1.577973  -2.290005  2.523158
H    -2.636525  -2.000113  1.139830
H    -1.958827  -0.614488  2.038537
O    1.339313  1.119006  0.880473
H    1.227043  2.027914  1.223614
