17
Energy: -11929.5228194 eV PBE+vdW (tier 2 basis)
N    -0.235515  0.084736  -0.075354
C    -0.057675  -0.079086  1.368945
C    1.427766  -0.092980  1.724113
O    1.957574  0.688048  2.487593
H    0.022357  1.029641  -0.359785
H    -1.229114  -0.032290  -0.280726
H    -0.490364  0.739075  1.973642
C    -0.741162  -1.385928  1.812070
O    -2.130757  -1.196233  1.481236
C    -0.557399  -1.686386  3.295218
H    -0.322939  -2.202463  1.198316
H    -2.578314  -2.051284  1.565657
H    -1.101700  -2.600496  3.569613
H    -0.938819  -0.861126  3.910589
H    0.500427  -1.847614  3.544459
O    2.110542  -1.089409  1.100555
H    3.037091  -0.998206  1.396859
