17
Energy: -11929.677039 eV PBE+vdW (tier 2 basis)
N    1.591585  -1.175662  0.538410
C    0.529110  -0.270845  0.990919
C    0.804085  0.007866  2.467162
O    0.461334  -0.717718  3.386778
H    1.329974  -2.135817  0.773723
H    1.691381  -1.125749  -0.473960
H    0.629238  0.679711  0.449162
C    -0.922804  -0.804816  0.830201
O    -1.057697  -2.085210  1.447651
C    -1.329056  -0.950984  -0.626968
H    -1.600162  -0.075863  1.319360
H    -0.758667  -1.969638  2.372188
H    -1.290880  0.015983  -1.146239
H    -2.353321  -1.337729  -0.688454
H    -0.671657  -1.659835  -1.148624
O    1.491972  1.154640  2.665976
H    1.655564  1.214667  3.628716
