17
Energy: -11929.6204636 eV PBE+vdW (tier 2 basis)
N    1.374044  -0.399331  0.382803
C    0.838501  0.511487  1.383823
C    1.438785  0.293285  2.759312
O    1.208153  1.018388  3.714377
H    1.252054  -1.373824  0.655932
H    0.895262  -0.263517  -0.507361
H    1.117914  1.540063  1.103248
C    -0.726120  0.543901  1.538810
O    -1.143288  1.693409  2.264428
C    -1.309541  -0.745579  2.116847
H    -1.114261  0.685802  0.516380
H    -0.583990  1.738112  3.065764
H    -2.403771  -0.677713  2.131462
H    -0.970159  -0.910590  3.149713
H    -1.031106  -1.623005  1.515560
O    2.202629  -0.818742  2.865088
H    2.486895  -0.859146  3.799815
