17
Energy: -11929.7503487 eV PBE+vdW (tier 2 basis)
N    0.014640  -0.270829  -0.201669
C    -0.226850  0.057662  1.213976
C    1.139594  0.219022  1.923196
O    2.153336  -0.305187  1.212592
H    -0.757459  -0.842565  -0.549473
H    1.705277  -0.599265  0.363549
H    -0.788375  0.995485  1.354002
C    -1.026223  -1.085823  1.876106
O    -2.150397  -1.313215  1.000850
C    -1.477807  -0.767825  3.293627
H    -0.385482  -1.988819  1.878133
H    -2.682585  -2.028318  1.381688
H    -2.007032  -1.629573  3.725014
H    -2.158479  0.093714  3.292594
H    -0.623105  -0.531575  3.938360
O    1.281886  0.741045  3.007105
H    0.046061  0.575065  -0.769649
