17
Energy: -11929.5310876 eV PBE+vdW (tier 2 basis)
N    1.730388  -2.009028  1.382107
C    0.746300  -0.959143  1.155057
C    0.845376  0.097040  2.254432
O    0.879745  -0.109428  3.445854
H    1.510386  -2.793472  0.766647
H    2.672432  -1.689580  1.161450
H    0.847176  -0.434030  0.183870
C    -0.666883  -1.603449  1.193263
O    -0.734517  -2.646341  0.209555
C    -1.801057  -0.601516  1.029980
H    -0.750613  -2.125586  2.157532
H    -0.877236  -2.229226  -0.656281
H    -1.820905  0.122767  1.854822
H    -2.762687  -1.128934  1.020056
H    -1.702620  -0.034167  0.091606
O    0.855691  1.358585  1.722445
H    0.880023  1.966505  2.487606
