17
Energy: -11929.6553488 eV PBE+vdW (tier 2 basis)
N    1.285916  -2.093307  2.367210
C    0.847125  -1.210454  1.293690
C    0.833335  0.258073  1.712219
O    0.983034  0.672464  2.841125
H    2.303420  -2.147158  2.383750
H    1.015796  -1.694161  3.268604
H    1.523282  -1.312256  0.432496
C    -0.561249  -1.648526  0.762840
O    -0.826786  -1.129993  -0.538278
C    -1.692998  -1.359014  1.745516
H    -0.468718  -2.734701  0.626721
H    -0.792415  -0.159343  -0.487500
H    -1.505442  -1.832801  2.718773
H    -2.635278  -1.754616  1.348031
H    -1.821540  -0.278442  1.910262
O    0.574761  1.095454  0.658238
H    0.536756  1.997782  1.033303
