17
Energy: -11929.8363685 eV PBE+vdW (tier 2 basis)
N    0.179891  -0.328882  -0.160872
C    0.010643  -0.253876  1.298123
C    1.329357  -0.708290  1.972892
O    2.365899  -0.753635  1.122266
H    -0.327806  0.408342  -0.645125
H    -0.176027  -1.230000  -0.491564
H    -0.118481  0.801538  1.587317
C    -1.178346  -1.068375  1.853217
O    -1.075030  -2.431234  1.402576
C    -2.527357  -0.540953  1.394009
H    -1.112555  -1.030529  2.951860
H    -0.403701  -2.871439  1.948952
H    -2.665186  0.502495  1.707438
H    -3.333345  -1.143019  1.829641
H    -2.624940  -0.591992  0.300495
O    1.414483  -0.986247  3.150671
H    1.942502  -0.525905  0.242104
