17
Energy: -11929.5523906 eV PBE+vdW (tier 2 basis)
N    0.618201  -0.466813  -0.150303
C    0.094945  -0.063325  1.148166
C    1.196526  0.406674  2.087159
O    0.996824  1.076262  3.078671
H    -0.109320  -0.854410  -0.748818
H    1.376536  -1.141555  -0.062222
H    -0.553181  0.815929  1.005490
C    -0.760140  -1.124549  1.920869
O    0.003035  -2.298287  2.206534
C    -2.059750  -1.454980  1.193747
H    -0.989782  -0.692656  2.905548
H    0.199275  -2.736506  1.361430
H    -2.631936  -2.189704  1.772802
H    -1.870887  -1.889752  0.199320
H    -2.680880  -0.558657  1.059122
O    2.429884  -0.039728  1.732569
H    3.037199  0.278858  2.428206
