17
Energy: -11929.7918773 eV PBE+vdW (tier 2 basis)
N    1.584347  -1.983500  1.110709
C    0.640982  -0.861448  1.130393
C    0.872332  0.066426  2.313414
O    1.232594  -0.300275  3.414320
H    2.478704  -1.699941  0.713374
H    1.766867  -2.286112  2.071055
H    0.737229  -0.295136  0.194056
C    -0.800205  -1.465409  1.167550
O    -0.887785  -2.435856  0.136431
C    -1.908437  -0.447016  0.968387
H    -0.918171  -1.951222  2.158620
H    -0.012118  -2.878872  0.149470
H    -1.939810  0.283059  1.786740
H    -2.874556  -0.965085  0.933660
H    -1.774763  0.092626  0.021167
O    0.612383  1.368461  2.016185
H    0.754406  1.870302  2.843468
