17
Energy: -11929.5558268 eV PBE+vdW (tier 2 basis)
N    1.028725  -1.285273  -0.010000
C    0.443246  -0.347568  0.931926
C    1.503250  0.013078  1.966327
O    2.524194  -0.602176  2.172705
H    0.309590  -1.755966  -0.556344
H    1.555498  -1.994727  0.500973
H    0.178522  0.585928  0.406402
C    -0.848741  -0.793370  1.679086
O    -0.484478  -1.919104  2.487112
C    -1.993681  -1.120946  0.725953
H    -1.148679  0.053067  2.323588
H    -1.281345  -2.244970  2.931705
H    -1.743999  -1.970981  0.075840
H    -2.245823  -0.255781  0.096863
H    -2.897000  -1.391425  1.291453
O    1.155446  1.131510  2.665578
H    1.863276  1.260704  3.325834
