17
Energy: -11929.5478794 eV PBE+vdW (tier 2 basis)
N    0.398432  -0.404292  -0.059665
C    0.005419  -0.126006  1.317843
C    1.222968  0.029032  2.224287
O    1.403423  0.968644  2.973340
H    -0.436608  -0.681251  -0.578981
H    0.779666  0.428437  -0.506854
H    -0.561502  0.816649  1.451918
C    -0.898152  -1.287428  1.813086
O    -2.030648  -1.404205  0.938007
C    -1.322405  -1.147749  3.268030
H    -0.339179  -2.222504  1.663118
H    -2.664766  -0.708606  1.179251
H    -1.986923  -1.975946  3.542646
H    -1.854080  -0.199206  3.439214
H    -0.458192  -1.164706  3.944988
O    2.081768  -1.020471  2.140260
H    2.801377  -0.820988  2.770379
