17
Energy: -11929.7482683 eV PBE+vdW (tier 2 basis)
N    -0.770115  0.624180  1.681545
C    -0.064699  -0.573764  2.134543
C    1.415998  -0.248337  2.272992
O    1.901809  0.852855  2.114083
H    -0.161484  1.437227  1.792512
H    -1.628723  0.782292  2.201449
H    -0.395885  -0.925176  3.128536
C    -0.300453  -1.723987  1.106829
O    -0.018662  -1.228908  -0.195310
C    -1.719637  -2.283141  1.209853
H    0.425157  -2.525745  1.300991
H    -0.429616  -0.338278  -0.205143
H    -1.898750  -2.744184  2.192407
H    -1.868511  -3.047648  0.437659
H    -2.468834  -1.494494  1.050406
O    2.147522  -1.336378  2.621472
H    3.073883  -1.032513  2.679175
