19
Energy: -15015.501019 eV PBE+vdW (tier 2 basis)
N    0.905579  1.880398  0.444697
C    -0.198604  0.996603  0.862841
C    0.230466  0.214871  2.105320
O    0.898695  -0.799123  2.107013
H    1.124824  2.550333  1.183183
H    1.750570  1.327114  0.285278
H    -1.047209  1.640586  1.134012
C    -0.588206  0.092282  -0.308999
C    -1.936440  -0.643249  -0.166887
C    -1.878256  -1.846567  0.748222
O    -1.496013  -2.951610  0.432459
O    -2.306558  -1.548672  2.012457
H    0.212913  -0.639087  -0.493342
H    -0.642901  0.744237  -1.191096
H    -2.228103  -1.023123  -1.153600
H    -2.713923  0.051100  0.179488
O    -0.143316  0.854898  3.250229
H    0.234454  0.334512  3.986249
H    -2.181971  -2.367505  2.531476
