19
Energy: -15015.6206475 eV PBE+vdW (tier 2 basis)
N    0.190947  1.297370  2.324022
C    0.446592  -0.134666  2.231388
C    1.373719  -0.511612  1.072007
O    1.976068  -1.716688  1.274999
H    2.508668  -1.894469  0.474934
H    1.032404  1.789917  2.623234
H    0.933703  -0.463198  3.162668
C    -0.879191  -0.910465  2.070538
C    -1.796437  -0.712333  3.272586
C    -3.189350  -1.247154  3.051869
O    -3.672570  -1.580414  1.989747
O    -3.889543  -1.303532  4.223387
H    -0.666043  -1.977884  1.922923
H    -1.387309  -0.564231  1.158290
H    -1.883008  0.363359  3.496337
H    -1.384624  -1.173140  4.182642
O    1.551367  0.155338  0.074782
H    -0.030625  1.659572  1.393566
H    -4.778766  -1.629771  3.984082
