19
Energy: -15015.5386613 eV PBE+vdW (tier 2 basis)
N    -0.321608  0.307794  -0.026231
C    -0.196362  -0.137072  1.358025
C    1.284477  -0.225015  1.697465
O    1.518358  -0.879250  2.871207
H    2.485749  -0.845563  3.002768
H    0.459660  0.918870  -0.266652
H    -0.602396  0.597140  2.085284
C    -0.969191  -1.464975  1.552994
C    -1.434397  -1.764282  2.976252
C    -2.513178  -0.825445  3.466060
O    -3.084158  0.021314  2.808031
O    -2.803777  -1.045371  4.780263
H    -0.360004  -2.298049  1.176666
H    -1.847096  -1.402712  0.896940
H    -0.607614  -1.751428  3.699331
H    -1.852621  -2.781786  3.031795
O    2.180776  0.255090  1.036002
H    -1.190236  0.824699  -0.152261
H    -3.516383  -0.415960  5.005061
