19
Energy: -15015.531095 eV PBE+vdW (tier 2 basis)
N    0.052061  0.262657  0.315369
C    0.009767  -0.311825  1.653975
C    1.301439  -1.040237  2.045575
O    2.148987  -1.433856  1.272330
H    0.483095  -0.402774  -0.331011
H    0.660549  1.080959  0.307785
H    -0.109207  0.507109  2.378645
C    -1.227684  -1.230429  1.834707
C    -1.461671  -2.250657  0.711932
C    -0.426660  -3.339536  0.530821
O    0.002901  -3.726491  -0.534109
O    -0.037429  -3.888664  1.720830
H    -2.105149  -0.570145  1.859753
H    -1.168696  -1.733450  2.808571
H    -1.571794  -1.748641  -0.255994
H    -2.416072  -2.764463  0.910495
O    1.397444  -1.199895  3.394428
H    2.221521  -1.700524  3.551931
H    0.625459  -4.567653  1.488531
