19
Energy: -15015.5379503 eV PBE+vdW (tier 2 basis)
N    -0.809220  -0.524236  0.000774
C    -0.376348  -0.214656  1.376051
C    1.143853  -0.039096  1.402826
O    1.953835  -0.943633  1.463034
H    -0.308816  -1.347437  -0.342183
H    -0.574460  0.246308  -0.626529
H    -0.840733  0.740332  1.659369
C    -0.851818  -1.325874  2.315650
C    -0.795206  -0.987649  3.819135
C    0.610818  -0.815599  4.347409
O    1.181676  0.245829  4.499588
O    1.196087  -2.013068  4.622381
H    -0.273348  -2.240434  2.117803
H    -1.896503  -1.534433  2.048426
H    -1.282792  -1.798459  4.376055
H    -1.335863  -0.053948  4.019099
O    1.499513  1.264508  1.251606
H    2.476679  1.281691  1.241772
H    2.117817  -1.810782  4.874945
