19
Energy: -15015.592764 eV PBE+vdW (tier 2 basis)
N    0.120594  0.136209  -0.129953
C    0.003886  0.154825  1.339880
C    1.402157  -0.119081  1.954422
O    2.369283  -0.167045  1.031014
H    1.849165  -0.023004  0.174683
H    -0.335899  0.940280  -0.553667
H    -0.240776  1.182023  1.651130
C    -1.064160  -0.769557  1.962858
C    -0.720911  -2.261768  2.050956
C    -0.736526  -3.036428  0.745354
O    -0.964741  -2.574007  -0.352307
O    -0.480950  -4.369375  0.856383
H    -2.008154  -0.631973  1.416819
H    -1.234304  -0.423308  2.990524
H    -1.439893  -2.753716  2.726946
H    0.264898  -2.393035  2.527757
O    1.589443  -0.271258  3.144960
H    -0.302324  -0.714691  -0.515415
H    -0.298557  -4.595917  1.785247
