19
Energy: -15015.5809256 eV PBE+vdW (tier 2 basis)
N    0.757431  -0.483265  0.013712
C    0.264402  -0.041398  1.310206
C    1.344162  -0.287283  2.351730
O    2.226602  -1.116961  2.263976
H    -0.008541  -0.785046  -0.586321
H    1.401430  -1.266104  0.135502
H    0.087569  1.047084  1.290736
C    -1.067539  -0.686783  1.794551
C    -1.043646  -2.211766  1.916336
C    -1.318949  -2.945665  0.622246
O    -1.776599  -2.466862  -0.396595
O    -1.023256  -4.269592  0.736105
H    -1.853671  -0.395344  1.083553
H    -1.334458  -0.243125  2.763731
H    -1.823751  -2.544317  2.619627
H    -0.098062  -2.588741  2.332706
O    1.190106  0.511187  3.442440
H    1.895879  0.253481  4.066848
H    -1.260090  -4.673297  -0.121569
