19
Energy: -15015.472542 eV PBE+vdW (tier 2 basis)
N    -0.347631  -0.376015  0.019594
C    -0.134625  -0.222201  1.458602
C    1.266325  -0.578116  1.962187
O    1.860797  0.016911  2.837280
H    -0.177293  -1.343094  -0.261197
H    0.316554  0.196117  -0.502547
H    -0.261885  0.841794  1.707349
C    -1.216594  -1.023373  2.213772
C    -1.339791  -0.736182  3.713998
C    -0.340748  -1.363469  4.664771
O    -0.079800  -0.939635  5.768490
O    0.203462  -2.519166  4.176726
H    -1.065054  -2.098942  2.042746
H    -2.163457  -0.754588  1.725261
H    -2.321327  -1.099605  4.060287
H    -1.330813  0.341593  3.923153
O    1.790878  -1.661479  1.321212
H    2.656059  -1.825580  1.743180
H    0.799245  -2.838953  4.881714
