19
Energy: -15015.5572091 eV PBE+vdW (tier 2 basis)
N    0.017815  0.548972  -0.088437
C    -0.009113  0.181405  1.320549
C    1.294159  -0.526218  1.657506
O    2.018285  -1.078415  0.855169
H    0.550806  -0.136993  -0.624242
H    -0.921594  0.617914  -0.475529
H    -0.044319  1.094283  1.937681
C    -1.212431  -0.694673  1.765970
C    -1.234618  -2.090292  1.146868
C    -2.570366  -2.778638  1.303029
O    -3.636072  -2.234750  1.505018
O    -2.452070  -4.130304  1.161943
H    -2.132355  -0.160086  1.488678
H    -1.218866  -0.767775  2.862906
H    -0.449730  -2.742873  1.552995
H    -1.038768  -2.035188  0.061739
O    1.546079  -0.510970  2.993623
H    2.371907  -1.017646  3.119061
H    -3.358603  -4.486812  1.239244
