19
Energy: -15015.5847508 eV PBE+vdW (tier 2 basis)
N    2.377325  -0.692022  3.087210
C    1.576972  -1.130144  1.927498
C    1.196507  0.105991  1.072011
O    0.413665  0.058557  0.150238
H    3.125660  -1.349071  3.298267
H    1.804198  -0.604862  3.927254
H    2.242658  -1.718889  1.276882
C    0.351274  -2.002217  2.241924
C    -0.734227  -1.275334  3.060567
C    -1.834794  -2.237149  3.443329
O    -2.796019  -2.522322  2.764280
O    -1.601885  -2.803768  4.667053
H    0.693694  -2.897540  2.781865
H    -0.089458  -2.335262  1.293436
H    -1.180297  -0.476818  2.455384
H    -0.318458  -0.837818  3.979607
O    1.846497  1.224967  1.439419
H    2.396232  0.927353  2.218982
H    -2.335545  -3.432651  4.812792
