19
Energy: -15015.5555362 eV PBE+vdW (tier 2 basis)
N    -0.328562  -0.398244  0.158390
C    -0.171167  -0.230222  1.598149
C    1.278108  0.039048  2.018056
O    2.257517  -0.215189  1.347753
H    -0.299145  0.510839  -0.302759
H    0.469790  -0.918003  -0.213054
H    -0.768230  0.636426  1.916964
C    -0.719909  -1.450556  2.375418
C    -0.000258  -2.770401  2.042861
C    -0.539421  -3.888663  2.902994
O    -0.250558  -4.083969  4.065260
O    -1.439631  -4.663453  2.230298
H    -1.783882  -1.540093  2.117185
H    -0.647105  -1.254842  3.453965
H    1.073806  -2.687054  2.258236
H    -0.133086  -3.019379  0.983086
O    1.353515  0.579330  3.264272
H    2.304973  0.674643  3.467007
H    -1.751190  -5.329222  2.874551
