19
Energy: -15015.38401 eV PBE+vdW (tier 2 basis)
N    0.534077  -0.650886  3.868980
C    0.434609  -1.283571  2.561562
C    1.654993  -1.005325  1.658903
O    1.890086  -1.907050  0.658744
H    1.244243  -2.633544  0.709762
H    0.865907  0.309063  3.743054
H    0.354192  -2.373272  2.720897
C    -0.836496  -0.801607  1.825806
C    -2.116734  -1.181424  2.586944
C    -3.352999  -0.694436  1.872180
O    -4.110943  -1.380444  1.218268
O    -3.525005  0.652350  2.019956
H    -0.866914  -1.224057  0.809958
H    -0.776381  0.291109  1.712187
H    -2.068193  -0.749619  3.594947
H    -2.200614  -2.271798  2.674316
O    2.369391  -0.040253  1.781058
H    1.244911  -1.117205  4.432772
H    -4.323130  0.877972  1.503706
