19
Energy: -15015.5696735 eV PBE+vdW (tier 2 basis)
N    0.674653  -1.886721  1.404393
C    -0.030459  -0.597386  1.469842
C    0.694642  0.485165  0.672469
O    1.868042  0.863133  1.269630
H    2.276970  1.511261  0.664235
H    1.646030  -1.778943  1.701300
H    -1.001313  -0.720654  0.973160
C    -0.257693  -0.181538  2.932111
C    -1.125547  -1.175167  3.701142
C    -2.595487  -1.095386  3.360087
O    -3.118149  -0.303533  2.602934
O    -3.309619  -2.045380  4.030695
H    -0.721042  0.814779  2.951435
H    0.717328  -0.091481  3.432410
H    -1.035896  -1.018519  4.786739
H    -0.786282  -2.205787  3.518611
O    0.333492  0.939629  -0.392117
H    0.688259  -2.239718  0.447640
H    -4.239928  -1.917753  3.761284
