19
Energy: -15015.4842416 eV PBE+vdW (tier 2 basis)
N    -0.553706  0.288613  0.560949
C    -0.249925  -0.096145  1.935176
C    1.231086  -0.146215  2.337500
O    1.639211  -0.036778  3.473669
H    -0.007158  -0.262254  -0.101187
H    -0.296793  1.261940  0.399751
H    -0.688301  0.661155  2.600935
C    -0.924422  -1.436615  2.306862
C    -0.479479  -2.626462  1.435281
C    -1.130920  -3.905880  1.904375
O    -0.626226  -4.730301  2.636644
O    -2.404858  -4.028781  1.426851
H    -2.007588  -1.291979  2.199452
H    -0.712875  -1.652870  3.363337
H    0.605184  -2.776131  1.498345
H    -0.758553  -2.447655  0.387866
O    2.062922  -0.353623  1.274142
H    2.964489  -0.397903  1.648699
H    -2.753665  -4.857275  1.809659
