19
Energy: -15015.6091725 eV PBE+vdW (tier 2 basis)
N    -0.026257  -0.961022  -0.131715
C    -0.234656  -0.446982  1.235058
C    1.042643  -0.702855  2.078882
O    2.086932  -1.122876  1.343378
H    -0.460537  -1.876288  -0.256335
H    1.710079  -1.181412  0.419611
H    -0.310733  0.650996  1.170280
C    -1.471569  -0.989322  1.960338
C    -2.789782  -0.510523  1.330936
C    -3.997883  -1.078104  2.039472
O    -4.764288  -0.459255  2.744731
O    -4.131035  -2.418091  1.803445
H    -1.415106  -0.672437  3.010061
H    -1.432000  -2.090162  1.960720
H    -2.838901  -0.811223  0.272946
H    -2.865829  0.582496  1.384478
O    1.096184  -0.515818  3.273173
H    -0.403641  -0.339491  -0.843323
H    -4.911390  -2.704057  2.316868
