19
Energy: -15015.6466236 eV PBE+vdW (tier 2 basis)
N    0.506170  0.672803  1.124012
C    0.207918  -0.420768  2.067807
C    1.526893  -1.134446  2.450710
O    2.626691  -0.441040  2.096906
H    2.255918  0.352643  1.618794
H    -0.084358  1.487108  1.278358
H    -0.150486  0.038171  3.001838
C    -0.836987  -1.447127  1.605933
C    -2.220752  -0.876158  1.299308
C    -2.954502  -0.301453  2.490963
O    -2.515212  -0.164604  3.613933
O    -4.221161  0.072764  2.150189
H    -0.905411  -2.220918  2.381012
H    -0.462297  -1.952891  0.701341
H    -2.865603  -1.651979  0.860883
H    -2.178347  -0.083955  0.533137
O    1.569737  -2.194640  3.032936
H    0.389091  0.379762  0.153207
H    -4.623300  0.432729  2.964734
