19
Energy: -15015.4842611 eV PBE+vdW (tier 2 basis)
N    -0.769380  0.031523  0.953176
C    0.324151  0.004410  1.939634
C    1.596819  -0.573480  1.264006
O    1.497320  -0.626646  -0.073453
H    0.562593  -0.308309  -0.244821
H    -1.386305  0.829657  1.097925
H    0.581411  1.053837  2.161563
C    0.047976  -0.718733  3.265034
C    -0.851261  0.061030  4.245506
C    -2.239209  0.347620  3.697951
O    -2.580283  1.395712  3.200797
O    -3.128141  -0.694290  3.740043
H    1.015892  -0.903584  3.749480
H    -0.380337  -1.712199  3.047876
H    -0.391797  1.029765  4.478501
H    -0.929130  -0.501495  5.188853
O    2.584607  -0.909454  1.879528
H    -1.347473  -0.807993  1.014469
H    -2.727454  -1.452370  4.199931
