19
Energy: -15015.5350047 eV PBE+vdW (tier 2 basis)
N    -0.199260  0.526341  0.162902
C    0.127564  0.112210  1.525147
C    1.611866  -0.225902  1.552468
O    2.203944  -0.807518  0.668086
H    0.223301  -0.128295  -0.498543
H    -1.208695  0.503509  0.018749
H    -0.036490  0.961284  2.207380
C    -0.696094  -1.097160  2.039901
C    -0.451729  -1.470518  3.500948
C    -1.481379  -2.440241  4.036225
O    -2.545339  -2.712861  3.521825
O    -1.076709  -2.985800  5.219569
H    -0.500914  -1.961159  1.387203
H    -1.758899  -0.845515  1.912477
H    -0.490723  -0.576365  4.146158
H    0.545768  -1.900143  3.666409
O    2.209498  0.163971  2.711046
H    3.139630  -0.130958  2.647477
H    -1.804134  -3.572011  5.505812
