19
Energy: -15015.5560018 eV PBE+vdW (tier 2 basis)
N    -0.055146  1.370784  -0.130131
C    -0.270238  0.951968  1.255354
C    0.947566  1.109382  2.167362
O    0.950398  1.647608  3.255221
H    0.741562  0.876983  -0.535063
H    0.157453  2.367269  -0.175371
H    -1.045891  1.596534  1.688354
C    -0.775851  -0.503752  1.274722
C    -1.055827  -1.076832  2.663069
C    -2.227388  -0.432725  3.373124
O    -3.038565  0.322071  2.879342
O    -2.289648  -0.829217  4.675516
H    -0.033012  -1.142220  0.773180
H    -1.688258  -0.524147  0.664600
H    -0.181101  -1.020643  3.327757
H    -1.288632  -2.150559  2.584712
O    2.074495  0.554012  1.624948
H    2.785842  0.703408  2.277105
H    -3.073067  -0.384414  5.053374
