19
Energy: -15015.5014252 eV PBE+vdW (tier 2 basis)
N    -0.217561  0.085357  0.005119
C    -0.095999  -0.173509  1.446829
C    1.334415  0.071775  1.930982
O    1.714499  1.062223  2.518811
H    0.038625  1.049915  -0.207954
H    0.416653  -0.518621  -0.520819
H    -0.710324  0.575793  1.964628
C    -0.621824  -1.578084  1.762146
C    -0.572026  -1.962347  3.245250
C    -1.411907  -1.131096  4.192890
O    -1.113216  -0.862007  5.336071
O    -2.593291  -0.734434  3.632141
H    -0.034495  -2.315457  1.195069
H    -1.651337  -1.628166  1.385322
H    0.451335  -1.950146  3.641421
H    -0.928714  -2.999241  3.355522
O    2.187174  -0.933535  1.560425
H    3.074632  -0.651115  1.854928
H    -3.061455  -0.237852  4.331140
