19
Energy: -15015.4959883 eV PBE+vdW (tier 2 basis)
N    0.798150  -1.052411  0.460718
C    0.071904  -0.108267  1.329511
C    0.984429  1.002840  1.887823
O    0.931288  2.145676  1.484605
H    1.046505  -0.582088  -0.409374
H    1.679373  -1.343233  0.888691
H    -0.626753  0.427723  0.677384
C    -0.769429  -0.824804  2.438255
C    -0.566425  -2.332790  2.591243
C    0.724389  -2.744249  3.241207
O    1.699545  -2.029028  3.436790
O    0.729319  -4.046237  3.597639
H    -1.829305  -0.671855  2.198633
H    -0.609647  -0.330401  3.406840
H    -0.586059  -2.821653  1.603965
H    -1.387952  -2.779521  3.168585
O    1.891252  0.638453  2.822895
H    1.796621  -0.320530  3.060875
H    1.608413  -4.228004  3.984988
