19
Energy: -15015.4500404 eV PBE+vdW (tier 2 basis)
N    0.438441  -0.333480  -0.229657
C    0.049362  -0.127453  1.165555
C    1.263381  -0.242075  2.076132
O    1.485719  0.464774  3.035426
H    0.791232  -1.281217  -0.369452
H    -0.374756  -0.218369  -0.835135
H    -0.294288  0.910461  1.268730
C    -1.072282  -1.075412  1.674745
C    -1.589722  -0.804227  3.091338
C    -2.331611  0.495755  3.326149
O    -2.502170  1.007602  4.410222
O    -2.844538  1.032665  2.176526
H    -0.700798  -2.110460  1.624389
H    -1.901738  -1.000566  0.957406
H    -0.788256  -0.837580  3.840990
H    -2.296912  -1.600304  3.375887
O    2.063189  -1.292583  1.733619
H    2.793353  -1.296641  2.382347
H    -3.317105  1.840533  2.456884
