19
Energy: -15015.221258 eV PBE+vdW (tier 2 basis)
N    0.085872  0.270868  -0.301212
C    0.329015  0.407459  1.125650
C    1.580932  -0.307908  1.682667
O    2.083072  -1.301670  0.906700
H    1.549882  -1.307170  0.083067
H    -0.387189  -0.578256  -0.597013
H    0.489348  1.474678  1.347573
C    -0.925693  -0.070140  1.885911
C    -0.937123  0.268345  3.373722
C    -2.177560  -0.261118  4.075660
O    -3.085029  -0.848528  3.538776
O    -2.225298  -0.025755  5.423379
H    -1.039317  -1.158359  1.759833
H    -1.795573  0.389146  1.397223
H    -0.897642  1.360767  3.520510
H    -0.041397  -0.129136  3.875741
O    2.083666  -0.031839  2.749049
H    0.845436  0.536113  -0.919909
H    -1.414402  0.432503  5.705674
