19
Energy: -15015.4779368 eV PBE+vdW (tier 2 basis)
N    0.151294  -0.025110  -0.118232
C    0.066874  0.011408  1.335666
C    1.483431  -0.023569  1.888855
O    2.427539  -0.562003  1.349293
H    0.886090  -0.670707  -0.411496
H    -0.729536  -0.318441  -0.537761
H    -0.369301  0.973360  1.648150
C    -0.808592  -1.092089  2.005756
C    -0.473851  -2.542265  1.639591
C    0.764720  -3.173556  2.241368
O    1.415250  -4.051862  1.719859
O    1.050090  -2.691508  3.487968
H    -1.843662  -0.895367  1.686731
H    -0.790324  -0.954891  3.095653
H    -0.393402  -2.679398  0.553667
H    -1.309712  -3.185215  1.961019
O    1.570047  0.601421  3.090978
H    2.489206  0.474185  3.396271
H    1.842245  -3.183637  3.778985
