19
Energy: -15015.6336227 eV PBE+vdW (tier 2 basis)
N    -0.197905  -1.190258  0.083461
C    0.223692  -0.445964  1.263244
C    1.745150  -0.197800  1.357486
O    2.556897  -0.745455  0.644750
H    -0.051754  -0.620089  -0.750856
H    0.426762  -1.992578  -0.035969
H    -0.244722  0.549617  1.203061
C    -0.278442  -1.154471  2.553219
C    -1.529773  -0.515565  3.146768
C    -1.275915  0.852166  3.731840
O    -0.215558  1.461297  3.710474
O    -2.378879  1.372408  4.314285
H    0.509706  -1.186387  3.318145
H    -0.503615  -2.195031  2.286984
H    -1.965758  -1.136198  3.944516
H    -2.323021  -0.417936  2.387904
O    2.123391  0.682935  2.311798
H    1.330059  0.999973  2.811577
H    -2.125316  2.251336  4.659314
