19
Energy: -15015.5158119 eV PBE+vdW (tier 2 basis)
N    -0.338908  -0.156584  0.419659
C    0.094015  -0.209648  1.811967
C    1.509798  0.308700  2.128096
O    2.142596  0.047520  3.131328
H    0.319626  -0.649457  -0.186012
H    -0.369832  0.808352  0.094278
H    -0.561672  0.479351  2.374626
C    -0.124275  -1.597509  2.444555
C    0.786608  -2.736932  1.936868
C    0.520642  -3.150871  0.509414
O    1.122411  -2.753672  -0.470755
O    -0.505740  -4.040475  0.420637
H    -1.177599  -1.866072  2.291018
H    0.044224  -1.508871  3.525025
H    0.630996  -3.610374  2.583348
H    1.840429  -2.441992  2.009351
O    1.981426  1.150487  1.167322
H    2.858376  1.444206  1.482701
H    -0.631118  -4.212223  -0.533131
