19
Energy: -15015.5906024 eV PBE+vdW (tier 2 basis)
N    0.028286  0.186658  0.106822
C    0.492246  -0.097573  1.479914
C    2.039534  -0.161759  1.473678
O    2.703102  -0.557589  2.408667
H    -0.789313  0.793875  0.108953
H    -0.234777  -0.673335  -0.377124
H    0.238455  0.778599  2.095247
C    -0.151883  -1.349697  2.107834
C    0.038526  -1.523813  3.618929
C    -0.748059  -0.619882  4.540564
O    -0.789071  -0.733446  5.745784
O    -1.432506  0.372599  3.885186
H    0.261309  -2.240063  1.607909
H    -1.225847  -1.322765  1.872550
H    1.099748  -1.398697  3.881165
H    -0.221689  -2.549036  3.918078
O    2.583208  0.295031  0.332327
H    1.784428  0.520314  -0.227246
H    -1.882878  0.879519  4.588878
