19
Energy: -15015.4951742 eV PBE+vdW (tier 2 basis)
N    0.616285  0.284313  0.154106
C    0.341081  -0.263027  1.479335
C    1.630387  -0.647147  2.198979
O    1.807946  -0.550268  3.394956
H    0.897028  -0.445582  -0.500963
H    -0.207548  0.747117  -0.226918
H    -0.091700  0.544952  2.087042
C    -0.612950  -1.487838  1.557358
C    -1.995831  -1.207699  0.963556
C    -2.043916  -1.310191  -0.546012
O    -1.433941  -2.110353  -1.223906
O    -2.911884  -0.403893  -1.085174
H    -0.722560  -1.773992  2.613023
H    -0.161711  -2.341719  1.030593
H    -2.392086  -0.233639  1.281594
H    -2.708515  -1.964189  1.329973
O    2.552592  -1.182203  1.354732
H    3.317119  -1.425717  1.911818
H    -2.920898  -0.581848  -2.046316
