19
Energy: -15015.6626819 eV PBE+vdW (tier 2 basis)
N    0.353196  0.637532  -0.003004
C    0.192625  0.015660  1.322357
C    1.585217  -0.049695  2.001222
O    2.473939  0.788846  1.440759
H    1.968087  1.173503  0.666272
H    -0.546686  1.010005  -0.310450
H    -0.361605  0.744104  1.939539
C    -0.534862  -1.341503  1.387240
C    -2.020741  -1.293053  1.749831
C    -2.937767  -0.574980  0.786266
O    -2.616522  0.206766  -0.089505
O    -4.239390  -0.891272  1.024558
H    -0.033752  -1.946970  2.154895
H    -0.398325  -1.864506  0.428265
H    -2.155462  -0.802021  2.729024
H    -2.416023  -2.309253  1.889545
O    1.835811  -0.744536  2.961415
H    0.603488  -0.077752  -0.689662
H    -4.767229  -0.363873  0.393434
