19
Energy: -15015.3686031 eV PBE+vdW (tier 2 basis)
N    1.357408  -0.081191  3.436783
C    0.502934  -0.428910  2.305611
C    0.306220  0.744164  1.322235
O    0.381571  0.445724  -0.012497
H    0.585989  -0.499745  -0.118931
H    0.969474  0.742050  3.903846
H    0.984474  -1.271761  1.777416
C    -0.865546  -0.893741  2.834010
C    -1.827812  -1.371771  1.750753
C    -3.136984  -1.883471  2.311202
O    -3.456357  -1.906600  3.479676
O    -3.951811  -2.332663  1.313102
H    -1.322171  -0.063244  3.392371
H    -0.679751  -1.694419  3.561436
H    -1.391395  -2.184805  1.147144
H    -2.074332  -0.572912  1.033299
O    0.083254  1.877803  1.672683
H    2.285340  0.192105  3.110217
H    -4.770505  -2.635613  1.751644
