19
Energy: -15015.4717156 eV PBE+vdW (tier 2 basis)
N    0.082671  0.372599  0.260019
C    0.337501  -0.036667  1.640842
C    1.769485  -0.539087  1.779743
O    2.519411  -0.270595  2.693150
H    0.161362  -0.425501  -0.371524
H    -0.865567  0.739078  0.172892
H    0.284807  0.858811  2.276293
C    -0.649226  -1.097526  2.196932
C    -0.433112  -1.447781  3.682207
C    -1.453078  -2.465577  4.131372
O    -1.364952  -3.666590  3.984765
O    -2.544903  -1.873887  4.702234
H    -0.579085  -2.009936  1.586088
H    -1.663853  -0.692787  2.061163
H    -0.507719  -0.542989  4.299145
H    0.560027  -1.888640  3.832284
O    2.106052  -1.391636  0.771905
H    3.021334  -1.680060  0.953752
H    -3.157249  -2.602904  4.922868
