19
Energy: -15015.6867948 eV PBE+vdW (tier 2 basis)
N    -0.386120  -0.483481  0.211554
C    -0.023694  -0.323535  1.629762
C    1.509342  -0.151429  1.751898
O    2.102942  0.108527  0.572707
H    1.346215  0.070254  -0.079664
H    -1.303348  -0.077410  0.026107
H    -0.436489  0.648066  1.946593
C    -0.523977  -1.410621  2.591722
C    -2.053438  -1.623609  2.575850
C    -2.809360  -0.334721  2.792374
O    -3.104881  0.457645  1.916845
O    -3.098917  -0.118493  4.102631
H    -0.183783  -1.154455  3.603107
H    -0.043798  -2.369180  2.339961
H    -2.323039  -2.350332  3.351522
H    -2.374427  -2.020864  1.604134
O    2.108524  -0.213129  2.802329
H    -0.425595  -1.468632  -0.054558
H    -3.545157  0.750400  4.145126
