19
Energy: -15015.49105 eV PBE+vdW (tier 2 basis)
N    0.146133  0.116402  -0.534533
C    0.059867  -0.114734  0.910600
C    1.363821  0.240377  1.617225
O    1.791159  -0.294017  2.616699
H    0.665111  0.972686  -0.723519
H    -0.789942  0.245749  -0.918813
H    -0.684573  0.551486  1.403478
C    -0.321281  -1.567943  1.229691
C    -1.642831  -2.021920  0.580352
C    -2.814825  -1.180731  1.028175
O    -3.389963  -1.264135  2.091360
O    -3.159186  -0.245142  0.084636
H    -0.381449  -1.688629  2.318410
H    0.479330  -2.227458  0.867494
H    -1.847846  -3.054421  0.889375
H    -1.559491  -1.998854  -0.513043
O    1.997705  1.293004  1.022341
H    2.794695  1.461893  1.561085
H    -3.899435  0.262389  0.471988
