19
Energy: -15015.3728137 eV PBE+vdW (tier 2 basis)
N    0.736781  0.467298  3.151136
C    0.116987  -0.338662  2.110708
C    0.977584  -0.478638  0.852093
O    0.567571  -1.520879  0.074890
H    1.143474  -1.520642  -0.714908
H    1.429415  -0.077670  3.662710
H    -0.052565  -1.353271  2.502942
C    -1.252582  0.266874  1.711268
C    -2.278224  0.209421  2.846407
C    -2.726803  -1.175117  3.301606
O    -3.007210  -1.446709  4.442901
O    -2.842260  -2.138216  2.332269
H    -1.624421  -0.223965  0.795945
H    -1.092061  1.319126  1.430955
H    -3.189879  0.752779  2.549171
H    -1.880792  0.713917  3.734297
O    1.896647  0.251071  0.548962
H    1.242758  1.245226  2.721798
H    -2.569419  -1.774944  1.470853
