19
Energy: -15015.4647188 eV PBE+vdW (tier 2 basis)
N    0.513719  0.465501  3.210665
C    0.269450  -0.444143  2.095250
C    1.413635  -0.456718  1.080350
O    1.424824  -1.591322  0.332866
H    2.156667  -1.491318  -0.307422
H    1.173341  0.047570  3.866245
H    0.146560  -1.465490  2.481605
C    -1.032936  -0.059457  1.351424
C    -2.246795  -0.040285  2.276498
C    -2.718324  -1.424501  2.695941
O    -2.301828  -2.469046  2.256159
O    -3.707267  -1.437729  3.643447
H    -1.199073  -0.765648  0.527609
H    -0.902535  0.941574  0.912373
H    -3.093111  0.462782  1.780906
H    -2.006247  0.546614  3.177618
O    2.212810  0.444893  0.926934
H    0.967483  1.311573  2.856875
H    -3.911374  -0.524850  3.911656
