19
Energy: -15015.3474706 eV PBE+vdW (tier 2 basis)
N    -0.287266  -0.285758  -0.212291
C    0.206365  -0.276608  1.155517
C    1.737840  -0.325882  1.137232
O    2.392491  -0.654892  0.176171
H    -1.181687  -0.766128  -0.290767
H    0.396015  -0.763432  -0.804905
H    -0.060549  0.692928  1.617771
C    -0.333281  -1.408693  2.087320
C    -1.545130  -0.983877  2.916197
C    -1.311878  0.086727  3.961864
O    -2.177876  0.714845  4.522756
O    0.022965  0.276022  4.264293
H    0.453714  -1.772672  2.762456
H    -0.604021  -2.263434  1.452120
H    -1.953599  -1.846758  3.467096
H    -2.370790  -0.620778  2.287284
O    2.335003  0.009310  2.309662
H    1.648121  0.208285  2.980245
H    0.033973  0.955171  4.967575
