19
Energy: -15015.5036549 eV PBE+vdW (tier 2 basis)
N    -0.326892  0.873259  0.907480
C    -0.091759  -0.052205  2.018270
C    1.376618  -0.366131  2.321223
O    1.844689  -0.504392  3.429390
H    0.210977  0.593277  0.086639
H    0.003038  1.806134  1.154538
H    -0.460675  0.427127  2.934972
C    -0.920329  -1.348264  1.848426
C    -0.696802  -2.129707  0.551692
C    0.510357  -3.041348  0.557675
O    1.065797  -3.487327  1.539280
O    0.895250  -3.360556  -0.711688
H    -1.972494  -1.036382  1.884004
H    -0.736568  -2.006308  2.708818
H    -0.658642  -1.477746  -0.331052
H    -1.561406  -2.791174  0.377165
O    2.127779  -0.475902  1.183130
H    3.020470  -0.737591  1.480747
H    1.638028  -3.987744  -0.614360
