19
Energy: -15015.3020254 eV PBE+vdW (tier 2 basis)
N    -0.076034  -0.473056  3.176098
C    0.047765  -0.706799  1.732441
C    1.020298  0.295895  1.082372
O    0.507427  1.512460  0.717153
H    -0.460917  1.505360  0.825557
H    -0.438703  0.460463  3.375896
H    0.536392  -1.684121  1.610360
C    -1.334011  -0.768268  1.069843
C    -2.237000  -1.853607  1.669975
C    -2.826431  -1.572331  3.035045
O    -3.016633  -2.398676  3.898495
O    -3.229290  -0.268226  3.167344
H    -1.199454  -0.965051  -0.003661
H    -1.859498  0.199501  1.150226
H    -1.710901  -2.813353  1.743312
H    -3.096859  -2.013634  0.999440
O    2.202983  0.083009  0.959643
H    0.833533  -0.554721  3.630284
H    -3.636667  -0.214848  4.053178
