19
Energy: -15015.5208877 eV PBE+vdW (tier 2 basis)
N    0.785829  -0.345311  0.307351
C    -0.029118  -0.042730  1.474661
C    0.756810  0.904942  2.374926
O    1.744124  1.522673  2.036630
H    1.413373  0.431385  0.099909
H    0.213683  -0.547989  -0.508641
H    -0.951503  0.530187  1.235976
C    -0.478311  -1.332337  2.189653
C    0.686026  -2.237880  2.607278
C    1.413513  -2.960648  1.494596
O    2.612105  -3.126219  1.430594
O    0.548957  -3.526623  0.595094
H    -1.147679  -1.882663  1.514116
H    -1.069896  -1.062927  3.074065
H    0.297233  -3.023389  3.275232
H    1.445954  -1.688495  3.177147
O    0.199114  1.028243  3.610095
H    0.747244  1.682951  4.084383
H    1.119132  -3.995385  -0.043628
