19
Energy: -15015.2879926 eV PBE+vdW (tier 2 basis)
N    0.198804  0.607586  0.040707
C    0.083586  0.223000  1.454742
C    1.478540  -0.137089  2.018019
O    2.277072  0.722414  2.316857
H    0.575654  -0.167107  -0.509842
H    0.859261  1.380731  -0.052420
H    -0.217183  1.124966  2.008224
C    -1.004495  -0.842319  1.598525
C    -1.303330  -1.255517  3.058643
C    -1.394374  -2.744774  3.289716
O    -2.237962  -3.327702  3.928649
O    -0.343582  -3.405256  2.692825
H    -0.735080  -1.724249  0.996530
H    -1.912877  -0.442643  1.130955
H    -2.235071  -0.812770  3.423844
H    -0.503758  -0.897150  3.729774
O    1.846573  -1.448381  2.070285
H    1.085911  -2.050039  1.945428
H    -0.441688  -4.349703  2.919540
