19
Energy: -15015.3735724 eV PBE+vdW (tier 2 basis)
N    0.396314  -0.700128  0.492182
C    -0.308066  -0.143190  1.639258
C    0.453490  0.918752  2.479223
O    0.092712  1.286168  3.572193
H    0.397683  -0.129407  -0.346211
H    1.311197  -1.094420  0.696483
H    -1.163673  0.424574  1.237373
C    -0.914814  -1.237974  2.542486
C    0.017519  -2.405603  2.926306
C    1.202629  -2.003279  3.770883
O    1.304377  -2.115936  4.970196
O    2.201891  -1.458399  2.998293
H    -1.768286  -1.675840  2.007991
H    -1.300433  -0.754951  3.449258
H    0.375391  -2.905470  2.015032
H    -0.557347  -3.132870  3.510236
O    1.535227  1.473368  1.873443
H    1.667337  0.979332  1.037588
H    2.889825  -1.153133  3.621449
