19
Energy: -15015.4819778 eV PBE+vdW (tier 2 basis)
N    0.163537  -0.205072  -0.357663
C    0.286414  0.281811  1.029257
C    1.577725  -0.303784  1.647461
O    2.087871  -1.326324  0.941710
H    1.489101  -1.372488  0.140489
H    0.540869  0.463300  -1.027831
H    0.381834  1.378332  1.083718
C    -0.943640  -0.154831  1.844474
C    -0.954015  0.341991  3.287660
C    -2.246468  -0.012929  4.006382
O    -3.232948  -0.467259  3.479068
O    -2.250187  0.237560  5.351090
H    -1.017033  -1.253081  1.830912
H    -1.844552  0.220849  1.336536
H    -0.844449  1.439394  3.318218
H    -0.092388  -0.052814  3.846086
O    2.062571  0.101580  2.682895
H    -0.808027  -0.381601  -0.610394
H    -1.378215  0.572367  5.624931
