19
Energy: -15015.4953642 eV PBE+vdW (tier 2 basis)
N    -0.676878  -0.254710  0.006900
C    -0.022509  -0.322836  1.309942
C    1.519615  -0.363134  1.198914
O    2.092707  -0.855065  0.253256
H    -0.500492  0.655443  -0.420295
H    -0.232971  -0.936946  -0.613994
H    -0.316653  0.575550  1.875126
C    -0.544223  -1.576664  2.047791
C    -0.053425  -1.802124  3.494670
C    -0.503602  -0.710063  4.433631
O    -1.510594  -0.697582  5.099878
O    0.377305  0.357989  4.442083
H    -0.262254  -2.460988  1.456864
H    -1.640658  -1.519604  2.032467
H    1.040683  -1.893678  3.528800
H    -0.486295  -2.737047  3.868269
O    2.226032  0.175185  2.226935
H    1.620300  0.470734  2.939795
H    -0.006462  1.025028  5.044663
