19
Energy: -15015.6605934 eV PBE+vdW (tier 2 basis)
N    -0.381209  0.786650  0.455788
C    -0.086722  -0.020144  1.647231
C    1.392232  -0.483767  1.573475
O    1.837756  -1.409637  2.215602
H    -1.168138  1.416429  0.597060
H    -0.569730  0.187373  -0.351840
H    -0.091456  0.673181  2.505607
C    -1.040700  -1.175846  2.009597
C    -1.519286  -2.063285  0.839659
C    -0.382705  -2.575867  -0.012016
O    0.134289  -1.943303  -0.916717
O    0.030569  -3.811373  0.351658
H    -1.938188  -0.760432  2.489570
H    -0.527577  -1.795844  2.756857
H    -2.181592  -1.490765  0.176458
H    -2.091178  -2.905153  1.247652
O    2.145172  0.286346  0.770953
H    1.485573  0.899227  0.343240
H    0.817225  -4.011976  -0.193261
