19
Energy: -15015.4774723 eV PBE+vdW (tier 2 basis)
N    0.321516  0.403003  0.657231
C    -0.011347  -0.455176  1.790502
C    1.251821  -0.986544  2.458552
O    1.402875  -1.126281  3.652426
H    0.725236  -0.132121  -0.111717
H    -0.510553  0.881424  0.314552
H    -0.489292  0.175218  2.553627
C    -0.935682  -1.673953  1.509765
C    -2.283419  -1.299527  0.865811
C    -3.096922  -0.384634  1.752943
O    -3.697302  -0.716017  2.751439
O    -3.056173  0.912669  1.316096
H    -1.119188  -2.205099  2.455120
H    -0.415783  -2.372041  0.836326
H    -2.869399  -2.215394  0.717118
H    -2.127935  -0.829064  -0.113142
O    2.194315  -1.356173  1.545455
H    2.946302  -1.703774  2.062844
H    -3.576660  1.430233  1.961972
