19
Energy: -15015.4504292 eV PBE+vdW (tier 2 basis)
N    0.977199  1.936069  0.387242
C    -0.237859  1.208764  0.749209
C    -0.166403  0.635616  2.161080
O    -1.153534  0.407609  2.834097
H    0.856912  2.379734  -0.523522
H    1.181984  2.675675  1.058542
H    -1.154637  1.829619  0.762314
C    -0.452903  0.077074  -0.283772
C    -1.722607  -0.753638  -0.097509
C    -1.567686  -1.908206  0.870783
O    -0.518436  -2.382546  1.253298
O    -2.779072  -2.404015  1.242720
H    0.430839  -0.574634  -0.277098
H    -0.489154  0.563397  -1.270200
H    -2.016848  -1.205926  -1.058174
H    -2.579479  -0.143573  0.220126
O    1.093048  0.384823  2.586988
H    0.991918  -0.039539  3.461731
H    -2.589283  -3.148303  1.846146
