19
Energy: -15015.4591229 eV PBE+vdW (tier 2 basis)
N    -0.113849  0.238743  0.079586
C    -0.185497  -0.120214  1.496201
C    1.208048  -0.416865  2.036550
O    1.620826  -0.075549  3.120606
H    0.337277  -0.493417  -0.467993
H    -1.048778  0.385622  -0.301294
H    -0.507311  0.771106  2.052461
C    -1.184170  -1.253882  1.878227
C    -0.989974  -2.594286  1.169036
C    0.020983  -3.511818  1.821759
O    0.438883  -3.426393  2.956539
O    0.395506  -4.512506  0.973608
H    -2.186992  -0.871127  1.637076
H    -1.153796  -1.404461  2.966953
H    -0.722840  -2.470495  0.109577
H    -1.939121  -3.154048  1.160660
O    1.949696  -1.157232  1.159552
H    2.796217  -1.335196  1.613168
H    1.005862  -5.079548  1.483839
