19
Energy: -15015.4559843 eV PBE+vdW (tier 2 basis)
N    -0.000853  -0.846652  -0.237278
C    0.216079  -0.613456  1.184540
C    1.726621  -0.422465  1.399113
O    2.557417  -0.978517  0.717620
H    0.785417  -1.387516  -0.604738
H    -0.858512  -1.373244  -0.398849
H    -0.298679  0.320664  1.470415
C    -0.309936  -1.765144  2.084613
C    -0.224511  -1.557573  3.614662
C    -1.010976  -0.350598  4.063588
O    -2.193013  -0.310936  4.310065
O    -0.218789  0.780604  4.134979
H    0.239177  -2.682557  1.827459
H    -1.363935  -1.931313  1.815368
H    0.820122  -1.468769  3.939229
H    -0.666214  -2.429513  4.111485
O    2.100947  0.379206  2.424637
H    1.315544  0.728483  2.897170
H    -0.810946  1.515256  4.390792
