19
Energy: -15015.538484 eV PBE+vdW (tier 2 basis)
N    1.770035  0.410118  0.369578
C    0.488408  0.204574  1.071568
C    0.770244  -0.002764  2.576325
O    -0.060896  0.161064  3.436608
H    2.064773  1.385003  0.424657
H    1.696926  0.175075  -0.620315
H    -0.179903  1.077940  1.012265
C    -0.280587  -0.994402  0.481166
C    0.482732  -2.326650  0.441577
C    0.417560  -3.105703  1.741859
O    -0.536734  -3.149042  2.485820
O    1.564959  -3.806316  1.961451
H    -0.578214  -0.721405  -0.542770
H    -1.205536  -1.127439  1.058032
H    1.530213  -2.206769  0.138582
H    0.017469  -2.980185  -0.313368
O    2.035178  -0.406937  2.834068
H    2.485967  -0.374676  1.948426
H    1.427407  -4.288485  2.800471
