19
Energy: -15015.5280697 eV PBE+vdW (tier 2 basis)
N    -0.432139  0.656802  0.316066
C    -0.389396  0.161029  1.683169
C    1.021219  -0.329214  1.973914
O    1.829655  -0.666722  1.134502
H    -1.372511  0.608249  -0.071885
H    0.199940  0.116064  -0.275564
H    -0.589496  0.990457  2.381795
C    -1.412556  -0.956184  2.036770
C    -1.195189  -2.272409  1.270069
C    -2.284270  -3.268597  1.582954
O    -2.198117  -4.197666  2.357422
O    -3.434688  -2.988545  0.897940
H    -2.414037  -0.558493  1.814429
H    -1.376558  -1.145118  3.119299
H    -0.240711  -2.733836  1.549700
H    -1.184720  -2.077466  0.188352
O    1.266542  -0.390844  3.308862
H    2.166800  -0.758267  3.404164
H    -4.085177  -3.658169  1.185731
