19
Energy: -15015.5041512 eV PBE+vdW (tier 2 basis)
N    -0.117620  0.255950  0.139799
C    0.003253  0.177929  1.596200
C    1.457137  0.376010  2.027798
O    2.007440  -0.175804  2.957169
H    0.227260  1.151232  -0.204478
H    -1.107199  0.178653  -0.103251
H    -0.523754  1.008429  2.123899
C    -0.559652  -1.154684  2.129134
C    -1.925333  -1.067261  2.809317
C    -3.084570  -0.674904  1.922850
O    -3.037276  -0.390610  0.741316
O    -4.256092  -0.673896  2.617807
H    0.149148  -1.558176  2.863349
H    -0.592566  -1.860971  1.288261
H    -1.905537  -0.358041  3.652627
H    -2.186698  -2.034677  3.265666
O    2.076103  1.327468  1.275150
H    2.977600  1.412562  1.640873
H    -4.947921  -0.412901  1.979233
