19
Energy: -15015.5703298 eV PBE+vdW (tier 2 basis)
N    1.010640  1.658525  -0.069105
C    -0.108534  1.089056  0.679480
C    0.208343  0.920498  2.169339
O    1.223917  0.427481  2.614932
H    1.223830  2.598024  0.267967
H    1.849370  1.096357  0.092448
H    -0.963932  1.774460  0.590597
C    -0.485729  -0.271513  0.068878
C    -1.696944  -0.930347  0.722215
C    -2.115553  -2.208957  0.032841
O    -1.608992  -2.692014  -0.956748
O    -3.175415  -2.785574  0.672542
H    0.383697  -0.942573  0.135407
H    -0.671234  -0.106415  -1.000140
H    -2.569103  -0.256833  0.727528
H    -1.517313  -1.173469  1.781020
O    -0.792169  1.394511  2.967013
H    -0.505084  1.233815  3.888224
H    -3.382796  -3.595031  0.166562
