19
Energy: -15015.5145329 eV PBE+vdW (tier 2 basis)
N    -0.091898  0.027907  0.049106
C    -0.373166  0.308151  1.460154
C    0.862477  0.762609  2.241411
O    1.009780  1.850723  2.757319
H    0.629627  -0.689748  -0.036054
H    0.258031  0.863092  -0.421008
H    -1.066217  1.160175  1.499814
C    -1.040997  -0.913754  2.105867
C    -1.431328  -0.680699  3.576965
C    -2.174694  -1.875771  4.124832
O    -3.373617  -2.049050  4.069580
O    -1.324062  -2.791555  4.676353
H    -0.364057  -1.778176  2.034364
H    -1.934780  -1.146031  1.511010
H    -2.098606  0.186787  3.657031
H    -0.538436  -0.494669  4.188805
O    1.829175  -0.203532  2.274476
H    2.581215  0.184019  2.762216
H    -1.886214  -3.537396  4.963850
