19
Energy: -15015.4975351 eV PBE+vdW (tier 2 basis)
N    0.480750  -0.723757  0.164577
C    -0.053809  -0.298878  1.458607
C    0.990435  0.465263  2.271676
O    1.033424  0.526038  3.481889
H    1.016002  0.029427  -0.264176
H    -0.284671  -0.958298  -0.468895
H    -0.885118  0.438579  1.363778
C    -0.582052  -1.482478  2.284750
C    -1.941653  -2.045967  1.822085
C    -1.891464  -2.765342  0.494839
O    -2.093483  -2.261804  -0.594754
O    -1.570602  -4.079027  0.640391
H    -0.696837  -1.143939  3.322145
H    0.178555  -2.276098  2.281392
H    -2.671228  -1.230807  1.725068
H    -2.304609  -2.747808  2.583756
O    1.861738  1.147893  1.476664
H    2.455015  1.629472  2.084876
H    -1.516132  -4.445775  -0.263865
