19
Energy: -15015.5610058 eV PBE+vdW (tier 2 basis)
N    -0.411920  0.637606  0.356026
C    0.035650  -0.038704  1.571553
C    1.549133  -0.206431  1.734666
O    2.133067  -0.172758  2.800020
H    -0.093722  0.125410  -0.468259
H    -0.000512  1.569007  0.292577
H    -0.274528  0.570880  2.433548
C    -0.675818  -1.405913  1.671666
C    -0.434495  -2.183718  2.965834
C    0.830822  -3.015472  2.968365
O    1.479479  -3.330761  1.991720
O    1.150837  -3.422575  4.226211
H    -0.381107  -2.029326  0.814220
H    -1.746787  -1.189599  1.564244
H    -1.260488  -2.894190  3.130439
H    -0.424654  -1.530478  3.849456
O    2.183264  -0.417006  0.550763
H    3.115716  -0.601453  0.774974
H    1.959742  -3.962656  4.135812
