19
Energy: -15015.5491185 eV PBE+vdW (tier 2 basis)
N    0.871718  -0.361725  0.008865
C    0.177461  -0.029599  1.247600
C    1.195580  0.452810  2.274571
O    2.369480  0.660301  2.047320
H    1.786502  0.090725  -0.008077
H    0.342578  -0.062373  -0.806190
H    -0.524345  0.820300  1.133350
C    -0.656089  -1.225966  1.762937
C    0.216378  -2.448346  2.075508
C    -0.571047  -3.680289  2.440233
O    -0.449486  -4.326645  3.460125
O    -1.469255  -4.022386  1.466265
H    -1.379829  -1.482810  0.977735
H    -1.228256  -0.920168  2.649351
H    0.898847  -2.250812  2.911120
H    0.822445  -2.670535  1.182946
O    0.633729  0.651805  3.495797
H    1.352577  0.969894  4.075580
H    -1.915240  -4.827119  1.793820
