19
Energy: -15015.5389217 eV PBE+vdW (tier 2 basis)
N    0.933805  0.294237  0.185158
C    0.537783  -0.040449  1.544060
C    1.528948  -0.963055  2.269810
O    2.449023  -1.558302  1.753275
H    1.210433  -0.549011  -0.323077
H    1.758449  0.893749  0.198531
H    0.503358  0.891184  2.130534
C    -0.889326  -0.633249  1.598557
C    -1.071719  -1.982432  0.873953
C    -1.071987  -1.884753  -0.636368
O    -0.205761  -2.301589  -1.377797
O    -2.196684  -1.267727  -1.097117
H    -1.571806  0.111085  1.168228
H    -1.168482  -0.768152  2.651716
H    -2.040040  -2.405586  1.176324
H    -0.287807  -2.696988  1.155216
O    1.252267  -1.048940  3.604751
H    1.920666  -1.654974  3.980151
H    -2.094156  -1.215982  -2.067055
