19
Energy: -15015.4124423 eV PBE+vdW (tier 2 basis)
N    -0.600240  1.000910  1.992663
C    0.102389  -0.269822  1.955283
C    1.626829  -0.138221  1.747877
O    2.383144  -1.201654  2.165967
H    1.809654  -1.868433  2.582878
H    -0.247697  1.580293  2.754408
H    -0.068637  -0.767246  2.928005
C    -0.476311  -1.172927  0.843362
C    -1.990981  -1.354574  0.960000
C    -2.777984  -0.197722  0.381674
O    -2.442640  0.480151  -0.567702
O    -3.973672  -0.041964  1.012580
H    0.016110  -2.155101  0.874539
H    -0.241201  -0.731749  -0.136916
H    -2.306964  -1.526096  1.997218
H    -2.299043  -2.243318  0.385323
O    2.160681  0.815086  1.237772
H    -0.422057  1.519160  1.129536
H    -4.425380  0.690227  0.549534
