19
Energy: -15015.522618 eV PBE+vdW (tier 2 basis)
N    0.299430  -0.126379  -0.255572
C    -0.017302  -0.017437  1.161348
C    1.222818  0.493785  1.880390
O    2.363281  0.224038  1.568913
H    -0.462386  -0.556851  -0.776443
H    1.148259  -0.677307  -0.389426
H    -0.810888  0.735638  1.285836
C    -0.462241  -1.318170  1.892773
C    -1.690271  -1.991933  1.258921
C    -2.900075  -1.083742  1.274316
O    -3.468348  -0.682479  2.266895
O    -3.282783  -0.726904  0.011704
H    -0.685273  -1.079388  2.942640
H    0.372491  -2.034989  1.883705
H    -1.946082  -2.883994  1.846973
H    -1.478841  -2.318271  0.233219
O    0.906471  1.252668  2.963057
H    1.754947  1.482968  3.390130
H    -4.050554  -0.131314  0.120829
