19
Energy: -15015.6368917 eV PBE+vdW (tier 2 basis)
N    -0.918172  0.089752  0.488599
C    -0.396444  -0.044936  1.864264
C    1.148313  -0.095209  1.817765
O    1.640809  -0.281347  0.577232
H    0.823890  -0.296481  0.002805
H    -1.062466  1.068691  0.243834
H    -0.657721  0.818004  2.495797
C    -0.932212  -1.307155  2.559457
C    -0.499659  -2.620251  1.904178
C    -1.215042  -3.818597  2.485552
O    -2.203431  -3.788500  3.188478
O    -0.618751  -4.982495  2.102845
H    -2.030143  -1.254285  2.599292
H    -0.585154  -1.288903  3.600521
H    0.583906  -2.782550  1.995142
H    -0.704349  -2.626703  0.820771
O    1.842141  -0.008791  2.805457
H    -1.816399  -0.380804  0.380858
H    -1.150577  -5.699909  2.499324
