19
Energy: -15015.5299038 eV PBE+vdW (tier 2 basis)
N    0.728625  -0.123100  3.269469
C    0.090664  -0.651879  2.075077
C    1.106135  -0.632124  0.940511
O    0.925873  -1.671497  0.079278
H    1.578409  -1.543785  -0.637250
H    1.065599  0.827628  3.118148
H    -0.175322  -1.701459  2.269608
C    -1.176949  0.089924  1.553226
C    -2.281602  0.268404  2.613398
C    -2.702374  -1.041121  3.236418
O    -2.303750  -1.474171  4.299210
O    -3.572750  -1.728974  2.444416
H    -1.580077  -0.456268  0.687836
H    -0.882323  1.089993  1.200597
H    -3.150409  0.745610  2.141594
H    -1.930343  0.916392  3.425200
O    1.947079  0.224894  0.775767
H    0.092226  -0.138836  4.064601
H    -3.753710  -2.569630  2.908897
