19
Energy: -15015.367036 eV PBE+vdW (tier 2 basis)
N    -0.697241  -0.051712  0.365535
C    -0.008980  0.039601  1.668396
C    1.508848  0.061670  1.416365
O    2.326886  0.460004  2.205207
H    -1.601734  -0.515262  0.449080
H    0.950922  -0.605168  -0.232606
H    -0.252896  0.959104  2.221465
C    -0.371932  -1.158103  2.571310
C    -0.036248  -2.567337  2.017403
C    1.277015  -3.146991  2.549781
O    1.329434  -3.768443  3.586047
O    2.399682  -2.955634  1.811652
H    -1.454892  -1.098573  2.757456
H    0.112809  -1.016007  3.546101
H    -0.060131  -2.577809  0.917852
H    -0.807708  -3.266100  2.359807
O    1.840743  -0.503463  0.217342
H    -0.865566  0.873239  -0.029510
H    2.239599  -2.340823  1.066895
