19
Energy: -15015.3707259 eV PBE+vdW (tier 2 basis)
N    0.627834  -0.808649  -0.154593
C    0.296521  -0.230319  1.154639
C    1.537175  -0.157264  2.040804
O    1.858097  -0.970188  2.895932
H    1.075542  -1.721998  -0.059773
H    1.272345  -0.204521  -0.663841
H    -0.006217  0.808782  0.965919
C    -0.877331  -0.964789  1.853895
C    -1.191617  -2.402826  1.418785
C    -0.304964  -3.602129  1.771987
O    -0.600640  -4.709196  1.375267
O    0.790801  -3.428371  2.539478
H    -1.783593  -0.382076  1.640533
H    -0.737564  -0.909273  2.943062
H    -1.323141  -2.443178  0.328999
H    -2.175929  -2.670019  1.830535
O    2.315651  0.908054  1.743682
H    3.116227  0.838675  2.300978
H    0.994686  -2.480749  2.748357
