19
Energy: -15015.515114 eV PBE+vdW (tier 2 basis)
N    -0.111831  -0.438781  -0.035674
C    -0.026630  -0.192141  1.395571
C    1.436487  -0.258210  1.807484
O    2.313122  -0.826252  1.191779
H    -1.030292  -0.786667  -0.301986
H    0.598523  -1.112790  -0.324236
H    -0.367181  0.834234  1.613721
C    -0.867245  -1.129705  2.309059
C    -0.517252  -2.621277  2.209492
C    -0.933991  -3.334726  0.942281
O    -0.269014  -4.147190  0.337488
O    -2.212157  -3.012741  0.561202
H    -1.926798  -0.979701  2.058987
H    -0.742584  -0.801565  3.350903
H    -1.025528  -3.151643  3.030880
H    0.557702  -2.802620  2.333075
O    1.654780  0.372663  2.994121
H    2.602552  0.246958  3.194788
H    -2.395147  -3.566482  -0.222396
