19
Energy: -15015.5860498 eV PBE+vdW (tier 2 basis)
N    0.039778  0.079628  0.007063
C    0.206701  0.043519  1.473670
C    1.592658  -0.553608  1.814577
O    2.195119  -1.138408  0.761388
H    1.558366  -0.974600  0.009306
H    0.306063  0.986815  -0.373160
H    0.187956  1.049733  1.920083
C    -0.893973  -0.782981  2.158994
C    -0.912183  -2.270905  1.750146
C    -2.098761  -2.970703  2.369582
O    -2.110420  -3.542476  3.437142
O    -3.213617  -2.853229  1.584138
H    -1.866026  -0.317741  1.932974
H    -0.744083  -0.711393  3.243999
H    -0.004748  -2.770296  2.110649
H    -0.962713  -2.378101  0.658524
O    2.068829  -0.520578  2.926086
H    -0.926605  -0.092051  -0.269130
H    -3.932630  -3.297295  2.074673
