19
Energy: -15015.2851431 eV PBE+vdW (tier 2 basis)
N    -0.422930  -0.286686  -0.272409
C    -0.015424  -0.352664  1.143733
C    1.513863  -0.520175  1.180388
O    2.101496  -1.565297  1.298137
H    -1.413752  -0.046577  -0.327079
H    0.084401  0.439390  -0.779339
H    -0.269077  0.567227  1.710452
C    -0.719493  -1.537812  1.807683
C    -0.515418  -1.635645  3.317850
C    -1.210240  -0.552597  4.110934
O    -1.929130  0.319754  3.664336
O    -0.943957  -0.666268  5.442522
H    -0.354111  -2.455598  1.329904
H    -1.794391  -1.456162  1.590363
H    0.551654  -1.635108  3.587522
H    -0.895588  -2.598650  3.691722
O    2.221613  0.646592  1.042885
H    1.605830  1.400535  1.049294
H    -1.437346  0.055739  5.878100
