19
Energy: -15015.5313969 eV PBE+vdW (tier 2 basis)
N    1.335842  -0.674520  0.573785
C    0.384109  0.400019  0.841278
C    0.753098  1.369603  1.968159
O    0.523421  2.560184  1.965147
H    1.532734  -1.198210  1.427685
H    2.224304  -0.299378  0.243759
H    0.314446  1.026830  -0.059822
C    -1.014176  -0.181062  1.141634
C    -1.571064  -0.955043  -0.060411
C    -2.885248  -1.643807  0.210268
O    -3.898672  -1.522839  -0.445292
O    -2.818569  -2.464129  1.303134
H    -1.692719  0.641099  1.410796
H    -0.945234  -0.843770  2.016612
H    -0.834592  -1.717872  -0.356702
H    -1.727477  -0.290177  -0.918261
O    1.358175  0.738070  3.017039
H    1.519053  1.429213  3.688230
H    -3.705431  -2.865209  1.383962
