19
Energy: -15015.6230624 eV PBE+vdW (tier 2 basis)
N    0.754442  0.117409  0.181708
C    0.066078  -0.026376  1.476995
C    1.075305  0.230038  2.621399
O    0.740003  0.372848  3.776075
H    0.369591  -0.510209  -0.523871
H    0.681705  1.069822  -0.172757
H    -0.739036  0.713423  1.610149
C    -0.562026  -1.419778  1.663139
C    0.420804  -2.601062  1.683435
C    1.092064  -2.989593  0.385369
O    2.210338  -3.438606  0.278770
O    0.266005  -2.834406  -0.703957
H    -1.327101  -1.574019  0.888993
H    -1.084371  -1.400562  2.628407
H    -0.129604  -3.500232  2.005834
H    1.219292  -2.454179  2.421622
O    2.356800  0.241183  2.211986
H    2.289425  0.102360  1.224740
H    0.778482  -3.173787  -1.463640
