19
Energy: -15015.5425538 eV PBE+vdW (tier 2 basis)
N    -0.169482  -1.194495  0.374659
C    -0.052446  -0.374326  1.574884
C    1.394856  -0.392864  2.053108
O    2.315549  -0.919003  1.463251
H    0.759082  -1.368801  -0.011571
H    -0.747944  -0.747846  -0.332928
H    -0.271542  0.695813  1.382300
C    -1.013596  -0.850983  2.687718
C    -2.496681  -0.605442  2.357270
C    -3.013762  -1.364620  1.154865
O    -3.285524  -0.876706  0.075264
O    -3.174786  -2.688302  1.424815
H    -0.784825  -0.319202  3.620468
H    -0.838909  -1.922770  2.856983
H    -2.672796  0.460835  2.165477
H    -3.099658  -0.900852  3.227606
O    1.561074  0.275408  3.226306
H    2.514025  0.219044  3.433032
H    -3.463740  -3.099802  0.587576
