19
Energy: -15015.5157051 eV PBE+vdW (tier 2 basis)
N    0.788266  0.148945  0.361323
C    0.293175  -0.009759  1.726135
C    1.340437  -0.234142  2.826201
O    1.161374  -0.013343  4.004875
H    1.442068  -0.596552  0.121870
H    1.310202  1.020208  0.272253
H    -0.207368  0.926515  2.011574
C    -0.780592  -1.117419  1.812924
C    -0.280926  -2.504344  1.416407
C    -1.353668  -3.564702  1.518496
O    -2.507719  -3.391833  1.846362
O    -0.860692  -4.793987  1.184644
H    -1.604678  -0.822216  1.150813
H    -1.181107  -1.143438  2.834845
H    0.567831  -2.834519  2.035924
H    0.087007  -2.520037  0.378394
O    2.514654  -0.743938  2.346868
H    3.086436  -0.867526  3.129693
H    -1.610652  -5.413639  1.273126
