19
Energy: -15015.345236 eV PBE+vdW (tier 2 basis)
N    0.041314  0.157614  -0.131163
C    0.145815  -0.013969  1.314162
C    1.620773  -0.307634  1.651725
O    2.525115  0.038800  0.925894
H    0.948660  0.461775  -0.490313
H    -0.650543  0.865680  -0.369200
H    -0.040608  0.928676  1.873636
C    -0.917008  -1.019862  1.810471
C    -0.806215  -2.429145  1.214566
C    0.023795  -3.455211  1.950438
O    0.478323  -4.465737  1.468779
O    0.181224  -3.160303  3.289912
H    -1.886650  -0.596727  1.511112
H    -0.951511  -1.051601  2.909421
H    -0.431213  -2.375373  0.183695
H    -1.807241  -2.883728  1.142134
O    1.892108  -0.881944  2.847778
H    1.092094  -1.291672  3.232809
H    0.714535  -3.893174  3.655763
