19
Energy: -15015.5033336 eV PBE+vdW (tier 2 basis)
N    -0.111026  0.384257  0.057330
C    -0.121737  0.060071  1.481711
C    1.293599  0.261078  2.005231
O    2.300341  -0.078066  1.418981
H    0.670329  -0.095258  -0.394451
H    -0.972266  0.064947  -0.385928
H    -0.781509  0.770267  2.000919
C    -0.590032  -1.386096  1.802009
C    -0.671127  -1.762041  3.287296
C    -1.630671  -0.960832  4.141335
O    -1.466705  -0.689557  5.310534
O    -2.758033  -0.596968  3.457071
H    0.093711  -2.084857  1.296799
H    -1.578941  -1.510691  1.338350
H    0.305161  -1.710272  3.784062
H    -1.000081  -2.811192  3.366981
O    1.305555  0.829730  3.238364
H    2.242928  0.874655  3.513071
H    -3.313977  -0.120418  4.103710
