19
Energy: -15015.4709153 eV PBE+vdW (tier 2 basis)
N    0.222480  -0.467604  -0.149590
C    0.162957  -0.127435  1.267646
C    1.533081  -0.193018  1.933156
O    1.794225  0.323636  2.999395
H    -0.715669  -0.569741  -0.534309
H    0.729329  -1.336913  -0.310592
H    -0.129758  0.931350  1.353983
C    -0.848886  -0.922153  2.140868
C    -0.603483  -2.437274  2.209769
C    -0.871767  -3.212074  0.939061
O    -0.119975  -4.011228  0.421310
O    -2.117826  -2.952695  0.434017
H    -1.858372  -0.727331  1.752302
H    -0.813660  -0.510625  3.159516
H    -1.271992  -2.860372  2.975825
H    0.423639  -2.670496  2.515959
O    2.430082  -0.940588  1.236976
H    3.251645  -0.936534  1.765799
H    -2.206910  -3.527893  -0.350364
