19
Energy: -15015.4659205 eV PBE+vdW (tier 2 basis)
N    -0.050241  0.183256  -0.037868
C    0.040413  0.006403  1.408220
C    1.441393  0.321970  1.914149
O    1.694274  0.815816  2.992575
H    0.702846  -0.329614  -0.497180
H    -0.929114  -0.219256  -0.369302
H    -0.598683  0.762573  1.890993
C    -0.368579  -1.390724  1.985940
C    -1.842474  -1.522871  2.375237
C    -2.846146  -1.564328  1.245610
O    -2.618202  -1.465770  0.055603
O    -4.107308  -1.742452  1.726871
H    0.211637  -1.584315  2.900304
H    -0.087246  -2.165437  1.258373
H    -2.141742  -0.702572  3.047526
H    -1.999644  -2.438555  2.966334
O    2.412192  -0.073292  1.042825
H    3.261444  0.147738  1.471725
H    -4.694934  -1.754848  0.946406
