19
Energy: -15015.5586639 eV PBE+vdW (tier 2 basis)
N    0.717621  -0.472445  -0.215210
C    0.076842  -0.025890  1.016078
C    1.086427  -0.158556  2.146171
O    1.953591  -1.008457  2.196684
H    0.031474  -0.758621  -0.911808
H    1.336188  -1.261155  -0.020323
H    -0.175171  1.042448  0.929632
C    -1.245519  -0.757664  1.398311
C    -1.123753  -2.265283  1.623303
C    -0.682000  -2.654005  3.018588
O    -0.713581  -1.944373  4.002625
O    -0.266571  -3.949427  3.059417
H    -1.948357  -0.575201  0.571924
H    -1.675055  -0.284189  2.292397
H    -0.448097  -2.738833  0.896746
H    -2.101414  -2.749773  1.470482
O    0.883243  0.761443  3.117072
H    1.487929  0.528244  3.848172
H    -0.021425  -4.123546  3.988921
