19
Energy: -15015.5031092 eV PBE+vdW (tier 2 basis)
N    1.225343  1.311332  1.152364
C    0.662061  0.216557  1.935568
C    0.981136  -1.077544  1.198187
O    1.265817  -2.099447  2.048839
H    1.411745  -2.886627  1.487224
H    0.993122  1.178205  0.166107
H    1.160584  0.180638  2.916664
C    -0.870336  0.322624  2.167438
C    -1.455871  -0.741387  3.116239
C    -2.926324  -0.493620  3.350858
O    -3.839242  -1.016719  2.747954
O    -3.131176  0.444275  4.324806
H    -1.379823  0.280518  1.193062
H    -1.056341  1.321546  2.589834
H    -0.921285  -0.718685  4.076007
H    -1.359030  -1.744597  2.686568
O    0.955444  -1.206867  -0.007042
H    0.834421  2.204724  1.450159
H    -4.099244  0.565072  4.378164
