19
Energy: -15015.5503564 eV PBE+vdW (tier 2 basis)
N    1.867570  -1.002854  1.650011
C    0.529033  -0.550735  1.274994
C    0.292663  0.927396  1.597126
O    0.598144  1.470310  2.639468
H    2.571537  -0.548882  1.067132
H    2.063578  -0.718841  2.612840
H    0.410351  -0.689054  0.191879
C    -0.514249  -1.414977  2.011126
C    -1.980979  -1.032843  1.784582
C    -2.506326  -1.103516  0.365876
O    -3.380850  -0.398293  -0.088530
O    -1.913862  -2.095791  -0.363209
H    -0.307125  -1.347606  3.090246
H    -0.331383  -2.454690  1.712834
H    -2.209014  -0.023487  2.150280
H    -2.615734  -1.714983  2.373415
O    -0.320363  1.580679  0.572277
H    -0.466249  2.499595  0.873851
H    -2.347742  -2.072429  -1.238196
