19
Energy: -15015.3974696 eV PBE+vdW (tier 2 basis)
N    0.757186  1.987978  0.613514
C    -0.211055  0.916986  0.911718
C    0.320560  0.160707  2.129909
O    0.656740  -1.000365  2.172611
H    0.390374  2.580845  -0.131711
H    0.884788  2.583200  1.432454
H    -1.208552  1.302769  1.208576
C    -0.368154  0.006682  -0.312320
C    -1.715343  -0.735490  -0.421793
C    -1.909981  -1.834396  0.599662
O    -1.626655  -3.001110  0.444813
O    -2.465472  -1.358060  1.756646
H    0.463821  -0.708890  -0.345014
H    -0.275890  0.640583  -1.206148
H    -1.771779  -1.214784  -1.406214
H    -2.543000  -0.016512  -0.338403
O    0.385375  0.988366  3.213724
H    0.760924  0.453596  3.939725
H    -2.494886  -2.121104  2.366253
