19
Energy: -15015.5761487 eV PBE+vdW (tier 2 basis)
N    -0.937514  0.676215  1.475961
C    0.096151  -0.214657  1.975861
C    1.161520  -0.571908  0.933259
O    2.323048  -0.983729  1.516589
H    2.925827  -1.223512  0.785433
H    -1.297767  0.325360  0.586428
H    0.608629  0.285303  2.812428
C    -0.524525  -1.523433  2.511854
C    -1.543989  -1.280567  3.630050
C    -2.870013  -0.672634  3.227002
O    -3.479775  0.160740  3.860889
O    -3.380116  -1.251229  2.096545
H    0.281570  -2.164254  2.894458
H    -0.999019  -2.066470  1.681264
H    -1.128769  -0.639201  4.417393
H    -1.786008  -2.247837  4.100191
O    1.009246  -0.522644  -0.268665
H    -0.557575  1.603984  1.291645
H    -4.242923  -0.817527  1.953413
