19
Energy: -15015.7366636 eV PBE+vdW (tier 2 basis)
N    -0.451237  0.867285  0.559640
C    -0.092672  0.036886  1.724294
C    1.453519  -0.096389  1.791943
O    2.029662  -0.646562  2.705896
H    -1.191479  0.432695  0.002835
H    1.290546  0.811298  0.200256
H    -0.387938  0.520927  2.670090
C    -0.699997  -1.373929  1.690458
C    -2.192837  -1.470129  2.017298
C    -3.141350  -1.150660  0.885094
O    -2.842827  -0.735838  -0.220440
O    -4.429461  -1.395468  1.238385
H    -0.148227  -1.967934  2.430286
H    -0.499839  -1.829762  0.708300
H    -2.460017  -0.819632  2.866151
H    -2.443292  -2.487122  2.355246
O    2.067284  0.450711  0.733756
H    -0.763587  1.795829  0.834924
H    -4.975251  -1.167207  0.460588
