19
Energy: -15015.5434879 eV PBE+vdW (tier 2 basis)
N    -0.136901  0.199660  0.173859
C    0.363950  -0.176873  1.486308
C    1.787487  -0.734183  1.552675
O    2.492346  -0.715427  2.553559
H    -0.134679  -0.596386  -0.464330
H    0.440615  0.925212  -0.249130
H    0.383735  0.729198  2.111141
C    -0.618717  -1.185468  2.133306
C    -0.291221  -1.670120  3.557327
C    -0.253591  -0.540752  4.588019
O    -1.214099  -0.224138  5.253870
O    0.925398  0.117542  4.714010
H    -0.697078  -2.063891  1.473214
H    -1.600420  -0.693406  2.124448
H    0.654351  -2.231131  3.572507
H    -1.086606  -2.354060  3.875365
O    2.211580  -1.291766  0.397861
H    3.109438  -1.638331  0.571381
H    1.581737  -0.217645  4.052736
