19
Energy: -15015.6946862 eV PBE+vdW (tier 2 basis)
N    -0.202783  0.326452  0.013038
C    0.168889  -0.122845  1.369643
C    1.709945  -0.239327  1.446057
O    2.304582  -0.758695  2.367598
H    -0.464309  -0.464725  -0.577374
H    -1.000710  0.958942  0.040485
H    -0.102864  0.686816  2.063730
C    -0.549874  -1.409366  1.821157
C    -0.462462  -1.718723  3.316254
C    -1.242170  -0.753306  4.175018
O    -1.881234  0.204458  3.781865
O    -1.154627  -1.078324  5.493715
H    -0.140516  -2.263880  1.260551
H    -1.607852  -1.308686  1.537704
H    0.584090  -1.715780  3.654076
H    -0.845054  -2.729060  3.525617
O    2.334724  0.321425  0.396311
H    1.576275  0.633493  -0.178688
H    -1.676050  -0.404869  5.972246
