19
Energy: -15015.4265247 eV PBE+vdW (tier 2 basis)
N    0.046425  0.191701  0.023424
C    0.041077  0.078591  1.480497
C    1.408458  -0.356551  1.994039
O    1.902000  0.002756  3.039751
H    -0.884726  0.425013  -0.321672
H    0.335561  -0.681174  -0.417039
H    -0.095521  1.086854  1.896995
C    -1.083659  -0.799731  2.108167
C    -1.176857  -2.248922  1.614772
C    -0.163628  -3.243886  2.142033
O    0.269019  -4.192330  1.523313
O    0.182347  -2.991907  3.437360
H    -2.032603  -0.297971  1.864227
H    -0.988932  -0.772768  3.202409
H    -1.140188  -2.311829  0.519596
H    -2.159721  -2.654418  1.905984
O    2.008627  -1.249670  1.157884
H    2.853448  -1.496770  1.580988
H    0.804276  -3.700872  3.691197
