19
Energy: -15015.5281997 eV PBE+vdW (tier 2 basis)
N    0.633864  -1.050763  0.858480
C    0.112557  0.305159  0.956249
C    0.772480  1.233361  1.982817
O    0.881461  2.435296  1.860702
H    0.587354  -1.526108  1.760006
H    1.608508  -1.051722  0.561582
H    0.271558  0.800052  -0.013751
C    -1.405080  0.285978  1.235158
C    -2.198410  -0.457039  0.154490
C    -2.080870  -1.965148  0.128025
O    -2.040335  -2.647205  -0.872355
O    -2.130034  -2.511415  1.383305
H    -1.758172  1.325071  1.288088
H    -1.592783  -0.167129  2.219657
H    -1.935033  -0.102069  -0.849599
H    -3.270317  -0.242409  0.296820
O    1.209204  0.562757  3.088370
H    1.574420  1.244251  3.685470
H    -2.095372  -3.476918  1.242486
