19
Energy: -15015.5789614 eV PBE+vdW (tier 2 basis)
N    0.257848  -0.069402  0.019203
C    0.053727  -0.090254  1.479507
C    1.367312  -0.151223  2.255387
O    1.441076  -0.331832  3.449521
H    -0.505843  0.431778  -0.434970
H    1.128366  0.401121  -0.226236
H    -0.411852  0.849170  1.833916
C    -0.869500  -1.248280  1.906704
C    -0.330414  -2.674200  1.668545
C    -0.582889  -3.326179  0.303692
O    -1.008123  -4.459444  0.209811
O    -0.283490  -2.600047  -0.788977
H    -1.839761  -1.116892  1.404223
H    -1.057259  -1.124571  2.980859
H    -0.778770  -3.353840  2.401050
H    0.756489  -2.705668  1.854873
O    2.459640  0.056067  1.467421
H    3.234716  0.024287  2.061617
H    0.027819  -1.673150  -0.528548
