19
Energy: -15015.6410782 eV PBE+vdW (tier 2 basis)
N    -0.300304  0.294939  -0.110576
C    -0.058223  0.140164  1.339694
C    1.405680  0.558025  1.640431
O    2.015463  1.134059  0.591656
H    1.316108  1.098722  -0.125382
H    -1.226062  0.673472  -0.300794
H    -0.680503  0.886015  1.861104
C    -0.401302  -1.262087  1.870761
C    -0.438502  -1.378176  3.393168
C    -0.810778  -2.765469  3.855124
O    -0.994593  -3.733221  3.145165
O    -0.917581  -2.822393  5.213558
H    0.317834  -1.990627  1.465748
H    -1.384322  -1.543289  1.464226
H    -1.155940  -0.668476  3.834568
H    0.535564  -1.113265  3.829193
O    1.942189  0.405100  2.717157
H    -0.237420  -0.605339  -0.588150
H    -1.143309  -3.749157  5.424351
