19
Energy: -15015.550922 eV PBE+vdW (tier 2 basis)
N    1.582686  0.704274  0.336635
C    0.262002  0.297476  0.845515
C    -0.110487  1.140872  2.067042
O    0.185423  0.888982  3.218933
H    1.561561  1.675100  0.022820
H    2.279633  0.644644  1.082038
H    -0.471011  0.504619  0.053640
C    0.286916  -1.195987  1.174739
C    -1.060790  -1.784337  1.639179
C    -2.140096  -1.634489  0.594206
O    -2.948508  -0.730482  0.533927
O    -2.091601  -2.634770  -0.334627
H    1.020937  -1.368046  1.975711
H    0.646677  -1.723364  0.281274
H    -1.404363  -1.278667  2.549310
H    -0.920951  -2.849183  1.864225
O    -0.753637  2.284956  1.704947
H    -0.896147  2.790631  2.529172
H    -2.795244  -2.432228  -0.981686
