19
Energy: -15015.5864049 eV PBE+vdW (tier 2 basis)
N    -1.397023  -0.054682  0.855816
C    -0.101083  0.112114  1.497900
C    1.131046  -0.406993  0.746970
O    0.847150  -1.468117  -0.060718
H    1.700043  -1.737582  -0.453723
H    -1.413987  0.391737  -0.059949
H    0.080735  1.191693  1.617764
C    -0.098537  -0.526480  2.903968
C    -1.248957  -0.026089  3.778175
C    -2.562690  -0.725015  3.505147
O    -2.691985  -1.869128  3.117885
O    -3.624976  0.066792  3.817914
H    0.862372  -0.298339  3.382661
H    -0.168197  -1.621025  2.812800
H    -1.391376  1.058819  3.689833
H    -1.017677  -0.225271  4.837504
O    2.250291  0.047404  0.863527
H    -1.616757  -1.042324  0.721107
H    -4.419391  -0.477515  3.653419
