19
Energy: -15015.4820277 eV PBE+vdW (tier 2 basis)
N    -0.327258  0.622662  -0.041316
C    -0.518480  0.382729  1.382957
C    0.732918  0.385679  2.277882
O    0.707721  0.414267  3.490746
H    0.382187  -0.000489  -0.428469
H    0.005328  1.572312  -0.202651
H    -1.135620  1.203022  1.780833
C    -1.314098  -0.914578  1.649382
C    -0.645291  -2.208425  1.143658
C    -0.863137  -2.450155  -0.334956
O    -1.933530  -2.666578  -0.858312
O    0.307123  -2.413940  -1.045234
H    -2.300454  -0.811574  1.178200
H    -1.466920  -0.997790  2.732927
H    -1.113349  -3.060521  1.655441
H    0.426855  -2.229510  1.379063
O    1.897812  0.337349  1.570444
H    2.610628  0.329419  2.239110
H    0.054359  -2.577289  -1.975363
