19
Energy: -15015.5937276 eV PBE+vdW (tier 2 basis)
N    -0.266856  -0.278095  -0.010021
C    -0.570052  -0.280183  1.420577
C    0.531344  0.380131  2.252007
O    1.693726  0.467015  1.908335
H    0.744657  -0.369399  -0.134263
H    -0.508770  0.627003  -0.412661
H    -1.493990  0.290544  1.588337
C    -0.845810  -1.719164  1.929884
C    0.296102  -2.714111  1.714302
C    1.401556  -2.634431  2.745107
O    1.298852  -2.182542  3.867369
O    2.556774  -3.183353  2.278632
H    -1.723792  -2.071879  1.373497
H    -1.110675  -1.686775  2.995446
H    0.725644  -2.635479  0.706882
H    -0.098083  -3.741344  1.781068
O    0.067497  0.845359  3.437597
H    0.848593  1.146559  3.941902
H    3.200730  -3.112388  3.010039
