19
Energy: -15015.591421 eV PBE+vdW (tier 2 basis)
N    -0.174531  -0.321968  -0.291803
C    -0.109953  0.019761  1.142107
C    1.304981  0.581732  1.420427
O    1.940919  0.978042  0.318683
H    1.318744  0.696906  -0.417663
H    -1.111108  -0.187289  -0.668451
H    -0.784133  0.880168  1.293415
C    -0.529355  -1.102302  2.106537
C    -0.849986  -0.642651  3.555827
C    0.011624  -1.325669  4.617602
O    -0.431508  -2.132546  5.406113
O    1.317596  -0.987533  4.618531
H    0.249108  -1.880663  2.111546
H    -1.426946  -1.571613  1.682280
H    -1.890870  -0.873216  3.803308
H    -0.722496  0.446191  3.647092
O    1.798771  0.695008  2.530209
H    0.078668  -1.299399  -0.447294
H    1.499284  -0.318807  3.906719
