19
Energy: -15015.4562782 eV PBE+vdW (tier 2 basis)
N    0.429245  -0.149480  -0.405503
C    0.122756  0.165287  0.985560
C    1.380021  0.227813  1.843841
O    1.470690  0.853500  2.877563
H    -0.428845  -0.291775  -0.938044
H    0.994233  -0.993858  -0.485567
H    -0.286206  1.186331  1.020553
C    -0.927090  -0.741353  1.692392
C    -0.509556  -2.216192  1.810356
C    -1.612943  -3.066333  2.392110
O    -1.626621  -3.554600  3.501515
O    -2.645669  -3.223308  1.508519
H    -1.860397  -0.667532  1.115302
H    -1.129999  -0.328875  2.691490
H    0.363440  -2.328796  2.463500
H    -0.254747  -2.610650  0.814955
O    2.389695  -0.549664  1.360808
H    3.124830  -0.458645  1.998014
H    -3.314673  -3.760608  1.975233
