19
Energy: -15015.1477187 eV PBE+vdW (tier 2 basis)
N    0.555226  0.711155  0.239973
C    0.105325  0.202521  1.541902
C    1.353151  -0.365006  2.249772
O    1.971243  0.238687  3.088698
H    -0.151436  1.321130  -0.170544
H    0.724943  -0.046786  -0.422543
H    -0.163030  1.077271  2.150249
C    -1.117114  -0.739024  1.468287
C    -1.663888  -1.239141  2.815642
C    -0.975796  -2.427332  3.454322
O    -0.827188  -2.595914  4.642104
O    -0.574993  -3.355577  2.525899
H    -0.909825  -1.594299  0.804071
H    -1.910844  -0.168322  0.962960
H    -2.711463  -1.553377  2.679505
H    -1.677056  -0.439852  3.567472
O    1.785949  -1.594673  1.832877
H    1.093436  -2.039083  1.310371
H    -0.161639  -4.076379  3.039983
