19
Energy: -15015.5461392 eV PBE+vdW (tier 2 basis)
N    0.592558  -0.189810  -0.134579
C    0.019359  0.050849  1.193669
C    1.074437  0.050666  2.302987
O    1.398152  1.013004  2.967955
H    1.304052  0.508299  -0.352719
H    1.046868  -1.103899  -0.166928
H    -0.394052  1.069681  1.196760
C    -1.104267  -0.956958  1.462890
C    -1.804797  -0.732088  2.799703
C    -2.925946  -1.713728  3.052019
O    -3.251090  -2.633640  2.332291
O    -3.558294  -1.443792  4.231377
H    -0.699677  -1.978605  1.424241
H    -1.822715  -0.875605  0.636485
H    -2.224165  0.283694  2.872356
H    -1.106161  -0.813714  3.648222
O    1.663255  -1.174583  2.452190
H    2.342236  -1.063281  3.145243
H    -4.257888  -2.119880  4.319117
