19
Energy: -15015.4585256 eV PBE+vdW (tier 2 basis)
N    -0.485764  0.051866  0.057528
C    -0.143488  -0.163858  1.457335
C    1.365182  -0.048451  1.702882
O    1.925001  -0.492558  2.687075
H    -1.492215  -0.026139  -0.083097
H    -0.025263  -0.636127  -0.539819
H    -0.550793  0.694362  2.024685
C    -0.712872  -1.429562  2.148751
C    -0.535883  -2.756994  1.381363
C    0.907417  -3.072739  1.073015
O    1.530024  -2.622501  0.128531
O    1.463584  -3.908465  1.986520
H    -1.793170  -1.278800  2.289653
H    -0.263868  -1.512147  3.147373
H    -1.064568  -2.706438  0.420193
H    -0.974094  -3.568935  1.973904
O    2.014625  0.646225  0.741639
H    2.951067  0.656697  1.021076
H    2.405847  -3.991487  1.740450
