19
Energy: -15015.5211966 eV PBE+vdW (tier 2 basis)
N    -0.790111  -0.587982  0.370484
C    -0.127237  -0.055155  1.564087
C    1.380664  0.278997  1.441727
O    1.842232  1.319616  1.858131
H    -0.374932  -1.461368  0.047366
H    -0.723614  0.080303  -0.396625
H    -0.587753  0.921616  1.763513
C    -0.417369  -0.914015  2.817966
C    0.428778  -2.184777  3.068484
C    0.352254  -3.221014  1.978459
O    0.829355  -3.102295  0.854593
O    -0.307787  -4.336185  2.348757
H    -1.483080  -1.180711  2.778785
H    -0.273056  -0.276492  3.700699
H    0.109402  -2.639667  4.013001
H    1.489325  -1.910021  3.171114
O    2.178008  -0.637583  0.841734
H    1.685289  -1.478153  0.666676
H    -0.305734  -4.935698  1.575391
