19
Energy: -15015.6412923 eV PBE+vdW (tier 2 basis)
N    0.355120  -2.452807  2.663865
C    -0.022163  -1.335098  1.805359
C    0.961258  -1.109544  0.656006
O    0.398004  -0.425011  -0.375456
H    1.106420  -0.295614  -1.036426
H    1.368840  -2.442892  2.800862
H    -1.011946  -1.531669  1.370696
C    -0.117440  -0.025066  2.625891
C    -1.113166  -0.118854  3.778489
C    -2.559920  -0.094950  3.347267
O    -2.974008  -0.047346  2.206537
O    -3.396242  -0.135363  4.424847
H    -0.386918  0.800378  1.953715
H    0.878885  0.197959  3.037657
H    -0.966835  0.702957  4.494882
H    -0.945595  -1.047986  4.344757
O    2.121521  -1.468395  0.653759
H    0.143008  -3.337437  2.203487
H    -4.301823  -0.121263  4.058806
