19
Energy: -15015.5610585 eV PBE+vdW (tier 2 basis)
N    -0.617916  -2.188615  4.438527
C    -0.440422  -0.967160  3.656071
C    0.468689  -1.078122  2.416747
O    1.134672  -0.178444  1.945677
H    -1.131924  -2.882023  3.896951
H    0.297667  -2.599241  4.637288
H    -1.426059  -0.709082  3.229726
C    -0.026869  0.224931  4.539611
C    1.113166  -0.054238  5.543607
C    2.370748  -0.567515  4.888003
O    2.545952  -1.718242  4.526108
O    3.305576  0.400446  4.714638
H    0.245012  1.066810  3.890584
H    -0.903424  0.523189  5.129334
H    0.782782  -0.819074  6.258439
H    1.332969  0.867238  6.095231
O    0.402994  -2.312669  1.848131
H    0.989364  -2.275055  1.068089
H    4.044138  -0.019341  4.231133
