19
Energy: -15015.5235314 eV PBE+vdW (tier 2 basis)
N    0.461843  1.289410  2.206709
C    0.501681  -0.167960  2.183046
C    1.397986  -0.587573  1.027251
O    1.980484  -1.795790  1.249862
H    2.481807  -2.008123  0.438370
H    -0.312478  1.635312  2.770473
H    0.970801  -0.529576  3.113038
C    -0.855985  -0.902910  2.011264
C    -1.799824  -0.666120  3.185563
C    -3.116331  -1.398923  3.048952
O    -3.442064  -2.126650  2.136245
O    -3.931610  -1.140887  4.113044
H    -0.674894  -1.982211  1.907740
H    -1.327397  -0.569458  1.075114
H    -2.039470  0.401342  3.316639
H    -1.342147  -0.981857  4.137117
O    1.552239  0.044676  0.004132
H    0.352582  1.643403  1.254622
H    -4.750222  -1.649101  3.951819
