19
Energy: -15015.3437333 eV PBE+vdW (tier 2 basis)
N    1.560831  -0.121307  3.415790
C    0.609179  -0.481163  2.371027
C    0.457696  0.737901  1.451498
O    0.375399  0.487151  0.113717
H    0.532590  -0.460155  -0.044770
H    1.438533  -0.717725  4.234175
H    1.030432  -1.322827  1.787670
C    -0.784036  -0.908453  2.897337
C    -1.758291  -1.387603  1.823191
C    -3.006231  -2.019019  2.403048
O    -3.168289  -2.351194  3.557459
O    -3.957826  -2.194923  1.442969
H    -1.218022  -0.064270  3.452698
H    -0.630497  -1.717319  3.626357
H    -1.292997  -2.155167  1.179445
H    -2.067506  -0.579437  1.144867
O    0.366206  1.868921  1.863508
H    1.381876  0.843441  3.703786
H    -4.715047  -2.621852  1.889229
