19
Energy: -15015.4866784 eV PBE+vdW (tier 2 basis)
N    1.249543  1.441108  0.072176
C    0.101564  0.993187  0.853010
C    0.488256  1.063328  2.326796
O    1.455971  1.652254  2.760396
H    0.953108  1.863892  -0.805011
H    1.786900  2.127123  0.603268
H    -0.776666  1.673609  0.774812
C    -0.347132  -0.404148  0.370068
C    -1.775500  -0.794647  0.739869
C    -2.243954  -2.044302  0.031652
O    -1.658091  -2.637968  -0.848788
O    -3.461013  -2.448611  0.502747
H    0.368823  -1.159244  0.722955
H    -0.252605  -0.401905  -0.724330
H    -2.484191  0.008456  0.474147
H    -1.902791  -0.943281  1.819877
O    -0.396828  0.422078  3.138982
H    -0.068015  0.560393  4.048586
H    -3.694378  -3.243322  -0.015210
