19
Energy: -15015.4122261 eV PBE+vdW (tier 2 basis)
N    -0.313594  -0.669681  -0.011755
C    -0.000708  -0.116366  1.299984
C    1.516643  0.106506  1.393627
O    2.270712  0.003401  0.455601
H    0.464576  -0.486938  -0.647991
H    -1.158462  -0.257128  -0.399424
H    -0.442420  0.889878  1.452373
C    -0.548198  -1.029725  2.421456
C    0.072696  -2.421807  2.400453
C    -0.618575  -3.390468  3.326850
O    -1.650204  -3.188548  3.934463
O    0.060892  -4.569828  3.407122
H    -1.634678  -1.113510  2.283068
H    -0.427319  -0.562996  3.414368
H    1.144094  -2.407693  2.652266
H    0.013761  -2.826370  1.377053
O    1.996427  0.464517  2.617109
H    1.266965  0.475531  3.262585
H    -0.460362  -5.138267  4.006755
