19
Energy: -15015.4319442 eV PBE+vdW (tier 2 basis)
N    -0.387451  0.355122  0.523924
C    -0.241712  -0.016670  1.925701
C    1.172552  -0.016104  2.520874
O    1.415769  0.066751  3.707415
H    -0.048479  -0.380635  -0.094530
H    0.144570  1.198518  0.312826
H    -0.784104  0.730306  2.525424
C    -0.908636  -1.387593  2.219695
C    -0.033099  -2.644160  2.083567
C    0.545556  -3.009762  0.734052
O    1.605699  -3.570083  0.561881
O    -0.286701  -2.693113  -0.306746
H    -1.791771  -1.453765  1.570527
H    -1.268749  -1.370956  3.256448
H    -0.643130  -3.514090  2.379467
H    0.810196  -2.624166  2.785591
O    2.144485  -0.150104  1.575978
H    2.989998  -0.191787  2.064305
H    0.159829  -3.029598  -1.108332
