19
Energy: -15015.4791194 eV PBE+vdW (tier 2 basis)
N    0.114407  -0.368069  -0.189309
C    0.092871  -0.231218  1.266400
C    1.510232  -0.252066  1.827638
O    1.899601  0.423604  2.755155
H    -0.816339  -0.233728  -0.581929
H    0.440877  -1.294564  -0.465891
H    -0.289211  0.772950  1.501307
C    -0.740619  -1.275405  2.056894
C    -2.231255  -1.185386  1.749229
C    -3.046660  -2.263216  2.427750
O    -2.612492  -3.252900  2.976657
O    -4.382657  -1.998194  2.336004
H    -0.579593  -1.122379  3.134267
H    -0.372055  -2.285137  1.824685
H    -2.422430  -1.287952  0.667269
H    -2.647753  -0.206842  2.031907
O    2.293123  -1.176007  1.204395
H    3.160994  -1.138682  1.650984
H    -4.833703  -2.745661  2.774678
