19
Energy: -15015.570953 eV PBE+vdW (tier 2 basis)
N    1.155603  1.826564  0.243790
C    0.001521  1.129197  0.802583
C    0.315507  0.430756  2.130265
O    1.408273  0.037275  2.473467
H    1.945618  1.178460  0.195145
H    1.452856  2.569768  0.877421
H    -0.786853  1.872070  1.000044
C    -0.533457  0.129973  -0.248629
C    -1.894479  -0.500649  0.048555
C    -1.842742  -1.743509  0.909607
O    -0.858258  -2.411656  1.145273
O    -3.081187  -2.070772  1.377548
H    0.211642  -0.665064  -0.401412
H    -0.593370  0.701762  -1.183598
H    -2.368660  -0.814162  -0.895573
H    -2.595138  0.212950  0.504531
O    -0.797016  0.304437  2.912426
H    -0.515302  -0.200743  3.700475
H    -2.965557  -2.901654  1.878083
