19
Energy: -15015.4466355 eV PBE+vdW (tier 2 basis)
N    -0.137809  0.213019  0.115042
C    0.213720  -0.047676  1.511279
C    1.709324  -0.439001  1.677447
O    2.528565  -0.104481  0.847714
H    -0.248654  -0.672862  -0.384574
H    0.666800  0.663204  -0.329388
H    0.155880  0.921958  2.040329
C    -0.839873  -0.948370  2.172278
C    -0.828091  -2.433247  1.765274
C    -0.278141  -3.339166  2.840115
O    0.386212  -2.976434  3.798303
O    -0.595531  -4.635400  2.634065
H    -1.812510  -0.513720  1.908816
H    -0.758424  -0.877539  3.265328
H    -0.213685  -2.612489  0.866004
H    -1.829129  -2.797107  1.500149
O    2.104553  -1.059454  2.808755
H    1.360056  -1.488329  3.296078
H    -0.169861  -5.146087  3.350922
