19
Energy: -15015.5888889 eV PBE+vdW (tier 2 basis)
N    0.035285  -0.203344  -0.174478
C    0.038281  -0.056455  1.292592
C    1.507306  -0.110054  1.768767
O    2.387710  0.176195  0.809040
H    1.817943  0.245836  -0.012323
H    -0.752001  0.284953  -0.597550
H    -0.279663  0.978643  1.503966
C    -0.858024  -1.006109  2.095854
C    -0.405341  -2.488049  2.087217
C    -0.224706  -3.081686  3.487237
O    -0.809097  -4.075266  3.858841
O    0.633158  -2.429469  4.300708
H    -1.881226  -0.925913  1.705055
H    -0.902439  -0.633484  3.128080
H    0.558825  -2.600968  1.562020
H    -1.126175  -3.127298  1.568290
O    1.843425  -0.361506  2.913936
H    -0.032610  -1.185410  -0.447961
H    1.050189  -1.653139  3.843833
