19
Energy: -15015.4884005 eV PBE+vdW (tier 2 basis)
N    0.318917  -0.261121  -0.572128
C    0.028597  0.162533  0.795144
C    1.281877  0.185767  1.659969
O    1.407960  0.851748  2.664924
H    -0.546697  -0.391061  -1.095592
H    0.836184  -1.138858  -0.594266
H    -0.303614  1.210970  0.761346
C    -1.086154  -0.621874  1.543027
C    -0.763671  -2.092543  1.793450
C    -1.972761  -2.893851  2.218748
O    -3.132723  -2.593355  2.030481
O    -1.605997  -4.052053  2.839764
H    -2.004844  -0.549335  0.943542
H    -1.294867  -0.115053  2.496112
H    0.028658  -2.226248  2.542627
H    -0.387636  -2.571484  0.872296
O    2.243019  -0.677851  1.224741
H    2.978363  -0.601301  1.863486
H    -2.439079  -4.518343  3.048104
