19
Energy: -15015.3113641 eV PBE+vdW (tier 2 basis)
N    0.299470  0.424399  0.107812
C    0.074197  0.031660  1.493097
C    1.216847  -0.740168  2.188013
O    1.362676  -0.756755  3.388080
H    0.130422  -0.305503  -0.580775
H    1.172627  0.912941  -0.070172
H    -0.036222  0.947969  2.093998
C    -1.260353  -0.741637  1.556250
C    -1.753616  -1.148390  2.947868
C    -1.164021  -2.391751  3.584592
O    -1.246352  -2.664147  4.760657
O    -0.574719  -3.223193  2.674537
H    -1.189085  -1.633453  0.915018
H    -2.006893  -0.079805  1.095281
H    -2.836877  -1.342710  2.894148
H    -1.631152  -0.339190  3.679265
O    2.067894  -1.413147  1.368745
H    1.796615  -1.215309  0.449129
H    -0.224457  -3.972810  3.193457
