19
Energy: -15015.5318277 eV PBE+vdW (tier 2 basis)
N    0.517354  -0.866556  0.016719
C    0.323906  0.017729  1.165017
C    1.714798  0.272178  1.792475
O    2.696472  0.341119  1.080566
H    1.441623  -0.677170  -0.377636
H    -0.176780  -0.683135  -0.706526
H    0.020670  1.045959  0.869950
C    -0.812536  -0.514422  2.056888
C    -0.609336  -1.937419  2.592798
C    -0.170399  -1.984845  4.029173
O    0.256016  -1.037719  4.676507
O    -0.295047  -3.215074  4.571934
H    -1.720060  -0.503579  1.436793
H    -1.012010  0.185240  2.881299
H    0.143804  -2.460162  1.977613
H    -1.517308  -2.548358  2.503845
O    1.803817  0.526514  3.107255
H    1.045248  0.155403  3.628395
H    0.040946  -3.151320  5.487727
