19
Energy: -15015.6323256 eV PBE+vdW (tier 2 basis)
N    -0.434856  0.835111  1.228671
C    0.539807  -0.041311  1.907929
C    1.819726  -0.157420  1.038670
O    2.733697  -0.905003  1.304287
H    -0.873481  1.499433  1.861858
H    -1.174417  0.293493  0.780364
H    0.874347  0.473692  2.823660
C    0.011484  -1.431919  2.275518
C    -1.011285  -1.402631  3.409355
C    -1.730397  -2.721470  3.590594
O    -1.892326  -3.566090  2.736135
O    -2.221365  -2.849284  4.856492
H    0.867117  -2.061802  2.551421
H    -0.436961  -1.898378  1.384434
H    -1.799719  -0.654591  3.212038
H    -0.552322  -1.110251  4.364094
O    1.822096  0.676831  -0.015503
H    0.937851  1.138053  0.055105
H    -2.695995  -3.703463  4.874879
