19
Energy: -15015.3181301 eV PBE+vdW (tier 2 basis)
N    -0.483895  -0.537697  0.307606
C    -0.347692  -0.382012  1.750300
C    0.723108  0.673372  2.147093
O    1.127533  1.513242  1.382321
H    0.434594  -0.722514  -0.103254
H    -0.774829  0.351792  -0.098414
H    -1.289252  0.063030  2.119495
C    -0.244472  -1.764250  2.433055
C    0.851015  -2.703984  1.892238
C    2.244583  -2.128658  1.985367
O    2.879420  -1.670347  1.059719
O    2.715374  -2.145086  3.267455
H    -1.208597  -2.265439  2.274028
H    -0.142609  -1.666047  3.526705
H    0.656786  -2.929586  0.837841
H    0.814192  -3.644612  2.458093
O    1.145036  0.681960  3.447586
H    0.789479  -0.094120  3.915326
H    3.583193  -1.696038  3.242199
