19
Energy: -15015.4820995 eV PBE+vdW (tier 2 basis)
N    0.247853  0.099634  -0.071494
C    -0.091229  0.200562  1.343898
C    1.214802  0.294875  2.120597
O    2.256554  -0.234008  1.798055
H    -0.526920  -0.296984  -0.602213
H    1.055360  -0.516972  -0.181655
H    -0.645212  1.137013  1.520299
C    -0.962987  -0.975623  1.869441
C    -1.516261  -0.838555  3.294690
C    -0.598029  -1.176343  4.451129
O    -0.699309  -0.729368  5.573027
O    0.346609  -2.102921  4.113830
H    -0.401006  -1.913439  1.761110
H    -1.819908  -1.037937  1.181444
H    -2.376036  -1.519399  3.407789
H    -1.904064  0.170361  3.487166
O    1.070435  1.030157  3.254757
H    1.927469  0.990368  3.722680
H    0.851063  -2.277385  4.931756
