19
Energy: -15015.638933 eV PBE+vdW (tier 2 basis)
N    0.208212  0.620734  0.983539
C    0.012220  -0.424123  2.004184
C    1.394014  -0.928152  2.490593
O    2.408392  -0.126908  2.114678
H    1.958824  0.574888  1.564341
H    -0.527480  1.324381  1.026275
H    -0.424029  0.073095  2.886487
C    -0.883781  -1.604446  1.605390
C    -2.314592  -1.206190  1.192198
C    -3.046190  -0.490463  2.304310
O    -3.583627  -1.013286  3.254455
O    -3.008403  0.872630  2.142703
H    -0.916510  -2.308868  2.446057
H    -0.418487  -2.144588  0.765747
H    -2.882390  -2.115662  0.960768
H    -2.301731  -0.571834  0.296221
O    1.543274  -1.922616  3.163552
H    0.200230  0.225547  0.041872
H    -3.480862  1.244122  2.913950
