19
Energy: -15015.4736894 eV PBE+vdW (tier 2 basis)
N    0.270951  0.286748  -0.204744
C    0.339434  0.356556  1.270148
C    1.610658  -0.399400  1.739966
O    2.412688  -0.762284  0.727762
H    1.915841  -0.439724  -0.081695
H    -0.020652  1.172757  -0.612541
H    0.515380  1.409045  1.547161
C    -0.941820  -0.136149  1.962539
C    -1.007258  0.129752  3.465867
C    -2.360248  -0.236790  4.055169
O    -3.349948  -0.499635  3.415233
O    -2.417249  -0.236741  5.422313
H    -1.060755  -1.215686  1.778892
H    -1.801070  0.353389  1.482100
H    -0.836480  1.200585  3.673464
H    -0.201335  -0.407015  3.986483
O    1.869527  -0.620691  2.904703
H    -0.400818  -0.420610  -0.505876
H    -1.534845  -0.044105  5.785057
