19
Energy: -15015.3125125 eV PBE+vdW (tier 2 basis)
N    2.378310  -1.782478  1.597517
C    1.615101  -0.878589  0.753148
C    1.922304  0.554294  1.206969
O    2.189369  0.847413  2.347011
H    1.964532  -2.712261  1.634908
H    2.411985  -1.400285  2.545241
H    1.955994  -0.996384  -0.294078
C    0.071613  -1.055518  0.770213
C    -0.372212  -2.415803  0.203770
C    -1.881068  -2.498765  0.154409
O    -2.577372  -2.073365  -0.742553
O    -2.392399  -3.084189  1.275015
H    -0.400296  -0.258040  0.174886
H    -0.281402  -0.941876  1.805902
H    0.016019  -3.240524  0.816223
H    -0.003685  -2.532125  -0.824144
O    1.824377  1.522263  0.253822
H    1.657123  1.113192  -0.613603
H    -3.364291  -3.055959  1.175345
