19
Energy: -15015.3778358 eV PBE+vdW (tier 2 basis)
N    0.056565  0.006546  -0.064223
C    -0.015211  -0.087598  1.384713
C    1.330027  -0.157741  2.157219
O    1.397621  -0.145483  3.364307
H    0.399811  -0.813700  -0.557769
H    0.427199  0.876076  -0.432320
H    -0.487566  0.838640  1.747419
C    -0.917557  -1.244460  1.857249
C    -0.394801  -2.670813  1.566273
C    -0.680274  -3.148462  0.161623
O    -1.734262  -3.592571  -0.233484
O    0.409653  -3.020375  -0.669684
H    -1.914789  -1.116751  1.415486
H    -1.018933  -1.145278  2.944683
H    -0.920313  -3.368443  2.229805
H    0.679402  -2.744167  1.783041
O    2.443728  -0.237896  1.386468
H    2.132380  -0.225722  0.455555
H    0.115618  -3.359154  -1.538609
