19
Energy: -15015.5291299 eV PBE+vdW (tier 2 basis)
N    -0.479626  0.374132  -0.295858
C    -0.419794  -0.258322  1.028619
C    0.916373  -0.970954  1.204856
O    1.954581  -0.197001  0.775865
H    2.764140  -0.717469  0.942825
H    -1.291032  0.992273  -0.330580
H    -0.450362  0.482959  1.856301
C    -1.606751  -1.217184  1.196549
C    -1.905636  -1.625933  2.637457
C    -2.469660  -0.507019  3.481433
O    -2.789005  0.598937  3.091419
O    -2.603960  -0.885467  4.784624
H    -1.426811  -2.114219  0.590225
H    -2.490652  -0.716858  0.777024
H    -1.017435  -2.036135  3.138222
H    -2.646038  -2.440999  2.656393
O    1.086257  -2.065976  1.698211
H    0.345078  0.954214  -0.449161
H    -2.988667  -0.115978  5.247574
