19
Energy: -15015.2928595 eV PBE+vdW (tier 2 basis)
N    -0.320910  0.222709  -0.063210
C    -0.083139  -0.028990  1.369387
C    1.432184  0.049339  1.648965
O    1.990630  1.104796  1.843128
H    0.147892  -0.485052  -0.632933
H    0.085344  1.122279  -0.325284
H    -0.511758  0.822115  1.917910
C    -0.839777  -1.300159  1.773647
C    -0.899381  -1.595818  3.279783
C    0.283037  -2.286784  3.921861
O    0.666443  -2.121248  5.055457
O    0.871439  -3.203866  3.079174
H    -0.461054  -2.179170  1.226462
H    -1.864367  -1.154875  1.404985
H    -1.754343  -2.264658  3.472055
H    -1.088188  -0.685768  3.863274
O    2.165583  -1.095627  1.529470
H    1.586445  -1.882077  1.560431
H    1.599328  -3.603483  3.594917
