19
Energy: -15015.5898206 eV PBE+vdW (tier 2 basis)
N    -1.016715  -1.049828  -0.282983
C    -0.245833  -0.124570  0.541198
C    1.080619  -0.780527  0.904490
O    1.778509  -0.054638  1.819032
H    2.616465  -0.536385  1.959549
H    -1.558199  -0.553727  -0.986816
H    0.048030  0.797686  -0.000227
C    -1.053400  0.323176  1.778484
C    -1.427514  -0.844666  2.685286
C    -2.488465  -0.493424  3.697041
O    -3.231025  0.466077  3.657322
O    -2.546503  -1.419499  4.699412
H    -1.972072  0.808506  1.421422
H    -0.490343  1.084997  2.333412
H    -0.558261  -1.256107  3.218176
H    -1.824564  -1.667206  2.066072
O    1.501281  -1.814357  0.427817
H    -0.389884  -1.705369  -0.750745
H    -3.276123  -1.132140  5.282060
