28
Energy: -37223.6162593 eV PBE+vdW (tier 2 basis)
N    -1.530216  -1.103776  2.160128
C    -0.100710  -1.364136  1.808837
C    0.181464  -2.807120  2.205808
O    -0.463962  -3.389705  3.095020
H    -2.117456  -1.501679  1.417404
H    -1.697199  -0.095251  2.094691
H    0.080618  -1.247816  0.730245
C    0.880404  -0.406723  2.571708
C    0.949184  -0.724847  4.033890
C    1.888124  -1.533014  4.649549
C    -0.098675  -0.530798  4.999994
N    1.449450  -1.905006  5.898257
C    0.212730  -1.362103  6.131356
C    -1.297072  0.227748  5.024992
C    -0.721001  -1.601389  7.152837
C    -2.217104  0.002669  6.050646
C    -1.951342  -0.941416  7.077079
H    0.555199  0.626310  2.376831
H    1.869561  -0.506910  2.107271
H    2.844431  -1.885576  4.274590
H    1.974229  -2.480139  6.550789
H    -1.501301  0.978133  4.261182
H    -0.498453  -2.271010  7.983863
H    -3.142291  0.577644  6.084957
H    -2.693762  -1.105589  7.856943
O    1.179427  -3.353078  1.556210
H    1.336086  -4.275486  1.855273
Ca    -1.951363  -2.237936  4.387649
