28
Energy: -37222.9126118 eV PBE+vdW (tier 2 basis)
N    -0.167746  -0.663437  0.203979
C    0.441779  -1.092307  1.451014
C    0.814927  0.037772  2.407801
O    0.836097  1.258423  2.004952
H    -1.175739  -0.532987  0.277676
H    0.238753  0.205909  -0.146309
H    -0.266942  -1.737089  1.992718
C    1.701088  -1.935613  1.135514
C    1.336098  -3.069011  0.164789
C    0.697990  -2.632565  -1.120147
C    0.376001  -4.138899  0.636920
N    -0.304244  -3.427673  -1.411597
C    -0.585786  -4.341444  -0.363178
C    0.335237  -4.919244  1.785063
C    -1.592622  -5.293435  -0.286368
C    -0.678070  -5.880656  1.895231
C    -1.622240  -6.066247  0.877783
H    2.129024  -2.355165  2.054363
H    2.471707  -1.298336  0.675552
H    1.093599  -1.929863  -1.846984
H    -0.833401  -3.383972  -2.282019
H    1.073209  -4.804771  2.578694
H    -2.317847  -5.441042  -1.085435
H    -0.727579  -6.504396  2.786424
H    -2.390639  -6.829176  0.990848
O    1.123565  -0.234387  3.625973
H    2.290084  -3.552692  -0.133577
Ca    1.392698  1.878303  4.019321
