28
Energy: -37223.5178959 eV PBE+vdW (tier 2 basis)
N    -1.566057  -1.600626  2.390549
C    -0.199506  -1.440947  1.815402
C    0.381382  -2.842780  1.697307
O    0.089179  -3.737779  2.510270
H    -2.186370  -1.999467  1.676618
H    -1.956197  -0.673317  2.583911
H    -0.204229  -0.968384  0.822853
C    0.687653  -0.580849  2.777672
C    0.625876  -1.051728  4.205236
C    1.419781  -2.035115  4.777947
C    -0.349192  -0.672228  5.215165
N    0.945526  -2.345649  6.043001
C    -0.112784  -1.490085  6.362744
C    -1.404319  0.268379  5.260657
C    -0.880435  -1.401326  7.533653
C    -2.162993  0.358767  6.417817
C    -1.906289  -0.465173  7.537887
H    0.340911  0.459113  2.702558
H    1.718621  -0.584449  2.400662
H    2.288625  -2.549111  4.377431
H    1.470252  -2.887805  6.726372
H    -1.591817  0.946294  4.427596
H    -0.665710  -2.013251  8.409259
H    -2.962967  1.095338  6.478338
H    -2.516140  -0.349166  8.432759
O    1.229242  -2.993858  0.711316
H    1.600872  -3.903435  0.692532
Ca    -1.073915  -3.053362  4.353488
