28
Energy: -37223.1596411 eV PBE+vdW (tier 2 basis)
N    -0.601069  0.142001  0.032386
C    -0.593873  0.027474  1.493942
C    0.686399  0.752751  1.952570
O    1.005714  0.864707  3.162115
H    -1.399053  0.658568  -0.335478
H    -0.542918  -0.752922  -0.454215
H    -1.434304  0.593394  1.923788
C    -0.649794  -1.445678  1.987036
C    -0.515144  -1.688284  3.463846
C    0.472576  -2.451873  4.062708
C    -1.409772  -1.262967  4.528664
N    0.279591  -2.485280  5.446047
C    -0.911869  -1.813506  5.751742
C    -2.570277  -0.456431  4.571456
C    -1.523980  -1.586371  6.993436
C    -3.178651  -0.234025  5.798604
C    -2.664860  -0.791133  6.991501
H    0.127959  -2.019724  1.461990
H    -1.616823  -1.854493  1.656413
H    1.295656  -2.999028  3.610928
H    0.710493  -3.181640  6.051919
H    -3.001442  -0.041673  3.661492
H    -1.146108  -2.035174  7.911874
H    -4.083105  0.370825  5.847060
H    -3.183689  -0.605347  7.931066
O    1.396250  1.237930  1.002707
H    0.812121  0.964659  0.167778
Ca    0.825111  0.015014  5.097222
