28
Energy: -37222.7523555 eV PBE+vdW (tier 2 basis)
N    -0.276751  -1.224835  0.442214
C    0.514820  -1.519711  1.633790
C    -0.074203  -2.867373  2.076182
O    -0.880073  -3.086060  3.012289
H    -0.384906  -0.224363  0.285546
H    0.096970  -1.653640  -0.402976
H    1.584594  -1.711063  1.429279
C    0.398770  -0.356840  2.641566
C    0.673456  -0.724818  4.065733
C    1.833920  -1.214666  4.632161
C    -0.323386  -0.788692  5.094267
N    1.593731  -1.637492  5.924708
C    0.279577  -1.421184  6.241339
C    -1.685239  -0.399949  5.161915
C    -0.479717  -1.788218  7.365389
C    -2.432481  -0.742814  6.294647
C    -1.843101  -1.461740  7.369376
H    -0.616397  0.058511  2.567945
H    1.079494  0.433382  2.294613
H    2.828952  -1.306832  4.207132
H    2.304361  -1.992676  6.558079
H    -2.149199  0.153596  4.344323
H    -0.028489  -2.294418  8.219493
H    -3.477141  -0.439711  6.366819
H    -2.449528  -1.718335  8.237340
O    0.334474  -3.836939  1.291514
H    -0.132113  -4.679660  1.474837
Ca    -1.715396  -2.999460  5.022480
