28
Energy: -37222.3561576 eV PBE+vdW (tier 2 basis)
N    1.291888  0.326722  1.201703
C    0.080756  0.256460  2.094672
C    0.451018  0.822411  3.494266
O    1.370036  1.774801  3.440110
H    1.895511  -0.475989  1.420065
H    0.998576  0.174547  0.230824
H    -0.637802  0.983100  1.679062
C    -0.648910  -1.103858  2.120423
C    0.067544  -2.273195  2.737624
C    0.941007  -3.155478  2.071635
C    -0.073722  -2.790126  4.039167
N    1.346750  -4.140744  2.907738
C    0.737282  -3.957731  4.135233
C    -0.871652  -2.384959  5.210625
C    0.820910  -4.725976  5.283026
C    -0.746277  -3.252263  6.394991
C    0.068209  -4.354662  6.426999
H    -0.938842  -1.354615  1.088596
H    -1.590465  -0.936658  2.660484
H    1.255129  -3.156510  1.031266
H    1.951304  -4.916254  2.654672
H    -1.945436  -2.269290  4.957365
H    1.451286  -5.616608  5.316372
H    -1.333916  -2.984747  7.273859
H    0.137475  -4.964770  7.325740
O    -0.105579  0.445314  4.503686
H    -0.622861  -1.334467  5.486082
Ca    2.435782  2.412545  1.853715
