28
Energy: -37221.1136258 eV PBE+vdW (tier 2 basis)
N    -0.343674  -0.629715  -0.109967
C    -0.576817  -0.293458  1.261150
C    0.313447  0.774379  1.928330
O    0.190969  1.080925  3.101644
H    -0.853800  -0.041848  -0.763756
H    0.640408  -0.634953  -0.371314
H    -1.598241  0.106421  1.354660
C    -0.506671  -1.619297  2.127740
C    -0.780977  -1.420901  3.580248
C    0.141187  -1.452578  4.619361
C    -2.059416  -1.069831  4.184252
N    -0.491281  -1.141840  5.833971
C    -1.836631  -0.834349  5.577347
C    -3.377834  -0.993066  3.678849
C    -2.875942  -0.531418  6.470472
C    -4.406038  -0.682344  4.559788
C    -4.158108  -0.449970  5.932092
H    0.484186  -2.070313  1.981195
H    -1.239042  -2.294413  1.664663
H    1.218342  -1.588374  4.582189
H    0.017890  -0.818776  6.656133
H    -3.580800  -1.157463  2.620950
H    -2.690598  -0.334728  7.526398
H    -5.426870  -0.603251  4.188030
H    -4.990734  -0.191845  6.585597
O    1.208534  1.304496  1.088105
H    1.715616  1.994464  1.564093
Ca    -1.540237  -3.304430  5.278391
