28
Energy: -37222.8356107 eV PBE+vdW (tier 2 basis)
N    0.401468  -1.201069  0.257170
C    0.207034  -0.102221  1.262573
C    1.474785  0.138768  2.034905
O    1.581176  1.198808  2.743220
H    0.631153  -0.859527  -0.682953
H    -0.537867  -1.701968  0.233778
H    -0.087001  0.806809  0.724713
C    -0.983895  -0.535770  2.213319
C    -2.089573  -1.104009  1.398913
C    -2.489197  -2.441480  1.359991
C    -2.946305  -0.387004  0.483764
N    -3.534821  -2.571230  0.495076
C    -3.844481  -1.341494  -0.065497
C    -3.054621  0.960170  0.094720
C    -4.832364  -0.996775  -0.990093
C    -4.034599  1.306836  -0.827223
C    -4.908835  0.340160  -1.363411
H    -1.281390  0.365085  2.766150
H    -0.614958  -1.270705  2.943538
H    -2.134573  -3.288917  1.939400
H    -4.037506  -3.434558  0.320391
H    -2.416585  1.732417  0.527783
H    -5.520975  -1.737062  -1.395302
H    -4.143736  2.346210  -1.132826
H    -5.669620  0.650270  -2.077891
O    2.415354  -0.744170  2.041757
H    1.145382  -1.845745  0.565789
Ca    3.530432  0.550433  3.450452
