28
Energy: -37222.071407 eV PBE+vdW (tier 2 basis)
N    -0.224798  0.658904  0.433622
C    -0.019829  0.110093  1.811496
C    1.449017  0.012492  2.098285
O    2.294332  0.023354  1.161169
H    -0.604749  1.608569  0.519367
H    -1.034380  0.104194  0.068315
H    -0.522013  0.750521  2.551252
C    -0.676655  -1.339462  1.912470
C    -2.034595  -1.325527  1.319706
C    -2.439659  -2.003126  0.168780
C    -3.193165  -0.626505  1.820418
N    -3.763233  -1.764036  -0.050037
C    -4.263576  -0.925079  0.935139
C    -3.438062  0.195387  2.934965
C    -5.553823  -0.426794  1.120542
C    -4.720545  0.698178  3.122489
C    -5.762531  0.392577  2.225485
H    -0.691603  -1.612743  2.977932
H    -0.028854  -2.067970  1.402063
H    -1.887357  -2.697150  -0.457913
H    -4.317410  -2.196507  -0.781222
H    -2.659920  0.410857  3.669331
H    -6.367655  -0.675677  0.440667
H    -4.932803  1.325465  3.986791
H    -6.757173  0.795591  2.408964
O    1.905118  -0.181974  3.307449
H    1.212165  -0.177419  3.998070
Ca    1.837093  0.601872  -0.818430
