28
Energy: -37221.2249113 eV PBE+vdW (tier 2 basis)
N    -1.043792  0.910918  0.633907
C    -0.124107  0.144389  1.466713
C    1.161851  -0.265645  0.740819
O    1.697755  -1.349263  0.868765
H    -0.562570  1.308089  -0.172546
H    -1.432816  1.698531  1.151321
H    0.230743  0.727443  2.337826
C    -0.816904  -1.115155  2.076421
C    -1.217325  -2.115916  1.037976
C    -0.498639  -3.250448  0.680265
C    -2.366262  -2.063971  0.145851
N    -1.159596  -3.930583  -0.347649
C    -2.285212  -3.189850  -0.738103
C    -3.521326  -1.247068  0.105072
C    -3.308455  -3.523909  -1.641934
C    -4.534763  -1.579327  -0.785473
C    -4.428419  -2.695857  -1.649086
H    -1.695809  -0.752773  2.629000
H    -0.132026  -1.576717  2.798374
H    0.462902  -3.594785  1.051007
H    -0.713175  -4.644659  -0.922467
H    -3.586965  -0.363498  0.736718
H    -3.223207  -4.370297  -2.323569
H    -5.427445  -0.957250  -0.838684
H    -5.238201  -2.906953  -2.346804
O    1.630941  0.731266  -0.026258
H    2.482619  0.449319  -0.418767
Ca    -2.859156  -4.126868  1.473859
