28
Energy: -37221.1580414 eV PBE+vdW (tier 2 basis)
N    -0.410426  0.377861  0.555609
C    -0.143071  -0.269496  1.818084
C    1.363504  -0.525299  2.033026
O    2.155696  -0.564323  1.122965
H    -0.492096  1.387948  0.657041
H    0.362301  0.196045  -0.093086
H    -0.524254  0.334678  2.652010
C    -0.849698  -1.682078  1.867901
C    -2.315220  -1.502527  1.679947
C    -2.934591  -1.155660  0.480925
C    -3.344329  -1.431144  2.708729
N    -4.304686  -0.945523  0.700180
C    -4.569038  -1.040214  2.076925
C    -3.357808  -1.739785  4.089572
C    -5.787935  -0.956714  2.768214
C    -4.561820  -1.645986  4.776245
C    -5.757293  -1.259878  4.127289
H    -0.619489  -2.174252  2.821227
H    -0.413210  -2.287119  1.060735
H    -2.497043  -1.018942  -0.503218
H    -4.907134  -0.458966  0.036983
H    -2.441279  -2.021994  4.607082
H    -6.708709  -0.640078  2.278214
H    -4.588441  -1.862833  5.843487
H    -6.676795  -1.186616  4.706977
O    1.643410  -0.727980  3.335157
H    2.606606  -0.887229  3.420022
Ca    -4.092739  -3.358045  1.253453
