28
Energy: -37221.2367272 eV PBE+vdW (tier 2 basis)
N    0.706885  -0.545227  0.387832
C    -0.080432  -0.074635  1.500300
C    0.838409  0.376423  2.637592
O    2.023860  0.129977  2.678681
H    0.406049  -0.159659  -0.504221
H    1.698357  -0.348833  0.533949
H    -0.747281  0.760555  1.239154
C    -1.036446  -1.227297  2.031727
C    -0.196435  -2.381010  2.456486
C    0.500404  -3.221585  1.590570
C    0.291832  -2.677854  3.796879
N    1.337792  -4.070873  2.329311
C    1.281723  -3.705772  3.684642
C    -0.076047  -2.221226  5.084054
C    1.901813  -4.288131  4.800896
C    0.544408  -2.790967  6.188826
C    1.518767  -3.806031  6.050228
H    -1.694505  -1.490227  1.194719
H    -1.660567  -0.844736  2.848661
H    0.479580  -3.259041  0.505812
H    2.107869  -4.593230  1.912651
H    -0.809812  -1.424404  5.201898
H    2.668882  -5.055868  4.699776
H    0.286152  -2.442604  7.188142
H    1.990852  -4.214908  6.942858
O    0.154885  1.034806  3.596859
H    0.800149  1.354345  4.260570
Ca    -0.899593  -4.798687  3.126773
