28
Energy: -37222.7627434 eV PBE+vdW (tier 2 basis)
N    -1.163482  0.093264  1.048290
C    -0.237791  0.866125  1.852534
C    1.085758  1.237589  1.159892
O    1.361566  0.780604  -0.008259
H    -0.714716  -0.723710  0.631670
H    -1.558794  0.639417  0.283386
H    -0.703183  1.840540  2.081426
C    0.063957  0.157715  3.191877
C    -1.145502  0.099582  4.168792
C    -2.354193  -0.618208  3.653834
C    -0.859065  -0.652147  5.450678
N    -2.675770  -1.585768  4.468832
C    -1.808644  -1.675825  5.586287
C    0.110112  -0.500575  6.432546
C    -1.852605  -2.566585  6.650478
C    0.092734  -1.385655  7.519176
C    -0.868609  -2.399524  7.626961
H    0.874379  0.681964  3.713821
H    0.411213  -0.867654  2.996001
H    -2.913800  -0.403758  2.748993
H    -3.482206  -2.198602  4.331624
H    0.860611  0.287278  6.378262
H    -2.608444  -3.346762  6.729097
H    0.840985  -1.280124  8.303367
H    -0.852387  -3.065829  8.487703
O    1.912961  2.038011  1.738398
H    -1.458481  1.139886  4.386958
Ca    3.167395  1.985752  -0.025626
