28
Energy: -37222.8387294 eV PBE+vdW (tier 2 basis)
N    0.436196  -0.698887  0.186746
C    -0.013578  -0.159574  1.520846
C    1.180432  0.057006  2.420193
O    1.042679  0.755659  3.481812
H    0.608231  0.038756  -0.506386
H    -0.322820  -1.342551  -0.173522
H    -0.528225  0.792284  1.347293
C    -1.034651  -1.173661  2.169203
C    -2.029722  -1.632536  1.164142
C    -3.270583  -1.074618  0.893723
C    -1.839267  -2.705903  0.210323
N    -3.846900  -1.738062  -0.151405
C    -3.008124  -2.737118  -0.605191
C    -0.827773  -3.666690  -0.013093
C    -3.180840  -3.668157  -1.631425
C    -0.997573  -4.588567  -1.038943
C    -2.156805  -4.584598  -1.840351
H    -1.501220  -0.648984  3.011860
H    -0.472636  -2.025729  2.581947
H    -3.792000  -0.265062  1.394404
H    -4.775873  -1.549683  -0.512457
H    0.052596  -3.728126  0.631742
H    -4.084572  -3.685084  -2.239357
H    -0.233716  -5.344176  -1.215882
H    -2.258982  -5.326793  -2.630220
O    2.300099  -0.528759  2.167263
H    1.305094  -1.243956  0.298005
Ca    3.094103  0.316557  4.055561
