28
Energy: -37222.3490929 eV PBE+vdW (tier 2 basis)
N    -0.656144  0.770985  0.353800
C    -0.069993  0.007875  1.441601
C    1.405881  0.402492  1.430152
O    1.882655  1.121549  2.379837
H    -1.651682  0.949479  0.448069
H    -0.406572  0.469241  -0.582993
H    -0.463680  0.428348  2.377036
C    -0.308819  -1.522591  1.535598
C    -0.037593  -2.390053  0.266283
C    -1.155898  -2.385321  -0.725073
C    0.104483  -3.870084  0.553659
N    -1.571248  -3.603684  -0.943380
C    -0.851491  -4.567839  -0.201009
C    0.952604  -4.588632  1.384329
C    -1.014227  -5.947886  -0.182619
C    0.812815  -5.982581  1.426332
C    -0.151017  -6.651062  0.657990
H    -1.346209  -1.682789  1.860829
H    0.320115  -1.926420  2.342779
H    -1.614875  -1.536997  -1.225363
H    -2.331151  -3.839918  -1.585806
H    1.711052  -4.096615  1.992277
H    -1.767034  -6.455919  -0.783773
H    1.468812  -6.563524  2.073078
H    -0.229364  -7.735113  0.719045
O    2.165957  0.094735  0.431207
H    0.866585  -1.998156  -0.241253
Ca    3.649046  1.495899  1.216334
