28
Energy: -37223.2919846 eV PBE+vdW (tier 2 basis)
N    0.932554  -1.435237  0.393900
C    0.428938  -0.338836  1.265593
C    1.604826  0.089717  2.143400
O    2.465379  -0.737054  2.473833
H    1.576949  -1.043415  -0.302251
H    0.150498  -1.807103  -0.154656
H    0.055731  0.517885  0.681823
C    -0.744195  -0.867203  2.165335
C    -0.423008  -2.167752  2.847724
C    -0.640940  -3.429013  2.308932
C    0.275472  -2.369484  4.105683
N    -0.046960  -4.391483  3.113004
C    0.482422  -3.775842  4.253007
C    0.739759  -1.503640  5.122154
C    1.127043  -4.338276  5.364402
C    1.369877  -2.058359  6.223154
C    1.562466  -3.454582  6.342590
H    -1.620769  -0.988383  1.513710
H    -1.014034  -0.093679  2.896859
H    -1.189794  -3.721060  1.417853
H    -0.252106  -5.386511  3.047297
H    0.590090  -0.426580  5.057446
H    1.250903  -5.415147  5.473974
H    1.717591  -1.409001  7.025178
H    2.051793  -3.847642  7.232708
O    1.685865  1.313458  2.610959
H    1.008228  1.918090  2.247766
Ca    2.003253  -2.914693  2.146931
