28
Energy: -37222.3008479 eV PBE+vdW (tier 2 basis)
N    1.159981  0.437739  0.902042
C    0.937483  -0.428398  2.122797
C    2.072788  -0.212016  3.152132
O    3.221786  0.176608  2.619233
H    0.795646  -0.050224  0.075887
H    0.550840  1.259193  0.983682
H    0.000802  -0.121817  2.605949
C    0.828888  -1.907516  1.684870
C    0.773057  -2.957287  2.764309
C    1.437607  -4.195253  2.656970
C    0.063840  -3.006690  3.974997
N    1.165968  -4.970642  3.727249
C    0.323938  -4.275532  4.575172
C    -0.762176  -2.035915  4.720800
C    -0.204907  -4.661811  5.790768
C    -1.327645  -2.526927  5.994685
C    -1.048461  -3.766418  6.501815
H    1.686652  -2.140791  1.033174
H    -0.071219  -1.997474  1.052159
H    2.081905  -4.556731  1.860565
H    1.525257  -5.907819  3.881632
H    -1.557825  -1.577117  4.106607
H    0.017966  -5.644315  6.210701
H    -1.972883  -1.845077  6.549327
H    -1.467294  -4.080465  7.456071
O    1.874695  -0.412970  4.333283
H    -0.099014  -1.166949  4.964104
Ca    3.527326  1.143614  0.880018
