28
Energy: -37223.7830761 eV PBE+vdW (tier 2 basis)
N    0.126228  0.485489  0.331233
C    -0.458341  0.381698  1.728879
C    0.700168  0.600850  2.712899
O    0.452007  1.077552  3.855991
H    -0.429291  -0.022958  -0.370905
H    1.083665  0.083444  0.379003
H    -1.217520  1.162548  1.844673
C    -1.070643  -1.047061  1.942860
C    -1.077221  -1.417115  3.395169
C    -2.000352  -1.025175  4.343072
C    0.031417  -1.976835  4.121259
N    -1.512167  -1.261797  5.604421
C    -0.260330  -1.812461  5.519339
C    1.248120  -2.596167  3.750233
C    0.677391  -2.125143  6.516044
C    2.169173  -2.940941  4.744485
C    1.900317  -2.674985  6.112239
H    -0.469944  -1.777151  1.378199
H    -2.082725  -1.061738  1.516833
H    -2.975003  -0.565364  4.211342
H    -2.022188  -1.083135  6.464203
H    1.475903  -2.800623  2.704563
H    0.458549  -1.970609  7.572748
H    3.098707  -3.440054  4.470993
H    2.635176  -2.953346  6.866893
O    1.836952  0.130038  2.379206
H    0.212514  1.462563  0.017151
Ca    2.105439  -0.216524  4.696975
