28
Energy: -37222.7127678 eV PBE+vdW (tier 2 basis)
N    0.781857  -1.142756  0.402927
C    0.511211  -1.704529  1.688864
C    -0.740435  -2.585842  1.836222
O    -0.993379  -3.249431  2.873449
H    0.985603  -1.829632  -0.319615
H    0.073256  -0.494370  0.063778
H    1.344612  -2.383160  1.946609
C    0.485740  -0.564973  2.760017
C    0.511568  -0.977611  4.204406
C    1.570344  -1.570602  4.877001
C    -0.538568  -0.781600  5.190008
N    1.219839  -1.801578  6.209379
C    -0.051848  -1.265405  6.445618
C    -1.859982  -0.281585  5.118903
C    -0.827737  -1.260358  7.615383
C    -2.626192  -0.273815  6.274991
C    -2.117303  -0.752113  7.505221
H    -0.382680  0.082262  2.575101
H    1.372115  0.043035  2.534117
H    2.567142  -1.821238  4.523786
H    1.902604  -1.994895  6.940232
H    -2.260884  0.111582  4.185423
H    -0.433159  -1.607345  8.570116
H    -3.639707  0.123750  6.244185
H    -2.747592  -0.709003  8.392590
O    -1.529385  -2.616309  0.796617
H    -2.297091  -3.211161  0.944432
Ca    -0.439442  -3.356647  4.972799
