28
Energy: -37221.1101897 eV PBE+vdW (tier 2 basis)
N    -0.851283  0.191412  0.345016
C    -0.131103  -0.120221  1.565738
C    1.339713  -0.490633  1.278601
O    1.737014  -0.778216  0.174943
H    -0.899373  1.198690  0.197471
H    -0.319658  -0.189270  -0.446087
H    -0.141872  0.734482  2.256615
C    -0.782152  -1.343581  2.302641
C    -2.156613  -1.022954  2.791624
C    -2.524900  -0.792344  4.112108
C    -3.366283  -0.841276  2.000254
N    -3.890085  -0.501977  4.188966
C    -4.424534  -0.474369  2.895520
C    -3.689063  -1.171447  0.660793
C    -5.774069  -0.425216  2.498431
C    -5.024122  -1.136280  0.272303
C    -6.050090  -0.758390  1.173788
H    -0.145404  -1.643839  3.145163
H    -0.802994  -2.176913  1.582320
H    -1.911350  -0.781968  5.009330
H    -4.331887  -0.083380  5.006931
H    -2.893031  -1.416520  -0.039486
H    -6.566433  -0.127478  3.185623
H    -5.290992  -1.386635  -0.753866
H    -7.080797  -0.721792  0.822001
O    2.081120  -0.476012  2.403562
H    3.001985  -0.712659  2.167002
Ca    -4.036948  -2.860387  3.248143
