28
Energy: -37222.4607941 eV PBE+vdW (tier 2 basis)
N    -0.035800  -0.461358  0.065187
C    -0.377342  0.234532  1.305005
C    0.603193  1.410900  1.279786
O    1.845773  1.227021  1.568034
H    -0.843509  -0.869558  -0.399356
H    0.682427  -1.172638  0.193792
H    -1.378535  0.667384  1.176690
C    -0.297008  -0.645513  2.563200
C    -0.777620  0.001935  3.898522
C    -2.252783  0.226462  3.975991
C    -0.530761  -0.847042  5.126261
N    -2.743384  -0.378548  5.023989
C    -1.757524  -1.056952  5.776756
C    0.617363  -1.412686  5.662034
C    -1.912436  -1.801814  6.939765
C    0.492826  -2.170647  6.834606
C    -0.746512  -2.362261  7.462339
H    0.745731  -0.957490  2.716754
H    -0.878526  -1.559405  2.379363
H    -2.889335  0.796346  3.303164
H    -3.733631  -0.361464  5.279551
H    1.593121  -1.276999  5.197025
H    -2.879991  -1.943166  7.419431
H    1.381929  -2.623113  7.271507
H    -0.801242  -2.958032  8.371812
O    0.223132  2.550445  0.822680
H    -0.287044  0.989931  4.007049
Ca    2.290664  3.038346  0.454945
