28
Energy: -37223.2514428 eV PBE+vdW (tier 2 basis)
N    -0.511364  0.189524  0.015236
C    -0.513466  0.069142  1.521572
C    0.857041  0.696013  1.924970
O    1.057268  0.821960  3.190891
H    -1.195182  0.865528  -0.343081
H    -0.644559  -0.699201  -0.481116
H    -1.326304  0.689965  1.916451
C    -0.670843  -1.407579  1.957005
C    -0.520857  -1.679834  3.429203
C    0.442546  -2.498498  3.991421
C    -1.373566  -1.233947  4.517434
N    0.275682  -2.549216  5.375837
C    -0.874622  -1.828026  5.719013
C    -2.495876  -0.378871  4.600024
C    -1.452555  -1.599880  6.976771
C    -3.069941  -0.154700  5.842950
C    -2.557598  -0.757120  7.014097
H    0.070247  -2.015758  1.416291
H    -1.665460  -1.761045  1.640928
H    1.233460  -3.069661  3.513172
H    0.689160  -3.272585  5.961164
H    -2.924891  0.075986  3.708272
H    -1.075060  -2.081594  7.878499
H    -3.944901  0.488991  5.921675
H    -3.048556  -0.567196  7.967603
O    1.621079  1.001694  1.012414
H    0.489686  0.568311  -0.137532
Ca    0.940432  -0.031404  5.066835
