28
Energy: -37222.5668461 eV PBE+vdW (tier 2 basis)
N    -1.267979  0.466173  0.687291
C    -0.384900  -0.041595  1.801517
C    1.042134  -0.129637  1.226329
O    1.232138  -0.191918  0.028980
H    -1.029493  1.464101  0.601319
H    -0.803847  0.078712  -0.160421
H    -0.419374  0.684566  2.623884
C    -0.777923  -1.444954  2.344312
C    -2.225916  -1.536233  2.695288
C    -2.858133  -1.172200  3.872042
C    -3.271283  -1.873938  1.773297
N    -4.226178  -1.201990  3.705303
C    -4.525432  -1.581819  2.420105
C    -3.273989  -2.288452  0.415814
C    -5.734469  -1.552712  1.704393
C    -4.479582  -2.260365  -0.290044
C    -5.689366  -1.860111  0.338896
H    -0.143591  -1.641784  3.218244
H    -0.519600  -2.211843  1.599484
H    -2.428953  -0.888327  4.828602
H    -4.903254  -1.015943  4.440407
H    -2.350860  -2.598554  -0.076179
H    -6.679123  -1.297503  2.185865
H    -4.502376  -2.566027  -1.336061
H    -6.611158  -1.842566  -0.241321
O    1.963475  -0.174139  2.186539
H    2.852216  -0.271423  1.782851
Ca    -3.703455  0.254557  0.530505
