28
Energy: -37222.3585108 eV PBE+vdW (tier 2 basis)
N    0.684509  1.072854  1.758587
C    1.108316  -0.226847  2.399605
C    2.538181  -0.575406  1.891712
O    3.300288  0.498085  1.733714
H    0.272135  0.850861  0.843334
H    -0.095888  1.472041  2.290080
H    1.212465  -0.021415  3.477278
C    0.074857  -1.357292  2.183855
C    0.274302  -2.596559  3.013254
C    1.086000  -3.702314  2.658546
C    -0.319481  -2.929268  4.232594
N    1.007490  -4.654634  3.604183
C    0.147795  -4.230496  4.604831
C    -1.295397  -2.246288  5.117446
C    -0.251901  -4.880977  5.748324
C    -1.679049  -3.008296  6.336473
C    -1.182964  -4.244384  6.624637
H    0.077703  -1.633518  1.118546
H    -0.925690  -0.951756  2.400421
H    1.709379  -3.826024  1.780132
H    1.496742  -5.544778  3.579315
H    -2.222586  -2.000229  4.561261
H    0.126154  -5.875476  5.991405
H    -2.392750  -2.535968  7.011882
H    -1.495168  -4.766633  7.527251
O    2.885925  -1.717460  1.686276
H    -0.928438  -1.251383  5.435508
Ca    2.745071  2.401561  1.413554
