28
Energy: -37222.4958782 eV PBE+vdW (tier 2 basis)
N    -0.270684  -1.932698  1.979711
C    0.842052  -1.561612  1.120301
C    1.682532  -0.609950  1.980806
O    2.785581  -1.012812  2.500157
H    -1.047651  -1.276533  1.958979
H    -0.275030  -1.245788  -2.191365
H    1.466278  -2.454930  0.977803
C    0.524235  -0.913502  -0.245764
C    -0.294417  -1.794286  -1.222402
C    0.258437  -3.134651  -1.566854
C    -1.737753  -2.118365  -0.911033
N    -0.690539  -4.033102  -1.522021
C    -1.936894  -3.492129  -1.129504
C    -2.822679  -1.332086  -0.544540
C    -3.160105  -4.138328  -0.988276
C    -4.065996  -1.957010  -0.389158
C    -4.232768  -3.334011  -0.604100
H    1.466360  -0.629088  -0.738976
H    -0.035925  0.019849  -0.092958
H    1.271931  -3.387609  -1.871141
H    -0.557531  -5.014689  -1.776122
H    -2.722421  -0.258278  -0.389043
H    -3.283166  -5.204256  -1.175344
H    -4.929676  -1.359016  -0.101571
H    -5.217454  -3.781059  -0.478887
O    1.244184  0.570092  2.253977
H    -0.604529  -2.881512  1.843042
Ca    2.857626  0.792357  3.684280
