28
Energy: -37222.3382398 eV PBE+vdW (tier 2 basis)
N    0.156949  0.433399  0.064396
C    -0.076080  0.082469  1.455419
C    1.130507  0.681248  2.176637
O    0.998052  1.777589  2.830564
H    0.822017  -0.161500  -0.423836
H    -0.695581  0.550279  -0.476840
H    -0.932822  0.677095  1.799870
C    -0.393844  -1.387322  1.830951
C    0.545441  -2.488051  1.237353
C    0.822244  -3.587977  2.204060
C    0.051192  -3.260840  0.029840
N    0.561822  -4.747271  1.665180
C    0.088940  -4.631938  0.336847
C    -0.408644  -2.879428  -1.223144
C    -0.292989  -5.646654  -0.531363
C    -0.802935  -3.879887  -2.122790
C    -0.744683  -5.238713  -1.786865
H    -1.416466  -1.605890  1.497184
H    -0.412055  -1.462667  2.928853
H    1.193685  -3.502743  3.222791
H    0.683862  -5.641921  2.144973
H    -0.478288  -1.832935  -1.513219
H    -0.245813  -6.699129  -0.254980
H    -1.167882  -3.593297  -3.108084
H    -1.059487  -5.986946  -2.512135
O    2.307863  0.161523  2.051131
H    1.532473  -2.025239  1.025009
Ca    3.126953  2.017014  2.875647
