28
Energy: -37222.4982237 eV PBE+vdW (tier 2 basis)
N    -0.298432  0.613716  0.468459
C    0.019967  -0.271256  1.574830
C    1.521733  -0.300727  1.814651
O    2.097000  -1.306637  2.376864
H    0.330009  1.417498  0.451785
H    0.683405  -2.198089  -0.212549
H    -0.343208  0.112611  2.558644
C    -0.628931  -1.661851  1.451636
C    -0.340659  -2.446154  0.127866
C    -0.385796  -3.916368  0.385204
C    -1.318411  -2.309312  -1.025421
N    -1.233504  -4.494545  -0.420233
C    -1.841174  -3.582342  -1.313624
C    -1.729603  -1.235210  -1.802272
C    -2.767764  -3.848557  -2.313881
C    -2.664868  -1.472186  -2.819828
C    -3.180809  -2.750923  -3.069550
H    -1.716197  -1.543445  1.545707
H    -0.304066  -2.258940  2.313637
H    0.163445  -4.479567  1.136368
H    -1.435543  -5.496852  -0.413965
H    -1.327417  -0.240685  -1.624099
H    -3.146759  -4.851426  -2.506087
H    -2.998361  -0.638758  -3.436714
H    -3.906322  -2.893674  -3.868505
O    2.222592  0.742100  1.532393
H    -1.248123  0.975103  0.560595
Ca    3.924796  -0.124523  2.531087
