28
Energy: -37222.2167166 eV PBE+vdW (tier 2 basis)
N    0.118292  -0.289029  1.243592
C    0.661873  0.279629  2.529101
C    2.207839  0.413083  2.408777
O    2.599349  0.720513  1.178732
H    0.245695  -1.308307  1.266844
H    -0.898085  -0.156012  1.223338
H    0.294273  1.318462  2.574778
C    0.180462  -0.400501  3.826314
C    0.557126  -1.836667  4.079755
C    1.868032  -2.338685  4.286381
C    -0.305844  -2.910118  4.333131
N    1.817047  -3.642518  4.620132
C    0.494095  -4.046833  4.672466
C    -1.782613  -3.044089  4.388600
C    -0.034042  -5.272387  5.012479
C    -2.280251  -4.398505  4.743955
C    -1.450159  -5.440939  5.036597
H    -0.913471  -0.301421  3.880377
H    0.577097  0.213518  4.649067
H    2.808097  -1.797404  4.229287
H    2.623788  -4.220763  4.838168
H    -2.267526  -2.725183  3.446619
H    0.614243  -6.110819  5.273671
H    -3.361430  -4.535132  4.780741
H    -1.859496  -6.413061  5.305679
O    2.934614  0.278699  3.367871
H    -2.206180  -2.331360  5.126790
Ca    1.532175  0.724830  -0.523241
