28
Energy: -37222.4972 eV PBE+vdW (tier 2 basis)
N    0.501035  -0.367134  -0.106944
C    -0.165114  0.418235  0.924244
C    0.860620  1.515201  1.218323
O    1.920135  1.249488  1.902513
H    -0.138668  -0.750162  -0.798770
H    1.097293  -1.104682  0.264875
H    -1.027791  0.910990  0.460746
C    -0.601005  -0.406620  2.149403
C    -1.367983  0.387111  3.261651
C    -1.697324  -0.543289  4.379116
C    -2.732930  0.930117  2.897535
N    -2.988263  -0.583612  4.568416
C    -3.690063  0.290969  3.704588
C    -3.165218  1.889339  1.989974
C    -5.056660  0.530308  3.644202
C    -4.539876  2.150603  1.903440
C    -5.469792  1.481049  2.709636
H    0.288511  -0.868305  2.602528
H    -1.246353  -1.216281  1.781583
H    -1.012635  -1.157452  4.960214
H    -3.445049  -1.175892  5.265716
H    -2.466872  2.446208  1.366500
H    -5.768115  0.017075  4.289765
H    -4.894993  2.898225  1.195618
H    -6.529307  1.712385  2.614881
O    0.741738  2.667977  0.662219
H    -0.697921  1.176620  3.650222
Ca    2.843851  3.005592  1.020894
