28
Energy: -37222.0961144 eV PBE+vdW (tier 2 basis)
N    -2.466007  -0.181886  -0.159611
C    -2.348350  -0.496314  1.233126
C    -2.167893  0.775104  2.030965
O    -1.213980  1.545427  1.924342
H    -1.597376  0.098836  -0.610798
H    -2.928266  -0.906926  -0.702373
H    -3.283525  -0.980522  1.548330
C    -1.115091  -1.429326  1.671274
C    -0.498439  -1.179782  3.019549
C    0.787307  -0.707020  3.234377
C    -1.095130  -1.354128  4.334605
N    1.006502  -0.512982  4.604755
C    -0.124750  -0.962481  5.306387
C    -2.348955  -1.828963  4.779239
C    -0.369615  -1.009191  6.687678
C    -2.591109  -1.883992  6.143132
C    -1.617624  -1.474914  7.084119
H    -0.345462  -1.294695  0.901042
H    -1.465761  -2.468427  1.604040
H    1.580052  -0.506835  2.518203
H    1.939635  -0.472971  5.013415
H    -3.093391  -2.191415  4.069362
H    0.391615  -0.734969  7.417855
H    -3.543032  -2.269385  6.506139
H    -1.842915  -1.549641  8.147152
O    -2.940285  0.996774  3.137882
H    -3.694203  0.377953  3.217559
Ca    -0.638441  1.356309  4.138486
