28
Energy: -37222.8656019 eV PBE+vdW (tier 2 basis)
N    1.028275  -1.579086  0.533868
C    0.615140  -1.814684  1.884098
C    -0.755470  -2.478294  2.084227
O    -1.108772  -3.053051  3.147387
H    1.125790  -2.422133  -0.027898
H    0.464331  -0.897696  0.028588
H    1.326552  -2.517131  2.349914
C    0.697815  -0.472076  2.698077
C    0.745759  -0.649556  4.181739
C    1.872333  -0.907733  4.941141
C    -0.360708  -0.707129  5.093544
N    1.522838  -1.179598  6.246225
C    0.163243  -1.091044  6.383502
C    -1.755790  -0.494549  4.963710
C    -0.678918  -1.386060  7.469293
C    -2.591428  -0.772088  6.050643
C    -2.060806  -1.244283  7.281912
H    -0.123953  0.195365  2.400877
H    1.623167  -0.003809  2.337868
H    2.916106  -0.920465  4.640677
H    2.184390  -1.347590  6.999126
H    -2.176883  -0.127188  4.027269
H    -0.278479  -1.697734  8.434676
H    -3.665176  -0.605046  5.965159
H    -2.735823  -1.448837  8.112269
O    -1.549504  -2.424896  1.044018
H    -2.396299  -2.891562  1.209424
Ca    -1.447731  -3.089045  5.297667
