28
Energy: -37223.5098654 eV PBE+vdW (tier 2 basis)
N    -1.631267  1.078447  2.056069
C    -0.450746  0.185156  2.244586
C    -0.001734  -0.247920  0.857224
O    -0.753194  -0.211655  -0.133650
H    -2.117820  1.159946  2.954993
H    -1.292940  2.024047  1.845134
H    0.394860  0.715198  2.706181
C    -0.794284  -1.051327  3.175100
C    -2.250620  -1.387826  3.119131
C    -3.212863  -0.971826  4.020595
C    -2.969535  -1.889337  1.977301
N    -4.470229  -1.121675  3.478228
C    -4.364330  -1.628248  2.208772
C    -2.585728  -2.512630  0.764751
C    -5.325580  -1.790320  1.197436
C    -3.543620  -2.682268  -0.237389
C    -4.891055  -2.283217  -0.036431
H    -0.514004  -0.775205  4.198782
H    -0.148348  -1.895264  2.898798
H    -3.090411  -0.564034  5.020203
H    -5.340040  -0.923381  3.964332
H    -1.560383  -2.845909  0.606274
H    -6.376764  -1.554982  1.364924
H    -3.264640  -3.155403  -1.178631
H    -5.613824  -2.422845  -0.839335
O    1.238189  -0.668049  0.812033
H    1.490704  -0.944430  -0.096072
Ca    -2.985797  0.020955  0.179664
