28
Energy: -37223.3347098 eV PBE+vdW (tier 2 basis)
N    0.563224  -1.681699  0.212490
C    0.153893  -0.580372  1.126425
C    1.437451  -0.046736  1.763138
O    2.388729  -0.813069  1.973467
H    -0.275013  -2.140683  -0.156709
H    1.029512  -1.283688  -0.610612
H    -0.378289  0.226255  0.596939
C    -0.782624  -1.145237  2.250581
C    -0.221612  -2.371075  2.918196
C    0.648131  -2.386966  3.999646
C    -0.377503  -3.753207  2.494862
N    1.101082  -3.677259  4.218123
C    0.453342  -4.551286  3.340451
C    -1.123530  -4.395075  1.479323
C    0.559772  -5.944076  3.209879
C    -1.020092  -5.771915  1.349432
C    -0.189528  -6.535794  2.201293
H    -1.752920  -1.372094  1.787222
H    -0.976903  -0.352382  2.985228
H    0.994940  -1.570626  4.626843
H    1.594548  -3.968799  5.059484
H    -1.806167  -3.834257  0.840403
H    1.175779  -6.538684  3.883848
H    -1.607267  -6.284244  0.588577
H    -0.151165  -7.616885  2.075170
O    1.525959  1.199102  2.164786
H    0.759413  1.750529  1.909769
Ca    2.036839  -3.028776  1.731743
