28
Energy: -37222.0754733 eV PBE+vdW (tier 2 basis)
N    1.427901  -0.175454  1.034471
C    0.370905  0.010445  2.096430
C    1.148966  0.306663  3.395186
O    2.163126  1.060304  3.275844
H    1.725773  -1.164885  1.116552
H    0.959321  -0.128432  0.121733
H    -0.135567  0.968155  1.873716
C    -0.673793  -1.120928  2.098372
C    -0.129114  -2.420409  2.594676
C    0.605554  -3.386021  1.916256
C    -0.229391  -2.864620  3.954533
N    0.984830  -4.368622  2.795406
C    0.502414  -4.079528  4.057255
C    -0.873493  -2.344042  5.101173
C    0.633054  -4.765764  5.265953
C    -0.729406  -3.025357  6.309925
C    0.021296  -4.212687  6.388445
H    -1.073401  -1.197634  1.074994
H    -1.530526  -0.802244  2.710690
H    0.810773  -3.492778  0.854595
H    1.468793  -5.221466  2.538192
H    -1.582177  -1.511323  5.036175
H    1.185519  -5.702297  5.334526
H    -1.235691  -2.655328  7.199977
H    0.103928  -4.725638  7.345117
O    0.824981  -0.070667  4.574562
H    0.188067  -0.864942  4.674614
Ca    3.218135  1.394355  1.493261
