28
Energy: -37222.6906407 eV PBE+vdW (tier 2 basis)
N    0.559934  -1.023909  0.352181
C    0.445176  -1.660373  1.634898
C    -0.819485  -2.498066  1.728560
O    -1.149118  -3.117831  2.770874
H    1.408020  -0.465016  0.274738
H    0.525404  -1.668773  -0.435637
H    1.251704  -2.390405  1.889514
C    0.459491  -0.549175  2.734117
C    0.466397  -0.993270  4.168574
C    1.472100  -1.685105  4.827562
C    -0.564804  -0.730399  5.158647
N    1.102081  -1.913384  6.155370
C    -0.120599  -1.277427  6.403863
C    -1.841510  -0.124075  5.096980
C    -0.894204  -1.231334  7.574031
C    -2.605567  -0.076699  6.253758
C    -2.137921  -0.617314  7.474426
H    -0.383122  0.127141  2.544156
H    1.366917  0.042557  2.545724
H    2.443930  -2.013616  4.469384
H    1.765292  -2.178699  6.881558
H    -2.208397  0.316991  4.170918
H    -0.530294  -1.628009  8.521552
H    -3.583843  0.401548  6.230794
H    -2.763185  -0.539776  8.363034
O    -1.533091  -2.565265  0.639578
H    -2.315306  -3.147543  0.757567
Ca    -0.678000  -3.294772  4.882276
