28
Energy: -37223.3363176 eV PBE+vdW (tier 2 basis)
N    -3.077986  -0.337253  0.179040
C    -2.583233  -0.443194  1.557238
C    -2.145583  0.989841  1.929648
O    -1.871540  1.349770  3.102702
H    -2.709744  -1.054781  -0.445024
H    -4.096083  -0.345677  0.109793
H    -3.382210  -0.723622  2.259596
C    -1.421013  -1.484143  1.643615
C    -0.464787  -1.331926  2.786204
C    0.894533  -1.121033  2.669447
C    -0.750155  -1.294214  4.192576
N    1.460502  -0.915226  3.907939
C    0.487372  -0.989861  4.869812
C    -1.927304  -1.436167  4.966640
C    0.540106  -0.745770  6.252779
C    -1.872186  -1.203457  6.345648
C    -0.654539  -0.840116  6.979597
H    -0.844126  -1.415899  0.709894
H    -1.887741  -2.480320  1.652121
H    1.512465  -1.097164  1.776558
H    2.454895  -0.795076  4.077890
H    -2.869419  -1.727079  4.502154
H    1.478881  -0.507475  6.754164
H    -2.770552  -1.324891  6.950817
H    -0.639272  -0.675388  8.056499
O    -2.099800  1.799541  0.935889
H    -2.473394  1.173764  0.166615
Ca    -1.276084  1.152818  5.141149
