28
Energy: -37222.6803757 eV PBE+vdW (tier 2 basis)
N    0.680725  -1.253650  0.283669
C    0.512523  -1.693661  1.633001
C    -0.727490  -2.564046  1.782311
O    -0.961285  -3.236870  2.817649
H    1.626616  -0.943789  0.075608
H    0.011429  -0.553031  -0.029845
H    1.353360  -2.366463  1.875066
C    0.497406  -0.558008  2.741580
C    0.522159  -0.991951  4.178371
C    1.587260  -1.574417  4.851670
C    -0.547877  -0.852560  5.153386
N    1.224512  -1.847858  6.174399
C    -0.064823  -1.351357  6.404034
C    -1.879736  -0.383190  5.075977
C    -0.856030  -1.393755  7.562670
C    -2.660878  -0.420297  6.221346
C    -2.156392  -0.914873  7.446751
H    -0.366539  0.095604  2.561538
H    1.388600  0.048602  2.532850
H    2.597040  -1.785587  4.510085
H    1.903528  -2.031670  6.911131
H    -2.278543  0.020139  4.145943
H    -0.465352  -1.752806  8.514546
H    -3.683420  -0.046990  6.185919
H    -2.798945  -0.908177  8.326332
O    -1.552283  -2.551042  0.774172
H    -2.323360  -3.138179  0.933520
Ca    -0.357206  -3.426117  4.892320
