28
Energy: -37222.3362099 eV PBE+vdW (tier 2 basis)
N    1.070796  0.926316  0.741419
C    0.221840  0.137725  1.617811
C    1.211689  -0.532714  2.569621
O    1.998321  -1.484746  2.185595
H    1.522500  0.412646  -0.011087
H    0.209161  -0.999611  -0.875798
H    -0.318762  0.847740  2.258348
C    -0.872729  -0.763515  0.984232
C    -0.499056  -1.603050  -0.267578
C    0.162251  -2.912382  -0.007960
C    -1.669815  -2.013002  -1.135247
N    -0.487152  -3.870676  -0.614481
C    -1.616810  -3.402983  -1.324719
C    -2.692875  -1.292583  -1.735211
C    -2.529379  -4.127311  -2.082699
C    -3.630566  -1.995907  -2.503470
C    -3.551724  -3.385725  -2.675086
H    -1.667383  -0.079719  0.656042
H    -1.330161  -1.407003  1.750019
H    1.056395  -3.094962  0.581884
H    -0.208534  -4.853753  -0.590695
H    -2.774897  -0.211666  -1.625889
H    -2.456525  -5.206212  -2.212543
H    -4.441652  -1.449028  -2.982200
H    -4.299410  -3.894828  -3.280752
O    1.348855  -0.054363  3.753590
H    0.629895  1.771784  0.388646
Ca    3.198728  -1.093474  3.988210
