28
Energy: -37221.2787684 eV PBE+vdW (tier 2 basis)
N    -0.127407  -0.558689  -0.132453
C    -0.131656  -0.059570  1.233703
C    1.244984  0.423793  1.703023
O    1.681058  0.246454  2.822529
H    -0.977878  -0.295963  -0.629542
H    0.657732  -0.183250  -0.663347
H    -0.791217  0.820368  1.357739
C    -0.688872  -1.137263  2.221281
C    0.128593  -2.387674  2.179885
C    0.114808  -3.322336  1.149318
C    1.188290  -2.800914  3.088718
N    1.063522  -4.319735  1.397967
C    1.780505  -3.992694  2.557261
C    1.565339  -2.371654  4.384324
C    2.706541  -4.768223  3.277178
C    2.481063  -3.137934  5.095635
C    3.045534  -4.316704  4.551124
H    -1.723126  -1.339835  1.912902
H    -0.715619  -0.712751  3.231945
H    -0.483387  -3.335763  0.243603
H    1.383578  -4.979870  0.690387
H    1.164119  -1.446343  4.793944
H    3.156447  -5.667254  2.855435
H    2.787974  -2.818386  6.090859
H    3.771499  -4.879258  5.137285
O    1.884639  1.095789  0.731854
H    2.725671  1.443130  1.093551
Ca    -0.417936  -4.647868  3.422267
