32
Energy: -570099.454638 eV PBE+vdW (tier 2 basis)
C    -0.057804  0.078599  -0.134010
C    -0.027598  0.110187  1.361978
O    0.974316  0.715723  1.878139
H    -0.485047  1.030910  -0.487326
H    -0.680188  -0.744418  -0.507902
H    0.958190  -0.005136  -0.533015
N    -1.039667  -0.464932  2.034079
C    -1.463320  -0.223965  3.422912
C    -0.788476  -1.186042  4.435365
O    0.177481  -0.744300  5.175415
H    -1.755919  -0.874942  1.436023
H    -1.083139  0.771858  3.721000
C    -2.995756  -0.113803  3.543805
C    -3.562155  1.299908  3.239294
C    -3.069293  2.350498  4.238867
C    -3.361112  1.749325  1.787186
H    -3.271521  -0.375050  4.576501
H    -3.476171  -0.859805  2.892239
H    -4.645511  1.178648  3.399761
H    -3.599021  3.298854  4.085395
H    -1.997961  2.588728  4.115014
H    -3.237719  2.046429  5.280654
H    -3.955093  2.650358  1.589382
H    -3.687926  0.988819  1.063105
H    -2.316108  2.021978  1.569794
N    -1.165204  -2.432123  4.638166
C    -2.287811  -3.187486  4.072647
H    -0.624087  -2.914044  5.361302
H    -3.204184  -3.016759  4.652327
H    -2.028674  -4.249721  4.130140
H    -2.452165  -2.925863  3.024506
Hg    1.312560  0.733830  4.037293
