32
Energy: -570098.823494 eV PBE+vdW (tier 2 basis)
C    0.006796  0.069944  0.092068
C    -0.079755  -0.187447  1.565740
O    1.031878  -0.385715  2.162880
H    -0.349145  1.090848  -0.120408
H    -0.613470  -0.647692  -0.461208
H    1.043459  -0.017563  -0.246177
N    -1.246395  -0.214140  2.211895
C    -2.572478  0.105869  1.700531
C    -3.302733  0.743741  2.907345
O    -2.748157  0.803301  4.004028
H    -1.232678  -0.233646  3.240823
H    -2.478857  0.910350  0.945967
C    -3.303163  -1.077566  1.020500
C    -3.956932  -2.130554  1.966285
C    -4.674724  -3.160658  1.094778
C    -2.989212  -2.787117  2.945441
H    -2.590053  -1.595929  0.361830
H    -4.070811  -0.661174  0.351994
H    -4.713210  -1.570933  2.556670
H    -5.252942  -3.845607  1.734737
H    -3.971850  -3.792378  0.529337
H    -5.362337  -2.693658  0.378810
H    -3.483665  -3.598474  3.499535
H    -2.606696  -2.093745  3.706647
H    -2.143570  -3.252740  2.414005
N    -4.554283  1.228068  2.686044
C    -5.362510  1.833259  3.722302
H    -4.982193  1.080335  1.772444
H    -5.977737  2.626333  3.277815
H    -4.710730  2.215466  4.515204
H    -6.049687  1.091959  4.169816
Hg    1.652942  0.070354  4.304231
