32
Energy: -570098.678555 eV PBE+vdW (tier 2 basis)
C    -0.664698  1.429296  1.532824
C    -1.829546  1.605465  2.438487
O    -1.927650  2.672744  3.126212
H    -0.939122  0.915977  0.606738
H    0.129760  0.861185  2.041004
H    -0.257280  2.421163  1.301104
N    -2.869169  0.718382  2.538278
C    -2.777726  -0.717584  2.736433
C    -2.069180  -0.877067  4.139974
O    -1.268235  0.027801  4.500843
H    -3.672948  1.144410  3.007108
H    -3.816371  -1.055117  2.860879
C    -2.100116  -1.586153  1.656747
C    -2.997047  -1.815664  0.404937
C    -4.258413  -2.631712  0.695866
C    -3.279533  -0.551288  -0.389368
H    -1.883697  -2.565194  2.106712
H    -1.125649  -1.166070  1.381768
H    -2.343411  -2.462899  -0.219510
H    -4.740083  -2.937152  -0.241989
H    -5.019058  -2.052735  1.244100
H    -4.035921  -3.551541  1.253484
H    -3.877422  -0.782782  -1.283058
H    -2.362967  -0.047695  -0.723108
H    -3.884729  0.183592  0.175356
N    -2.351131  -1.923230  4.909129
C    -3.143356  -3.115350  4.623349
H    -1.925319  -1.877486  5.839258
H    -3.749641  -3.356315  5.504063
H    -2.475012  -3.965557  4.418450
H    -3.796236  -2.962515  3.759200
Hg    -1.609813  2.281743  5.378888
