32
Energy: -570098.657679 eV PBE+vdW (tier 2 basis)
C    -0.016687  0.269681  -0.308105
C    -0.099313  -0.055766  1.159246
O    1.000935  -0.455419  1.671794
H    0.964955  -0.015482  -0.696898
H    -0.149160  1.352574  -0.451050
H    -0.793848  -0.272913  -0.863615
N    -1.229975  0.068476  1.842704
C    -2.540378  0.508838  1.353217
C    -3.167451  1.209300  2.575853
O    -2.845963  0.847507  3.704922
H    -1.236876  -0.101787  2.856388
H    -2.404202  1.199577  0.512176
C    -3.378372  -0.740188  0.903384
C    -4.765714  -0.495882  0.298578
C    -5.141380  -1.719397  -0.611326
C    -5.864407  -0.278119  1.320744
H    -3.454467  -1.418475  1.767242
H    -2.745325  -1.243342  0.157147
H    -4.721672  0.357906  -0.405085
H    -5.166775  -2.636740  -0.008516
H    -6.131099  -1.562492  -1.053224
H    -4.408010  -1.830015  -1.419291
H    -6.835615  -0.096604  0.845172
H    -5.665813  0.600164  1.973464
H    -5.960316  -1.129396  2.012691
N    -4.088437  2.210603  2.405289
C    -4.345846  3.011938  1.224909
H    -4.428927  2.578004  3.299401
H    -4.335782  2.397801  0.317551
H    -5.326202  3.489560  1.334726
H    -3.594520  3.814746  1.118805
Hg    1.683736  -0.771281  3.825300
