32
Energy: -570099.390947 eV PBE+vdW (tier 2 basis)
C    0.387097  -1.312922  0.930752
C    -0.022418  -0.571034  2.169489
O    0.460420  -1.041462  3.254244
H    1.469760  -1.188857  0.786994
H    -0.146623  -0.978512  0.034509
H    0.205575  -2.385150  1.083370
N    -0.825466  0.493562  2.015811
C    -1.659310  1.369936  2.891526
C    -0.878265  2.409265  3.708044
O    0.188489  2.178977  4.377379
H    -1.017862  0.667846  1.032421
H    -2.177037  1.979052  2.139946
C    -2.851017  0.671394  3.625112
C    -2.706389  -0.503214  4.618527
C    -2.279860  -0.136050  6.040186
C    -4.086855  -1.190414  4.735604
H    -3.490639  0.314024  2.805633
H    -3.425578  1.478923  4.108067
H    -2.016854  -1.255921  4.203169
H    -1.245160  0.348173  6.164375
H    -2.256249  -1.009633  6.701621
H    -2.912085  0.642457  6.496555
H    -4.040826  -2.049342  5.415290
H    -4.420696  -1.557021  3.756247
H    -4.849271  -0.497309  5.117514
N    -1.325459  3.658209  3.715222
C    -2.392008  4.275646  2.915102
H    -0.782096  4.284226  4.313290
H    -2.140665  4.269098  1.846281
H    -2.484014  5.317355  3.234996
H    -3.355412  3.780550  3.084100
Hg    0.481776  0.112147  5.091622
