32
Energy: -570099.521067 eV PBE+vdW (tier 2 basis)
C    0.960145  -0.760506  -0.109212
C    0.521609  0.515913  0.534237
O    0.284048  1.479626  -0.285073
H    1.075408  -1.574477  0.614315
H    1.903702  -0.590649  -0.645952
H    0.213237  -1.048059  -0.863794
N    0.419269  0.564312  1.871160
C    -0.402294  1.442986  2.741721
C    0.397310  2.628494  3.350699
O    0.561268  3.736388  2.689892
H    0.667117  -0.315189  2.332027
H    -1.145134  1.947231  2.096167
C    -1.262685  0.587280  3.715070
C    -0.716378  -0.625169  4.524347
C    -0.241547  -1.822277  3.678870
C    0.300896  -0.310101  5.628224
H    -2.084177  0.202895  3.092111
H    -1.740400  1.297069  4.408137
H    -1.630116  -0.965480  5.037264
H    0.810482  -1.734657  3.345919
H    -0.887624  -2.016237  2.811520
H    -0.249364  -2.734162  4.289182
H    0.459431  -1.193573  6.260083
H    -0.052242  0.476592  6.315876
H    1.300393  -0.060008  5.231953
N    0.863503  2.576385  4.571348
C    1.586416  3.663661  5.243595
H    0.676663  1.725457  5.110333
H    2.267563  4.151660  4.539441
H    2.149471  3.233911  6.076537
H    0.873884  4.404980  5.628746
Hg    0.219142  3.430702  0.599256
