32
Energy: -570098.940352 eV PBE+vdW (tier 2 basis)
C    -1.264637  1.717734  -0.907265
C    -0.913082  1.492771  0.518327
O    -0.355308  2.436304  1.169212
H    -2.061333  2.473874  -0.982033
H    -1.542767  0.791850  -1.419174
H    -0.388962  2.163925  -1.406245
N    -1.143724  0.302701  1.150377
C    -2.348717  -0.517449  1.152900
C    -3.276693  -0.042602  2.301505
O    -2.866107  0.589890  3.352666
H    -0.424273  0.026747  1.824027
H    -2.878753  -0.358021  0.202551
C    -1.980236  -2.005158  1.322139
C    -1.279051  -2.611056  0.083272
C    -0.745656  -4.002231  0.442127
C    -2.205843  -2.661877  -1.135003
H    -2.887543  -2.585382  1.542633
H    -1.339602  -2.101947  2.215215
H    -0.412476  -1.968512  -0.159060
H    -0.206852  -4.434868  -0.410689
H    -1.563294  -4.693230  0.693666
H    -0.051756  -3.971029  1.292393
H    -1.679314  -3.085859  -1.998900
H    -2.572822  -1.673174  -1.455125
H    -3.079621  -3.302540  -0.944958
N    -4.560016  -0.360494  2.287134
C    -5.294435  -1.220983  1.357091
H    -5.081726  -0.042270  3.108472
H    -6.276016  -0.763890  1.181861
H    -5.446001  -2.214597  1.800767
H    -4.771356  -1.321182  0.403075
Hg    -1.200318  2.045951  3.241093
