32
Energy: -570099.075301 eV PBE+vdW (tier 2 basis)
C    0.650503  0.902805  0.233236
C    0.562784  0.968991  1.714392
O    1.508601  1.183365  2.455620
H    -0.145055  1.491487  -0.245319
H    0.496517  -0.144511  -0.081314
H    1.635755  1.237165  -0.103762
N    -0.737391  0.709571  2.382654
C    -1.870978  1.666227  2.236736
C    -1.574838  2.995879  2.968814
O    -0.768880  3.074549  3.949606
H    -1.076097  -0.233398  2.155666
H    -1.979909  1.917586  1.168843
C    -3.187735  0.988946  2.703610
C    -3.499994  0.732700  4.202431
C    -2.557124  -0.204084  4.961622
C    -3.838142  1.994057  5.006611
H    -3.250691  0.036040  2.151560
H    -4.010322  1.596860  2.301642
H    -4.439147  0.146697  4.153250
H    -3.007418  -0.564049  5.897098
H    -1.638756  0.350926  5.352690
H    -2.212132  -1.075152  4.390312
H    -4.271623  1.722767  5.977113
H    -4.578646  2.615664  4.486981
H    -2.954998  2.614485  5.215561
N    -2.196039  4.095281  2.571675
C    -3.184317  4.285473  1.506068
H    -1.980109  4.918302  3.137611
H    -3.062192  5.297380  1.106679
H    -4.203186  4.180072  1.900815
H    -3.035859  3.576726  0.685197
Hg    0.195310  1.116074  4.554835
