32
Energy: -570099.029514 eV PBE+vdW (tier 2 basis)
C    0.175933  0.172467  0.060381
C    0.104358  0.375565  1.542443
O    1.086099  1.005973  2.064077
H    -0.037788  1.132251  -0.434326
H    -0.548096  -0.577187  -0.281696
H    1.190902  -0.126059  -0.226234
N    -0.959975  -0.100362  2.210151
C    -1.306551  0.232999  3.590033
C    -0.461688  -0.540450  4.637200
O    0.227929  0.165267  5.476054
H    -1.691123  -0.539712  1.649329
H    -0.951273  1.269735  3.750591
C    -2.828889  0.432476  3.846960
C    -3.928688  -0.633670  3.634170
C    -3.927449  -1.297393  2.249509
C    -4.078264  -1.621829  4.795679
H    -3.072527  1.294422  3.204083
H    -2.898629  0.811584  4.878201
H    -4.838532  -0.010534  3.659802
H    -4.855649  -1.862595  2.098964
H    -3.118585  -2.033309  2.106658
H    -3.886554  -0.556418  1.435038
H    -3.238479  -2.318493  4.892833
H    -4.979391  -2.232245  4.655043
H    -4.191161  -1.096635  5.753142
N    -0.355677  -1.850834  4.751061
C    -0.961955  -2.947308  4.007336
H    0.274161  -2.133073  5.509226
H    -1.517817  -3.598342  4.693832
H    -0.151364  -3.537180  3.555300
H    -1.631386  -2.580064  3.231215
Hg    1.311672  1.632060  4.202000
