32
Energy: -570099.125682 eV PBE+vdW (tier 2 basis)
C    -0.587720  0.891360  -0.827026
C    -0.539419  1.108621  0.643335
O    -0.362542  2.196033  1.169046
H    -1.337857  0.143567  -1.113842
H    0.395826  0.491305  -1.135257
H    -0.750166  1.841978  -1.344099
N    -0.645728  -0.058394  1.550281
C    -1.937931  -0.775848  1.679747
C    -2.886052  -0.094225  2.705046
O    -2.467413  0.583958  3.698589
H    0.084922  -0.757666  1.333273
H    -2.454441  -0.743986  0.707026
C    -1.688702  -2.235956  2.115056
C    -1.123260  -3.190412  1.031146
C    -2.085271  -3.376334  -0.146255
C    0.294660  -2.841124  0.554260
H    -2.643902  -2.648735  2.467734
H    -1.028618  -2.219126  2.998191
H    -1.052019  -4.154967  1.558655
H    -1.712136  -4.150128  -0.828378
H    -2.194388  -2.461452  -0.752404
H    -3.083455  -3.693010  0.184454
H    0.728902  -3.686768  0.004567
H    0.989941  -2.636780  1.385571
H    0.313148  -2.005944  -0.168449
N    -4.190474  -0.289573  2.593490
C    -4.942578  -1.120513  1.649382
H    -4.737466  0.128236  3.349940
H    -5.846284  -0.572144  1.359486
H    -5.237021  -2.063480  2.128615
H    -4.364630  -1.338722  0.747990
Hg    -0.374762  1.354181  3.487361
