32
Energy: -570098.698965 eV PBE+vdW (tier 2 basis)
C    -1.048976  2.179832  0.156435
C    -0.303960  1.419737  1.217406
O    0.815962  1.916177  1.573414
H    -1.984559  2.579246  0.577881
H    -1.288938  1.520272  -0.688792
H    -0.439873  3.013442  -0.203385
N    -0.786634  0.290260  1.737150
C    -2.057685  -0.357694  1.476894
C    -2.356721  -1.092654  2.800480
O    -1.458559  -1.199946  3.638484
H    -0.338305  -0.129053  2.572846
H    -2.820089  0.409647  1.267506
C    -2.056429  -1.304448  0.205860
C    -1.237615  -2.603350  0.249800
C    0.257706  -2.420963  0.492410
C    -1.866936  -3.739717  1.049308
H    -1.708082  -0.668352  -0.621120
H    -3.107391  -1.536842  -0.012448
H    -1.328324  -2.927012  -0.818711
H    0.477905  -2.241564  1.557702
H    0.810431  -3.334316  0.231180
H    0.678905  -1.602798  -0.105910
H    -2.932005  -3.866651  0.817841
H    -1.365414  -4.694024  0.835062
H    -1.754781  -3.597110  2.138403
N    -3.588735  -1.623906  3.028894
C    -4.833050  -1.465110  2.307773
H    -3.639763  -2.110193  3.929000
H    -5.588765  -1.010615  2.968221
H    -5.217341  -2.456492  2.015845
H    -4.714677  -0.843010  1.418486
Hg    1.910387  2.008464  3.571545
