32
Energy: -570099.565384 eV PBE+vdW (tier 2 basis)
C    0.157643  -0.739100  0.466042
C    0.147176  -0.178023  1.857147
O    1.254370  0.236744  2.310893
H    -0.834711  -1.044568  0.116831
H    0.835319  -1.603544  0.437647
H    0.571963  0.015092  -0.215991
N    -1.030276  -0.158079  2.510903
C    -1.413822  0.242955  3.884475
C    -1.301974  1.780719  4.068377
O    -0.196765  2.391206  4.269902
H    -1.803946  -0.527239  1.964801
H    -2.485030  0.013171  3.906776
C    -0.772060  -0.517621  5.098981
C    0.129499  -1.759224  4.852500
C    1.492124  -1.612977  5.516531
C    -0.538614  -3.047354  5.393679
H    -1.614333  -0.799879  5.745097
H    -0.226000  0.207966  5.733821
H    0.281942  -1.904891  3.774260
H    2.191335  -2.427206  5.280791
H    1.444540  -1.457764  6.602518
H    2.101380  -0.699041  5.120686
H    0.085422  -3.925469  5.192291
H    -1.508086  -3.202335  4.901976
H    -0.707568  -2.987565  6.477029
N    -2.417427  2.483963  4.026460
C    -2.482056  3.942832  4.190315
H    -3.289408  1.992321  3.846394
H    -1.823815  4.251038  5.009325
H    -3.514989  4.216782  4.420049
H    -2.166508  4.441972  3.265300
Hg    1.599102  1.102826  4.349719
