32
Energy: -570098.668051 eV PBE+vdW (tier 2 basis)
C    -0.152780  -1.170061  0.295867
C    0.201892  -1.588121  1.698550
O    1.001038  -2.594552  1.737573
H    0.288948  -0.181193  0.097774
H    -1.243182  -1.117195  0.177798
H    0.253700  -1.884204  -0.425990
N    -0.267279  -0.966493  2.762200
C    -1.134596  0.221069  2.803736
C    -0.820962  0.846373  4.177704
O    -0.181599  0.204824  5.015209
H    0.079144  -1.203303  3.704519
H    -0.823403  0.905041  2.001077
C    -2.653831  -0.088491  2.652201
C    -3.427930  -0.474749  3.925329
C    -4.932174  -0.518139  3.636939
C    -2.925065  -1.738053  4.619968
H    -2.765291  -0.887311  1.902699
H    -3.123745  0.798898  2.205095
H    -3.304986  0.362092  4.660229
H    -5.509959  -0.719664  4.547121
H    -5.154046  -1.336853  2.928311
H    -5.300167  0.414888  3.192159
H    -3.594757  -2.020257  5.440705
H    -1.919877  -1.631136  5.060277
H    -2.879716  -2.579749  3.907827
N    -1.309015  2.081446  4.499098
C    -1.847018  3.117155  3.647318
H    -1.113122  2.335284  5.472557
H    -1.165878  3.985985  3.644730
H    -2.806119  3.472222  4.058037
H    -1.990412  2.768967  2.622631
Hg    2.091934  -3.539422  3.452258
