32
Energy: -570098.804022 eV PBE+vdW (tier 2 basis)
C    -2.823667  1.468955  0.552147
C    -1.780696  1.271053  1.614476
O    -0.994501  2.250832  1.826236
H    -3.821390  1.514617  1.014467
H    -2.802984  0.638346  -0.166405
H    -2.638157  2.408384  0.024662
N    -1.677235  0.116882  2.280773
C    -2.478430  -1.082204  2.146175
C    -2.451328  -1.695458  3.566208
O    -1.524259  -1.407961  4.322022
H    -1.015129  0.040559  3.069217
H    -3.491112  -0.831637  1.801715
C    -1.794068  -2.082120  1.104866
C    -2.737415  -3.019619  0.334490
C    -3.380640  -4.137811  1.146106
C    -3.725001  -2.301139  -0.579456
H    -1.018791  -2.648061  1.640254
H    -1.275689  -1.433678  0.385042
H    -2.000517  -3.532488  -0.330830
H    -3.694918  -4.969998  0.496722
H    -4.323918  -3.804961  1.617689
H    -2.705286  -4.559658  1.901379
H    -4.263527  -3.019506  -1.210180
H    -3.227160  -1.585585  -1.248445
H    -4.499824  -1.757677  -0.011856
N    -3.459795  -2.531250  3.920391
C    -3.558366  -3.133354  5.233138
H    -4.237358  -2.654403  3.273802
H    -4.053011  -4.108523  5.140421
H    -4.173372  -2.510122  5.907099
H    -2.557163  -3.222661  5.668704
Hg    0.031207  3.098785  3.692663
