32
Energy: -570099.495284 eV PBE+vdW (tier 2 basis)
C    0.073444  -0.936349  0.309299
C    0.141998  -0.414874  1.714838
O    1.284067  -0.542664  2.272967
H    0.397235  -1.986045  0.305423
H    0.787491  -0.377701  -0.311248
H    -0.929053  -0.864718  -0.126409
N    -0.971261  0.131606  2.227002
C    -1.438381  0.614685  3.563739
C    -0.793717  1.932102  4.037434
O    0.444422  2.105958  4.300197
H    -1.727682  0.135258  1.547041
H    -2.469068  0.907791  3.326289
C    -1.661640  -0.485334  4.656690
C    -0.614294  -1.534048  5.104473
C    0.362613  -1.103495  6.202718
C    -1.382435  -2.751224  5.672935
H    -2.514678  -1.057919  4.266290
H    -2.053994  0.042899  5.540948
H    -0.057016  -1.902633  4.226830
H    1.067560  -0.210562  5.995591
H    1.036607  -1.915655  6.497841
H    -0.144425  -0.707309  7.097818
H    -0.690355  -3.534542  6.003357
H    -2.038255  -3.184907  4.907263
H    -2.005405  -2.464778  6.531789
N    -1.616492  2.952798  4.220061
C    -1.202126  4.263832  4.733788
H    -2.591737  2.845862  3.953156
H    -0.778816  4.871836  3.923821
H    -0.447497  4.131713  5.515395
H    -2.082030  4.766381  5.144725
Hg    1.750918  0.332035  4.190940
