32
Energy: -570098.6642 eV PBE+vdW (tier 2 basis)
C    -2.120437  3.210472  1.499146
C    -1.594836  2.131742  2.409231
O    -0.626606  2.519637  3.156237
H    -3.134316  3.490747  1.822152
H    -2.146830  2.854663  0.460466
H    -1.480336  4.095383  1.558952
N    -2.107256  0.914620  2.424558
C    -3.195104  0.378977  1.590567
C    -3.805329  -0.746287  2.439630
O    -3.091413  -1.355825  3.234634
H    -1.749422  0.211172  3.082691
H    -3.914037  1.177460  1.373611
C    -2.629053  -0.254819  0.287914
C    -3.678363  -0.872999  -0.651993
C    -4.541758  0.161146  -1.375994
C    -3.041999  -1.883199  -1.602535
H    -1.898609  -1.020679  0.589505
H    -2.064362  0.519615  -0.254994
H    -4.375519  -1.482490  -0.013028
H    -5.353117  -0.315547  -1.938659
H    -3.921928  0.709455  -2.106723
H    -4.990140  0.917000  -0.715273
H    -2.280682  -1.383221  -2.230866
H    -3.783541  -2.319781  -2.282046
H    -2.530724  -2.696529  -1.070696
N    -5.103088  -1.157857  2.244477
C    -6.255794  -0.389255  1.820597
H    -5.300653  -2.030127  2.747020
H    -6.933735  -1.040365  1.250785
H    -5.967929  0.468479  1.209584
H    -6.816693  -0.034473  2.704031
Hg    0.525480  1.468084  4.788322
