32
Energy: -570099.447926 eV PBE+vdW (tier 2 basis)
C    -1.458660  -0.969891  0.633049
C    -1.090353  -0.065355  1.770918
O    0.129031  -0.033440  2.107586
H    -0.875500  -0.678206  -0.250950
H    -2.526563  -0.945868  0.390186
H    -1.164022  -1.997562  0.885059
N    -2.079105  0.648561  2.344907
C    -2.084809  1.584919  3.489711
C    -1.276281  2.865227  3.146623
O    -0.011590  2.969022  3.321016
H    -2.996310  0.482511  1.940067
H    -3.131642  1.899501  3.533347
C    -1.732877  1.031700  4.917979
C    -1.463760  -0.487002  5.119454
C    -0.112921  -0.753038  5.770887
C    -2.555656  -1.130948  6.009256
H    -2.568662  1.335785  5.562061
H    -0.890860  1.615055  5.336006
H    -1.492139  -1.006674  4.151745
H    0.135821  -1.820463  5.857053
H    0.024331  -0.252778  6.738447
H    0.802309  -0.400620  5.129215
H    -2.578572  -0.676607  7.008669
H    -2.383448  -2.207008  6.125765
H    -3.542709  -0.996073  5.547516
N    -1.913082  3.918706  2.666776
C    -3.348439  4.091002  2.398522
H    -1.310499  4.719793  2.467668
H    -3.490154  5.103361  2.009879
H    -3.939955  3.995931  3.317437
H    -3.697351  3.383416  1.637072
Hg    1.028427  1.099043  3.833077
