32
Energy: -570099.025914 eV PBE+vdW (tier 2 basis)
C    0.353526  1.058611  0.630534
C    -0.279429  0.098785  1.581931
O    0.380639  -0.663755  2.363245
H    0.902758  1.822812  1.204203
H    -0.376581  1.569211  -0.005775
H    1.073999  0.525777  -0.004553
N    -1.615564  -0.008222  1.601288
C    -2.369463  -0.977981  2.368738
C    -3.445166  -1.556361  1.376416
O    -3.746987  -0.849794  0.419082
H    -2.151451  0.434529  0.843899
H    -1.688337  -1.760335  2.721729
C    -3.193367  -0.339500  3.517011
C    -2.290511  0.105441  4.722730
C    -3.231461  0.864549  5.672951
C    -1.586780  -1.049672  5.418698
H    -3.937073  -1.061926  3.881582
H    -3.743804  0.524622  3.121912
H    -1.542917  0.805395  4.309659
H    -2.624184  1.255901  6.507905
H    -3.996295  0.213078  6.118191
H    -3.728746  1.707631  5.180173
H    -1.008430  -0.683107  6.278856
H    -0.866727  -1.569807  4.768404
H    -2.305217  -1.782775  5.812040
N    -4.009172  -2.754791  1.631766
C    -3.616385  -3.768871  2.597631
H    -4.660696  -3.051546  0.900137
H    -2.987444  -4.539341  2.126181
H    -4.528880  -4.260993  2.962743
H    -3.092081  -3.330643  3.450621
Hg    2.551598  -0.196660  3.047280
