32
Energy: -570099.46796 eV PBE+vdW (tier 2 basis)
C    -1.992702  0.025100  0.490869
C    -1.129337  0.000907  1.711514
O    0.058488  -0.450933  1.529425
H    -2.761448  0.806802  0.551115
H    -2.501241  -0.950029  0.415830
H    -1.382972  0.166338  -0.406575
N    -1.656545  0.438802  2.870581
C    -1.402429  0.113612  4.309834
C    -0.437743  1.079045  5.028272
O    0.844862  1.097771  4.837063
H    -2.583608  0.835688  2.732570
H    -2.382551  0.284661  4.770420
C    -1.044145  -1.360678  4.624109
C    -2.242895  -2.351732  4.613835
C    -3.284168  -1.987290  5.678255
C    -2.874450  -2.560192  3.234137
H    -0.596154  -1.374970  5.629773
H    -0.272599  -1.757255  3.938300
H    -1.782800  -3.306728  4.913906
H    -4.024784  -2.792784  5.763721
H    -3.855616  -1.079613  5.424471
H    -2.834842  -1.855795  6.672250
H    -3.564956  -3.412083  3.265992
H    -2.124536  -2.790006  2.462910
H    -3.471279  -1.694389  2.909306
N    -0.895504  1.877615  5.970032
C    -2.277304  2.049925  6.450424
H    -0.176113  2.427752  6.445928
H    -2.261916  2.833324  7.213243
H    -2.653175  1.127312  6.909467
H    -2.937952  2.377537  5.639470
Hg    1.417553  -0.055942  3.136055
