32
Energy: -570099.52266 eV PBE+vdW (tier 2 basis)
C    1.044169  0.353994  0.743661
C    0.594238  0.312101  2.175182
O    1.454139  0.682474  3.034606
H    0.243476  0.115071  0.035049
H    1.872572  -0.356576  0.613659
H    1.441705  1.353554  0.524529
N    -0.658462  -0.106270  2.418068
C    -1.469779  -0.272243  3.653736
C    -1.585087  1.025226  4.486706
O    -0.795997  1.340089  5.442190
H    -1.161948  -0.362553  1.572644
H    -2.478404  -0.409940  3.240737
C    -1.274141  -1.561185  4.515134
C    0.075731  -2.197048  4.926757
C    -0.142941  -3.177381  6.078679
C    0.890267  -2.805471  3.792496
H    -1.798219  -2.365741  3.975311
H    -1.870278  -1.388040  5.423705
H    0.766583  -1.398719  5.447942
H    0.799146  -3.635031  6.401797
H    -0.796080  -3.993552  5.724409
H    -0.631853  -2.713246  6.943671
H    0.305987  -3.622479  3.340389
H    1.821250  -3.246765  4.167133
H    1.144695  -2.103529  2.992046
N    -2.618184  1.813431  4.232694
C    -2.900637  3.068435  4.935641
H    -3.311923  1.496639  3.558565
H    -3.531709  2.875245  5.813628
H    -3.430242  3.737377  4.250465
H    -1.961638  3.523666  5.263235
Hg    1.255572  0.518376  5.240359
