32
Energy: -570098.848227 eV PBE+vdW (tier 2 basis)
C    -1.927490  1.534865  -0.254520
C    -1.246068  1.243694  1.053125
O    -0.322995  2.050139  1.394074
H    -1.388255  2.327002  -0.781292
H    -2.957287  1.875561  -0.068462
H    -1.953150  0.636360  -0.886231
N    -1.588725  0.186738  1.796245
C    -2.611482  -0.810015  1.532411
C    -3.142767  -1.184741  2.935203
O    -2.410563  -1.063274  3.911304
H    -1.161784  0.064670  2.724933
H    -3.395930  -0.389531  0.889615
C    -1.941939  -2.052961  0.811384
C    -2.863159  -3.189883  0.348967
C    -3.237068  -4.196445  1.423635
C    -4.033462  -2.744322  -0.524889
H    -1.157098  -2.436983  1.478578
H    -1.440000  -1.613604  -0.064046
H    -2.178701  -3.752919  -0.335545
H    -3.757972  -5.065902  1.000044
H    -3.949229  -3.757200  2.154373
H    -2.369545  -4.548480  1.996379
H    -4.828451  -2.254981  0.067931
H    -4.515392  -3.603156  -1.008318
H    -3.727802  -2.045467  -1.315000
N    -4.430628  -1.628474  3.023718
C    -5.075654  -1.899257  4.293929
H    -5.014023  -1.583384  2.188563
H    -5.863456  -2.646686  4.141927
H    -5.549360  -0.985774  4.695264
H    -4.325358  -2.240065  5.015921
Hg    0.509898  2.787044  3.414823
