32
Energy: -570099.508702 eV PBE+vdW (tier 2 basis)
C    -2.566593  -0.478666  0.662212
C    -1.537958  0.128439  1.562030
O    -0.398735  -0.466080  1.557007
H    -3.563415  -0.046643  0.800464
H    -2.608952  -1.559949  0.856863
H    -2.243697  -0.360832  -0.382397
N    -1.861150  1.230450  2.262231
C    -1.363438  1.810972  3.551063
C    -0.307489  2.924534  3.394124
O    0.910302  2.717656  3.003285
H    -2.795730  1.562851  2.034257
H    -2.258399  2.301990  3.949125
C    -0.941644  0.786516  4.624826
C    -1.995129  -0.296456  4.957695
C    -1.423893  -1.225268  6.035324
C    -3.329636  0.321705  5.392348
H    -0.712075  1.370682  5.531323
H    0.008195  0.268631  4.376914
H    -2.164891  -0.901707  4.050044
H    -2.127628  -2.039682  6.245970
H    -1.249765  -0.686807  6.977233
H    -0.475974  -1.685715  5.723887
H    -4.030088  -0.471690  5.681692
H    -3.827937  0.898065  4.597678
H    -3.205115  0.975421  6.267935
N    -0.602122  4.158135  3.749924
C    -1.872886  4.702923  4.256599
H    0.179930  4.814611  3.686097
H    -1.765015  5.790101  4.306778
H    -2.086924  4.328866  5.265437
H    -2.700356  4.476146  3.574985
Hg    1.217206  0.713798  2.322052
