32
Energy: -570099.627328 eV PBE+vdW (tier 2 basis)
C    -0.011369  0.643267  -0.034387
C    0.038539  0.337635  1.428913
O    1.186528  -0.041332  1.862833
H    -0.978468  1.051562  -0.348526
H    0.172829  -0.291484  -0.586643
H    0.798703  1.335337  -0.295987
N    -1.080788  0.490942  2.158494
C    -1.575279  -0.147833  3.422316
C    -1.297831  0.675662  4.702384
O    -0.141379  0.764866  5.272356
H    -1.840730  0.890261  1.611769
H    -2.665052  -0.125442  3.288246
C    -1.209012  -1.634174  3.597494
C    -1.571310  -2.555476  2.407662
C    -1.152609  -3.989963  2.748840
C    -3.061672  -2.469354  2.055322
H    -1.734908  -1.974152  4.504686
H    -0.132684  -1.791058  3.822327
H    -0.981388  -2.233740  1.531653
H    -0.082098  -4.062821  2.986394
H    -1.342696  -4.653709  1.896681
H    -1.720607  -4.380126  3.604743
H    -3.695768  -2.728294  2.915659
H    -3.295780  -3.185099  1.257254
H    -3.370248  -1.480525  1.682595
N    -2.318994  1.260419  5.291361
C    -2.246098  2.011774  6.552641
H    -3.240063  1.141401  4.873796
H    -3.079359  2.719649  6.578287
H    -1.294604  2.548982  6.607114
H    -2.325284  1.322688  7.403757
Hg    1.419482  0.035137  3.992966
