32
Energy: -570099.096831 eV PBE+vdW (tier 2 basis)
C    0.590771  1.583583  1.997017
C    -0.200683  0.376758  1.633991
O    0.225503  -0.550608  0.882542
H    0.221372  2.090849  2.893487
H    0.578841  2.294121  1.156901
H    1.637836  1.297851  2.157172
N    -1.485508  0.198991  2.035998
C    -2.433819  1.158281  2.493164
C    -3.417017  0.338545  3.453640
O    -3.597542  -0.844862  3.239203
H    -1.883859  -0.726188  1.820945
H    -1.925197  1.976897  3.016672
C    -3.406927  1.726532  1.403476
C    -2.697066  2.710009  0.429211
C    -3.713201  2.954855  -0.707234
C    -2.258436  4.015036  1.083703
H    -4.231228  2.255036  1.903954
H    -3.845871  0.872154  0.868965
H    -1.822513  2.187664  0.004511
H    -4.612952  3.473731  -0.351306
H    -4.011727  2.026947  -1.208360
H    -3.228965  3.607825  -1.452944
H    -1.781589  4.673606  0.345346
H    -1.522003  3.876129  1.889420
H    -3.116985  4.563148  1.496123
N    -3.982762  1.072931  4.433993
C    -4.730877  0.458336  5.524155
H    -3.732715  2.055938  4.520240
H    -5.460162  1.190379  5.892299
H    -4.070189  0.178630  6.359931
H    -5.225261  -0.444812  5.148573
Hg    2.353465  -1.538556  0.849365
