32
Energy: -570099.624815 eV PBE+vdW (tier 2 basis)
C    -0.628010  1.616457  0.989411
C    -0.543677  0.154051  1.288462
O    0.574372  -0.402208  0.993397
H    -0.129009  2.160532  1.807845
H    -1.668997  1.959018  0.932727
H    -0.099315  1.846612  0.058715
N    -1.606138  -0.450619  1.846435
C    -1.675244  -1.666561  2.695606
C    -2.106985  -2.910102  1.871692
O    -1.241841  -3.644468  1.250548
H    -2.405088  0.169594  1.974782
H    -0.655116  -1.894820  3.058595
C    -2.547182  -1.397204  3.936158
C    -1.862849  -0.646602  5.108174
C    -1.307004  0.736304  4.748180
C    -2.865230  -0.553283  6.265919
H    -2.873052  -2.370928  4.331171
H    -3.460257  -0.851691  3.631519
H    -1.021884  -1.281393  5.438633
H    -0.951554  1.237801  5.656801
H    -2.078622  1.389304  4.310836
H    -0.443720  0.695302  4.068286
H    -2.384302  -0.116375  7.149244
H    -3.252726  -1.538907  6.555993
H    -3.720000  0.087736  6.005830
N    -3.372213  -3.254312  1.822576
C    -3.914669  -4.405629  1.088222
H    -4.018515  -2.726295  2.408671
H    -3.920575  -5.291621  1.736915
H    -3.298152  -4.604693  0.207281
H    -4.939939  -4.168966  0.788276
Hg    0.602592  -2.559285  0.961919
