32
Energy: -570099.493019 eV PBE+vdW (tier 2 basis)
C    -1.483471  -0.116269  -0.454419
C    -0.849544  -0.128222  0.900553
O    0.433258  -0.183720  0.895328
H    -2.574088  -0.019431  -0.412551
H    -1.230684  -1.060532  -0.961143
H    -1.051728  0.694754  -1.054814
N    -1.645561  -0.076797  1.983207
C    -1.473896  -0.501783  3.411419
C    -1.005852  0.637071  4.347709
O    0.217165  1.057550  4.395683
H    -2.624589  0.044783  1.732567
H    -2.499459  -0.741262  3.714381
C    -0.671831  -1.798705  3.626883
C    -0.917653  -2.447684  5.007210
C    -2.335071  -3.034024  5.106501
C    0.143720  -3.524662  5.262118
H    0.426701  -1.648300  3.525091
H    -0.934912  -2.498184  2.818413
H    -0.799029  -1.669195  5.783186
H    -2.479994  -3.844459  4.378779
H    -3.135172  -2.294804  4.949754
H    -2.492028  -3.458965  6.105641
H    1.160468  -3.106810  5.256372
H    0.094244  -4.319922  4.504950
H    -0.011462  -3.992675  6.241255
N    -1.844393  1.190452  5.199493
C    -3.257105  0.884128  5.469250
H    -1.418293  1.897625  5.804652
H    -3.698467  1.763686  5.947929
H    -3.343021  0.028736  6.150982
H    -3.807974  0.691040  4.543690
Hg    1.389720  0.345583  2.741934
