32
Energy: -570099.239896 eV PBE+vdW (tier 2 basis)
C    -0.072867  -0.438005  -0.040966
C    0.160211  0.353402  1.195602
O    1.205386  0.930158  1.455617
H    -1.009672  -0.138630  -0.533197
H    -0.192206  -1.500065  0.235310
H    0.774453  -0.329257  -0.723593
N    -0.904845  0.419150  2.219003
C    -2.154487  1.167462  1.968303
C    -1.998612  2.691118  2.246323
O    -1.205860  3.174113  3.114908
H    -1.172029  -0.526728  2.543689
H    -2.425093  1.068602  0.903291
C    -3.273298  0.594717  2.866849
C    -3.552029  -0.913662  2.685666
C    -4.603184  -1.355889  3.713841
C    -3.972535  -1.268818  1.256363
H    -4.194529  1.155208  2.649960
H    -3.021986  0.810255  3.918388
H    -2.628857  -1.485109  2.934691
H    -4.773592  -2.436885  3.644782
H    -5.564410  -0.856744  3.527523
H    -4.294157  -1.130037  4.742606
H    -4.182604  -2.341904  1.173976
H    -3.204579  -1.040517  0.500742
H    -4.891148  -0.735650  0.972710
N    -2.819075  3.488672  1.587899
C    -2.932189  4.937265  1.801075
H    -3.489279  3.056727  0.953122
H    -3.282578  5.393927  0.870684
H    -1.954088  5.343664  2.074838
H    -3.650959  5.148333  2.603800
Hg    0.490725  1.800226  3.639804
