32
Energy: -570099.455531 eV PBE+vdW (tier 2 basis)
C    -1.156741  -1.242649  0.755582
C    -0.774231  -0.117978  1.665180
O    0.486394  0.030645  1.847330
H    -1.285255  -2.148499  1.370143
H    -0.364705  -1.429301  0.024348
H    -2.105021  -1.042520  0.239049
N    -1.761996  0.620120  2.205885
C    -1.880612  1.417342  3.466813
C    -1.571451  2.920197  3.281111
O    -0.370904  3.396054  3.185619
H    -2.672069  0.359293  1.832597
H    -2.952607  1.360705  3.692079
C    -1.157375  0.848560  4.711863
C    -1.867030  -0.339499  5.417209
C    -2.036004  -1.584628  4.542236
C    -1.104632  -0.662777  6.706167
H    -1.066818  1.671473  5.437355
H    -0.121763  0.522809  4.489281
H    -2.870424  0.032292  5.695887
H    -2.724431  -1.436522  3.698468
H    -2.457331  -2.402784  5.139475
H    -1.068111  -1.942369  4.157067
H    -0.101863  -1.061718  6.492502
H    -1.640783  -1.429447  7.279261
H    -0.994447  0.216485  7.354224
N    -2.547566  3.804380  3.307354
C    -3.995452  3.595833  3.472509
H    -2.235760  4.777198  3.247715
H    -4.491984  4.536202  3.215940
H    -4.239904  3.345799  4.512506
H    -4.365036  2.822431  2.790905
Hg    1.080910  1.868869  2.790345
