32
Energy: -570099.466875 eV PBE+vdW (tier 2 basis)
C    -0.259393  2.081590  0.435615
C    -0.667769  1.842763  1.855132
O    -0.927568  2.901274  2.530886
H    -1.139012  2.438056  -0.122808
H    0.119036  1.170586  -0.043328
H    0.497195  2.874133  0.394551
N    -0.744314  0.577939  2.302487
C    -1.469013  0.060479  3.480689
C    -0.586378  0.001554  4.756852
O    -0.730526  0.916706  5.666406
H    -0.498242  -0.126644  1.608174
H    -2.254134  0.793408  3.736382
C    -2.232218  -1.228299  3.127777
C    -3.060501  -1.820489  4.289471
C    -4.100038  -0.829470  4.830203
C    -3.723068  -3.118492  3.810643
H    -1.542047  -1.984361  2.726565
H    -2.914058  -0.962098  2.303641
H    -2.372491  -2.080749  5.114625
H    -4.715898  -1.308951  5.600415
H    -4.781276  -0.490797  4.035790
H    -3.653652  0.057176  5.308339
H    -4.445026  -2.922186  3.005558
H    -4.267920  -3.595960  4.633868
H    -2.987520  -3.843495  3.436145
N    0.291955  -0.943508  5.020126
C    0.618560  -2.176721  4.295320
H    0.769335  -0.816908  5.917064
H    -0.103255  -2.969904  4.529513
H    1.611030  -2.495831  4.628681
H    0.654176  -2.002460  3.216741
Hg    -1.216827  2.787129  4.680295
