32
Energy: -570099.696182 eV PBE+vdW (tier 2 basis)
C    -0.652107  0.190381  -0.073529
C    -0.383990  0.129723  1.399167
O    0.787533  -0.257988  1.725316
H    -0.661394  -0.835390  -0.470745
H    0.168642  0.723154  -0.569396
H    -1.605971  0.674858  -0.311833
N    -1.380691  0.485437  2.230086
C    -1.533281  0.400638  3.703030
C    -0.669726  1.463194  4.420076
O    0.589815  1.356769  4.561825
H    -2.218412  0.790853  1.740883
H    -2.575272  0.697226  3.877488
C    -1.394566  -1.063728  4.226739
C    -1.060576  -1.257398  5.731253
C    -2.165761  -2.057353  6.461073
C    0.256351  -2.001149  5.937873
H    -0.681071  -1.630827  3.601386
H    -2.349511  -1.551106  3.983827
H    -0.984637  -0.276925  6.225558
H    -3.124267  -1.526696  6.383806
H    -1.933733  -2.171181  7.526176
H    -2.290202  -3.058402  6.027261
H    0.561751  -2.095820  6.990482
H    1.179735  -1.403867  5.536604
H    0.287457  -2.987700  5.457819
N    -1.299658  2.522875  4.901229
C    -0.646959  3.638697  5.595901
H    -2.303801  2.592727  4.755126
H    -0.444116  4.453558  4.888878
H    0.294149  3.295479  6.033258
H    -1.316278  4.000590  6.382591
Hg    1.513546  -0.538630  3.764792
