32
Energy: -570099.394715 eV PBE+vdW (tier 2 basis)
C    0.332621  0.057557  0.252333
C    0.247615  -0.135675  1.733976
O    1.369182  -0.080240  2.353161
H    0.605964  1.105534  0.053867
H    -0.618133  -0.162316  -0.247888
H    1.131083  -0.571748  -0.158683
N    -0.958331  -0.332696  2.291962
C    -1.358942  -0.171538  3.707600
C    -1.209035  -1.495990  4.500626
O    -0.205501  -1.636169  5.314079
H    -1.730137  -0.333837  1.626372
H    -0.629795  0.511039  4.181445
C    -2.707023  0.575361  3.804182
C    -3.008586  1.220381  5.174844
C    -4.250805  2.110186  5.032063
C    -3.185778  0.208760  6.313654
H    -3.541487  -0.070158  3.496483
H    -2.645694  1.381146  3.055339
H    -2.152895  1.874809  5.421977
H    -4.450906  2.637303  5.972491
H    -5.143746  1.515218  4.792240
H    -4.125781  2.868682  4.248193
H    -3.994408  -0.505604  6.098837
H    -3.464555  0.729619  7.237811
H    -2.270720  -0.354011  6.550618
N    -2.040231  -2.514447  4.426625
C    -3.316063  -2.668586  3.721856
H    -1.772781  -3.299026  5.027867
H    -4.146968  -2.306316  4.340999
H    -3.457450  -3.738698  3.536412
H    -3.306159  -2.147190  2.761949
Hg    1.520011  -0.642721  4.448574
