32
Energy: -570099.461699 eV PBE+vdW (tier 2 basis)
C    -1.427364  0.677340  -0.013675
C    -0.871355  0.367338  1.341053
O    0.346029  -0.036513  1.345201
H    -2.450971  1.066492  0.026500
H    -1.421817  -0.248099  -0.609652
H    -0.769600  1.392202  -0.524528
N    -1.666642  0.529894  2.411610
C    -1.626510  -0.016122  3.806956
C    -0.876715  0.931060  4.774317
O    0.407482  0.933059  4.905880
H    -2.574456  0.918824  2.165970
H    -2.679672  0.011400  4.110443
C    -1.214375  -1.502370  3.899743
C    -1.803212  -2.280212  5.101929
C    -1.292350  -1.795793  6.462279
C    -3.338207  -2.336329  5.043126
H    -0.109184  -1.644268  3.943868
H    -1.526032  -1.981440  2.960332
H    -1.433787  -3.307349  4.955423
H    -1.599095  -2.493671  7.250601
H    -1.706426  -0.815966  6.744731
H    -0.195407  -1.731398  6.499101
H    -3.705458  -2.691818  4.071314
H    -3.810818  -1.365656  5.261580
H    -3.706398  -3.033579  5.806243
N    -1.548668  1.770845  5.537315
C    -3.000379  1.913756  5.714922
H    -0.961407  2.339088  6.153009
H    -3.397804  1.110367  6.349076
H    -3.521004  1.932541  4.752130
H    -3.177631  2.871828  6.212697
Hg    1.391235  -0.018451  3.232503
