32
Energy: -570099.666944 eV PBE+vdW (tier 2 basis)
C    -3.846772  -0.371053  -1.605186
C    -2.810487  -0.725625  -0.587733
O    -1.597076  -0.494722  -0.942188
H    -4.847632  -0.710455  -1.313760
H    -3.569451  -0.789161  -2.580402
H    -3.863097  0.725106  -1.713304
N    -3.203758  -1.234504  0.592307
C    -2.508231  -1.229006  1.906272
C    -1.798908  -2.574686  2.202150
O    -0.576051  -2.790859  1.832158
H    -4.210011  -1.385342  0.661216
H    -1.703672  -0.473766  1.863129
C    -3.487805  -0.758629  2.994041
C    -2.866362  -0.505679  4.387178
C    -1.698795  0.487526  4.329315
C    -3.971000  -0.018273  5.334314
H    -4.336405  -1.464505  3.068352
H    -3.925023  0.185535  2.630733
H    -2.482867  -1.461568  4.785498
H    -0.825858  0.105204  3.776208
H    -1.340479  0.708231  5.341873
H    -2.004924  1.443776  3.879629
H    -4.809534  -0.725699  5.390155
H    -4.368469  0.955284  5.014688
H    -3.574824  0.103867  6.349438
N    -2.424940  -3.511577  2.873493
C    -1.869417  -4.823794  3.228232
H    -3.338565  -3.271310  3.257249
H    -1.135438  -5.128192  2.477092
H    -2.691387  -5.544851  3.271920
H    -1.382440  -4.767643  4.211033
Hg    -0.063325  -1.457630  0.220898
