32
Energy: -570099.201809 eV PBE+vdW (tier 2 basis)
C    -2.410647  -1.727195  0.739438
C    -1.150288  -1.131674  1.257599
O    -0.042556  -1.362885  0.801710
H    -3.232440  -0.999861  0.711519
H    -2.716295  -2.526091  1.439780
H    -2.239834  -2.173307  -0.244890
N    -1.208156  -0.243283  2.443531
C    -1.794155  1.112806  2.328237
C    -0.785876  2.128284  1.706525
O    0.468599  2.072588  1.892800
H    -1.661810  -0.719296  3.242339
H    -2.654665  1.072508  1.636599
C    -2.238337  1.616212  3.717480
C    -3.554573  1.022380  4.279371
C    -3.536216  -0.502906  4.452126
C    -3.858574  1.717022  5.614784
H    -2.358627  2.706784  3.653074
H    -1.409647  1.450550  4.428034
H    -4.361341  1.276985  3.570871
H    -4.431177  -0.833503  4.996267
H    -2.677917  -0.844324  5.057403
H    -3.573686  -1.059934  3.500169
H    -4.830023  1.386058  6.001801
H    -3.900187  2.808383  5.505881
H    -3.099457  1.478027  6.373185
N    -1.312107  3.134710  1.033212
C    -0.552074  4.270202  0.494117
H    -2.327972  3.178767  0.965965
H    -1.097048  4.669428  -0.366348
H    0.441198  3.931367  0.185439
H    -0.448277  5.054206  1.255699
Hg    1.193195  0.013499  2.450584
