32
Energy: -570098.68968 eV PBE+vdW (tier 2 basis)
C    -0.433094  0.876643  -0.156760
C    -0.834982  0.295082  1.162410
O    -0.011572  0.501446  2.129690
H    -0.483704  1.973309  -0.102490
H    -1.058450  0.509123  -0.978784
H    0.615505  0.615056  -0.356758
N    -1.965062  -0.396516  1.246141
C    -2.459426  -1.303048  2.296499
C    -3.573162  -2.137611  1.585273
O    -4.014711  -1.707569  0.517949
H    -2.541349  -0.470220  0.396186
H    -1.639337  -1.987102  2.567362
C    -2.991927  -0.629622  3.567149
C    -3.851792  0.632392  3.430046
C    -5.364757  0.260222  3.406926
C    -3.617595  1.610695  4.575989
H    -2.082960  -0.368129  4.196699
H    -3.474156  -1.383179  4.209236
H    -3.600979  1.138559  2.485539
H    -5.963703  1.166104  3.259975
H    -5.680043  -0.212526  4.346483
H    -5.571487  -0.429877  2.578733
H    -4.144544  2.565521  4.453698
H    -2.514042  1.910202  4.594237
H    -3.840274  1.193227  5.566793
N    -4.040018  -3.269181  2.154021
C    -3.482244  -4.071711  3.232770
H    -4.792117  -3.700578  1.610990
H    -3.257797  -5.081394  2.862431
H    -4.216748  -4.165900  4.046852
H    -2.564207  -3.631623  3.631784
Hg    -0.474738  1.063094  4.237435
