32
Energy: -570099.131734 eV PBE+vdW (tier 2 basis)
C    -1.462847  -0.448965  -1.230964
C    -0.712225  -0.284588  0.039634
O    0.506561  -0.271343  0.124318
H    -2.280889  0.280280  -1.315379
H    -1.934004  -1.448095  -1.230467
H    -0.785007  -0.374893  -2.086121
N    -1.452811  -0.179091  1.319195
C    -2.256473  1.038224  1.621717
C    -1.354382  2.266695  1.877941
O    -0.172523  2.165015  2.334574
H    -2.048905  -1.003799  1.461500
H    -2.881680  1.269881  0.744743
C    -3.191515  0.776459  2.831768
C    -2.631826  0.814794  4.274569
C    -3.819050  0.729849  5.256804
C    -1.649051  -0.300383  4.655397
H    -3.704049  -0.184328  2.652642
H    -3.986874  1.532501  2.771089
H    -2.141475  1.787873  4.438749
H    -4.544566  1.530833  5.054969
H    -3.482082  0.848284  6.293517
H    -4.341993  -0.232898  5.176479
H    -0.583981  -0.077527  4.311723
H    -1.923978  -1.292864  4.274347
H    -1.512953  -0.374136  5.742976
N    -1.847150  3.477864  1.664727
C    -3.176162  3.889092  1.201569
H    -1.206858  4.232876  1.919034
H    -3.061546  4.806393  0.614767
H    -3.836738  4.093606  2.053883
H    -3.633059  3.130557  0.558736
Hg    0.595052  0.041924  2.564195
