32
Energy: -570099.638995 eV PBE+vdW (tier 2 basis)
C    -1.315157  -3.664160  0.759281
C    -0.850905  -2.532287  1.617951
O    0.226360  -1.955362  1.220765
H    -2.221769  -4.138817  1.150814
H    -0.509320  -4.402221  0.654705
H    -1.524335  -3.272005  -0.247957
N    -1.569373  -2.205658  2.704214
C    -1.651243  -0.919637  3.440489
C    -0.769130  -0.921732  4.717308
O    0.479084  -0.580074  4.679159
H    -2.378687  -2.807675  2.852738
H    -1.230856  -0.127280  2.793369
C    -3.119940  -0.542292  3.697855
C    -3.947368  -0.083048  2.464109
C    -3.286055  1.088034  1.729793
C    -4.348800  -1.209635  1.502743
H    -3.107577  0.294770  4.412398
H    -3.638977  -1.384817  4.190221
H    -4.876788  0.295552  2.917699
H    -3.973742  1.501531  0.981923
H    -2.384922  0.781127  1.172427
H    -3.016784  1.909811  2.408107
H    -5.138308  -0.855864  0.828141
H    -4.756550  -2.086166  2.028135
H    -3.520578  -1.531920  0.855134
N    -1.294396  -1.237458  5.877330
C    -0.574968  -1.265506  7.158458
H    -2.301238  -1.397050  5.901397
H    0.466908  -1.552241  6.990083
H    -1.067137  -1.991704  7.812030
H    -0.608553  -0.272674  7.626330
Hg    1.223101  -0.702544  2.659850
