32
Energy: -570098.796705 eV PBE+vdW (tier 2 basis)
C    -0.894242  0.985229  0.198659
C    -0.659278  0.876338  1.665841
O    0.367897  1.387704  2.243211
H    -1.067081  2.040849  -0.066831
H    -1.753517  0.400192  -0.144653
H    0.009656  0.662021  -0.335177
N    -1.529334  0.202219  2.418477
C    -1.537959  0.019254  3.870225
C    -2.929287  -0.583217  4.131938
O    -3.748857  -0.615913  3.204890
H    -2.347368  -0.245493  1.973128
H    -0.754093  -0.719525  4.118672
C    -1.208907  1.277018  4.724385
C    -2.084353  2.557046  4.621550
C    -1.279930  3.751476  5.095702
C    -2.782372  2.857274  3.298192
H    -0.161857  1.536012  4.520159
H    -1.206125  0.940708  5.769834
H    -2.907958  2.426107  5.361230
H    -0.465881  3.993422  4.331134
H    -0.740979  3.591553  6.038153
H    -1.868445  4.676110  5.152365
H    -3.363784  3.785685  3.364921
H    -3.454462  2.066639  2.948330
H    -2.026733  3.042288  2.495284
N    -3.272535  -1.047204  5.360935
C    -2.424346  -1.515910  6.440190
H    -4.264879  -1.295657  5.419145
H    -2.481715  -2.615303  6.511409
H    -2.790102  -1.109805  7.395076
H    -1.379292  -1.236202  6.285813
Hg    0.564760  3.633957  2.293372
