32
Energy: -570099.594136 eV PBE+vdW (tier 2 basis)
C    -1.829570  -1.720349  0.330597
C    -1.220719  -0.802805  1.341898
O    0.046313  -0.949937  1.513961
H    -2.919344  -1.616025  0.280412
H    -1.553692  -2.757789  0.557039
H    -1.403366  -1.480353  -0.656017
N    -2.009562  0.079946  1.972111
C    -1.671545  1.373908  2.622545
C    -1.547087  1.258458  4.162871
O    -0.431337  0.910245  4.728214
H    -3.001569  0.003026  1.737580
H    -0.656793  1.654471  2.286180
C    -2.580152  2.505250  2.074747
C    -4.113981  2.542473  2.305850
C    -4.671211  3.714117  1.479519
C    -4.865073  1.242427  1.981013
H    -2.402875  2.507192  0.987264
H    -2.146099  3.448112  2.440566
H    -4.330220  2.808861  3.359814
H    -4.163017  4.658320  1.713087
H    -5.739783  3.851025  1.683895
H    -4.556545  3.522482  0.403221
H    -4.644804  0.412545  2.674234
H    -4.683241  0.919864  0.942120
H    -5.947894  1.401400  2.057900
N    -2.561687  1.562273  4.934166
C    -2.555779  1.517329  6.401726
H    -3.389547  1.941880  4.468438
H    -1.921256  0.694746  6.744388
H    -3.584281  1.370547  6.743785
H    -2.169830  2.463657  6.803509
Hg    0.836544  -0.090296  3.314368
