32
Energy: -570099.621832 eV PBE+vdW (tier 2 basis)
C    -0.197948  1.409465  0.563843
C    -0.329741  0.756093  1.902228
O    0.569848  1.083523  2.759106
H    -0.412133  2.483548  0.681648
H    -0.894470  0.990903  -0.172152
H    0.834900  1.321200  0.206202
N    -1.351219  -0.090523  2.114829
C    -1.989361  -0.499888  3.393914
C    -1.461431  -1.871055  3.881775
O    -0.443003  -1.955394  4.679202
H    -1.932325  -0.250669  1.292327
H    -1.690322  0.228352  4.169308
C    -3.520470  -0.373094  3.264709
C    -4.303152  -0.266041  4.597708
C    -4.315308  -1.548659  5.437663
C    -3.860072  0.947933  5.424676
H    -3.925154  -1.187943  2.637537
H    -3.699871  0.551561  2.694675
H    -5.338919  -0.079208  4.272813
H    -5.005878  -1.433085  6.281818
H    -3.331600  -1.779689  5.876556
H    -4.660552  -2.422040  4.865679
H    -4.553723  1.109812  6.258476
H    -3.844581  1.873775  4.833025
H    -2.867383  0.807527  5.884405
N    -2.055387  -2.977907  3.505812
C    -1.667730  -4.332811  3.913885
H    -2.933629  -2.877496  2.997911
H    -1.957277  -5.028072  3.120201
H    -2.189475  -4.602348  4.842508
H    -0.587822  -4.373373  4.080864
Hg    0.760513  -0.176912  4.496568
