32
Energy: -570099.57924 eV PBE+vdW (tier 2 basis)
C    -0.047424  0.500359  -0.040631
C    -0.012216  0.304829  1.442403
O    1.149437  0.075588  1.934840
H    0.908821  0.893758  -0.397664
H    -0.864577  1.169974  -0.340990
H    -0.219489  -0.482027  -0.509664
N    -1.174598  0.381004  2.117348
C    -1.662909  -0.223155  3.397740
C    -1.496280  0.708772  4.623041
O    -0.377763  0.890278  5.243464
H    -1.941805  0.672598  1.515437
H    -2.747372  -0.300464  3.233906
C    -1.175197  -1.658946  3.702565
C    -1.893418  -2.793878  2.919964
C    -1.735430  -2.710389  1.399575
C    -1.402927  -4.140915  3.459443
H    -1.333224  -1.833669  4.777649
H    -0.088321  -1.784018  3.526260
H    -2.966576  -2.694903  3.167755
H    -2.193516  -3.590250  0.930828
H    -0.674779  -2.712177  1.102596
H    -2.230450  -1.835578  0.955141
H    -1.969049  -4.960003  2.998594
H    -1.530559  -4.223185  4.546701
H    -0.341760  -4.308629  3.222507
N    -2.572674  1.287816  5.110644
C    -2.603967  2.139724  6.307885
H    -3.464173  1.088337  4.660626
H    -3.442309  2.835734  6.211701
H    -1.663570  2.691963  6.391538
H    -2.744629  1.520445  7.203528
Hg    1.292705  0.204006  4.077269
