32
Energy: -570099.689271 eV PBE+vdW (tier 2 basis)
C    0.999076  -1.062706  0.691009
C    0.217286  0.001924  1.389854
O    0.635807  1.201852  1.202280
H    0.802583  -0.977533  -0.389860
H    0.713563  -2.068961  1.019770
H    2.072864  -0.900176  0.840698
N    -0.840751  -0.353206  2.139829
C    -2.061575  0.422911  2.478814
C    -2.026980  0.988540  3.921627
O    -1.435058  2.108089  4.197023
H    -0.973852  -1.362132  2.204355
H    -2.092128  1.308282  1.817611
C    -3.305477  -0.412745  2.143891
C    -3.453788  -0.785441  0.647390
C    -4.746788  -1.590495  0.466416
C    -3.424523  0.445677  -0.264956
H    -4.187396  0.173317  2.447775
H    -3.306732  -1.342532  2.741980
H    -2.612032  -1.445618  0.370874
H    -4.841109  -1.931973  -0.571256
H    -5.631307  -0.979199  0.694616
H    -4.771438  -2.480153  1.109986
H    -3.604364  0.148273  -1.305205
H    -2.456452  0.973079  -0.263388
H    -4.210539  1.166690  0.004016
N    -2.645413  0.356068  4.889616
C    -2.709134  0.794863  6.290680
H    -3.187880  -0.467509  4.630109
H    -3.580220  1.447391  6.436257
H    -1.797879  1.341985  6.547807
H    -2.810081  -0.091867  6.923485
Hg    -0.107215  2.660067  2.598327
