32
Energy: -570099.612699 eV PBE+vdW (tier 2 basis)
C    -0.645851  -0.159269  -0.111028
C    -0.208776  -0.100135  1.318321
O    0.936237  -0.633103  1.553905
H    -1.563866  0.410003  -0.296268
H    -0.828610  -1.214389  -0.369451
H    0.162243  0.197190  -0.761330
N    -1.018655  0.490703  2.214944
C    -1.193062  0.354288  3.700284
C    -0.389926  1.383325  4.532960
O    0.879346  1.296346  4.760049
H    -1.828347  0.921189  1.772756
H    -2.248694  0.622340  3.840580
C    -1.053868  -1.077938  4.246128
C    -1.583879  -1.250136  5.686556
C    -3.094085  -0.983525  5.777781
C    -1.239977  -2.660256  6.182234
H    -0.002457  -1.441589  4.233676
H    -1.586194  -1.750396  3.555107
H    -1.058437  -0.527705  6.337301
H    -3.438884  -1.151702  6.805375
H    -3.661027  -1.663784  5.126781
H    -3.381819  0.048510  5.523346
H    -1.574928  -2.794757  7.217357
H    -0.157643  -2.850739  6.160634
H    -1.734699  -3.429061  5.572190
N    -1.051594  2.367404  5.101910
C    -0.457938  3.390073  5.973847
H    -2.062946  2.386368  4.984234
H    -0.424392  3.025389  7.009004
H    -1.081469  4.287342  5.924318
H    0.557296  3.617736  5.636175
Hg    1.808469  -0.119686  3.440998
