32
Energy: -570098.62653 eV PBE+vdW (tier 2 basis)
C    0.766702  0.712566  1.185221
C    -0.110615  -0.413635  1.659759
O    0.389066  -1.579172  1.535646
H    1.657717  0.305502  0.699165
H    1.083114  1.323557  2.043667
H    0.224046  1.343884  0.467948
N    -1.324132  -0.188820  2.162199
C    -2.014717  1.090020  2.318725
C    -2.846831  0.909952  3.604569
O    -3.339833  -0.192171  3.834239
H    -1.875826  -0.978309  2.518288
H    -1.281728  1.900645  2.386554
C    -2.959783  1.297124  1.071076
C    -3.732773  2.617256  0.952605
C    -4.918227  2.756386  1.892822
C    -2.853800  3.863167  0.848642
H    -3.656686  0.445967  1.058142
H    -2.297263  1.190476  0.198970
H    -4.198047  2.502592  -0.060145
H    -5.523707  3.641663  1.655576
H    -4.583117  2.907275  2.942220
H    -5.568419  1.871846  1.891023
H    -3.444468  4.735280  0.542289
H    -2.043452  3.738403  0.118211
H    -2.401074  4.128298  1.817576
N    -3.059752  1.949338  4.473691
C    -2.267341  3.144944  4.700264
H    -3.669417  1.665515  5.247974
H    -1.573524  2.987762  5.542983
H    -2.939392  3.967806  4.981653
H    -1.704265  3.429665  3.809207
Hg    -0.069170  -3.620509  2.492328
