32
Energy: -570098.805473 eV PBE+vdW (tier 2 basis)
C    -0.360602  -0.371347  -0.802526
C    -0.173690  -0.250329  0.665805
O    1.006634  -0.408922  1.144477
H    0.192629  0.421306  -1.326691
H    -1.416885  -0.378075  -1.088595
H    0.100233  -1.320582  -1.121789
N    -1.195942  -0.015081  1.519073
C    -2.252902  0.999037  1.417900
C    -1.604438  2.350325  1.789989
O    -0.691425  2.437364  2.708395
H    -1.016456  -0.315659  2.480906
H    -2.631414  1.023529  0.388293
C    -3.374126  0.617215  2.417359
C    -4.710886  1.374344  2.312412
C    -5.464251  1.055220  1.014797
C    -5.568788  1.042744  3.539741
H    -2.965412  0.721492  3.436818
H    -3.564705  -0.457153  2.258705
H    -4.501731  2.459588  2.350959
H    -6.374182  1.662096  0.933174
H    -5.773949  0.000590  0.996911
H    -4.877545  1.237089  0.100452
H    -6.527822  1.573245  3.491500
H    -5.071112  1.326978  4.476446
H    -5.796936  -0.032443  3.591033
N    -1.998637  3.499522  1.267517
C    -3.090568  3.808598  0.346277
H    -1.477677  4.308305  1.622080
H    -2.677361  4.398692  -0.483227
H    -3.846357  4.417484  0.859658
H    -3.559787  2.901541  -0.037344
Hg    1.137482  1.141859  2.772699
