37
Energy: -108386.559499 eV PBE+vdW (tier 2 basis)
C    -0.740495  0.625512  0.478239
C    -0.229574  0.241727  1.830709
O    1.007712  -0.134840  1.960834
H    -0.640141  -0.224909  -0.211525
H    -0.145678  1.458476  0.077282
H    -1.792464  0.928306  0.491259
N    -1.054439  0.294408  2.853937
C    -0.854003  -0.090238  4.255306
C    -2.252693  -0.597121  4.696928
O    -3.247704  -0.063632  4.170610
H    -2.047813  0.512567  2.680982
H    -0.102556  -0.889647  4.286386
C    -0.387511  1.091330  5.164281
C    -1.470085  1.975545  5.809801
C    -2.219072  2.943249  4.875758
N    -3.286594  3.669763  5.561474
C    -4.592243  3.339361  5.566640
N    -5.478216  4.198563  6.087506
N    -5.012838  2.177834  5.054440
H    0.324766  1.705022  4.591719
H    0.191909  0.641052  5.982107
H    -0.974148  2.568554  6.592086
H    -2.197351  1.345242  6.342565
H    -2.669235  2.426285  4.019674
H    -1.527477  3.692350  4.465292
H    -3.019448  4.477585  6.115268
H    -6.438029  3.925836  6.265172
H    -5.231807  5.159092  6.296253
H    -4.381967  1.413943  4.802669
H    -6.003467  2.019337  4.910665
N    -2.291681  -1.534769  5.643507
C    -3.529466  -2.072508  6.215607
H    -1.414351  -1.899688  6.002521
H    -3.428032  -3.155771  6.337775
H    -4.356681  -1.860388  5.533170
H    -3.732235  -1.620151  7.194757
Sr    3.032442  -0.727839  1.324374
