37
Energy: -108388.135789 eV PBE+vdW (tier 2 basis)
C    0.046873  -0.733811  0.044834
C    -0.273058  -1.064171  1.465247
O    0.097591  -2.162129  1.977814
H    -0.354120  -1.515357  -0.614714
H    1.139294  -0.748022  -0.080444
H    -0.338209  0.238745  -0.278830
N    -0.958444  -0.162159  2.192475
C    -1.268801  -0.255693  3.630352
C    -2.420128  -1.273086  3.857839
O    -2.139309  -2.511235  3.856576
H    -1.266654  0.676154  1.705538
H    -0.395876  -0.717980  4.116657
C    -1.492170  1.144736  4.233757
C    -0.223722  2.017795  4.306948
C    -0.507639  3.365812  4.991580
N    0.714542  4.167042  5.100887
C    0.761529  5.505154  5.274696
N    1.937023  6.136062  5.186050
N    -0.355896  6.203978  5.503283
H    -1.886144  1.005859  5.251664
H    -2.272669  1.679124  3.663710
H    0.187694  2.203789  3.303886
H    0.549216  1.476690  4.876268
H    -0.942417  3.189769  5.990344
H    -1.237309  3.938347  4.400031
H    1.588080  3.668781  5.243107
H    2.752022  5.694174  4.776505
H    2.049759  7.090233  5.512168
H    -0.346095  7.218633  5.479556
H    -1.187165  5.770299  5.885513
N    -3.653872  -0.837165  4.038464
C    -4.831314  -1.685916  4.255305
H    -3.811768  0.167074  4.021028
H    -5.494422  -1.191814  4.972579
H    -4.514833  -2.652501  4.654335
H    -5.371085  -1.833116  3.310832
Sr    -0.601506  -4.044097  3.079160
