37
Energy: -108386.642132 eV PBE+vdW (tier 2 basis)
C    -0.530516  -1.687408  0.420880
C    -0.109822  -0.464817  1.162469
O    0.707165  0.368189  0.574436
H    0.359677  -2.271389  0.148782
H    -1.022853  -1.396078  -0.517440
H    -1.210519  -2.323137  0.992900
N    -0.513196  -0.178676  2.375108
C    -1.610356  -0.694117  3.207279
C    -2.147698  0.649557  3.830253
O    -1.389800  1.631508  3.798069
H    -0.293040  0.770481  2.781405
H    -2.379290  -1.163292  2.578148
C    -1.154143  -1.639449  4.341971
C    -0.843961  -3.093727  3.953282
C    -0.590918  -3.934830  5.215173
N    -0.405822  -5.354030  4.894912
C    0.104059  -6.276505  5.735822
N    0.327572  -7.519974  5.293841
N    0.415843  -5.952524  6.995445
H    -0.289644  -1.179925  4.845008
H    -1.963932  -1.642260  5.087167
H    0.033179  -3.152861  3.291401
H    -1.701488  -3.517794  3.404351
H    -1.440977  -3.810072  5.907760
H    0.316067  -3.575739  5.723682
H    -0.891252  -5.713018  4.078422
H    0.520026  -8.281656  5.935195
H    0.313133  -7.746200  4.306557
H    0.931280  -6.596323  7.586177
H    0.026606  -5.134807  7.447770
N    -3.365577  0.626972  4.373334
C    -3.983088  1.778415  5.038528
H    -3.920287  -0.220429  4.296990
H    -4.864393  2.110580  4.477034
H    -3.251608  2.588779  5.083573
H    -4.285637  1.501773  6.054961
Sr    1.838162  1.900335  -0.475530
