37
Energy: -108387.853889 eV PBE+vdW (tier 2 basis)
C    -1.668749  -0.949131  -0.488027
C    -1.067238  -0.725319  0.858523
O    0.159228  -0.433121  0.987195
H    -1.124318  -1.753433  -1.001864
H    -1.530654  -0.041022  -1.092432
H    -2.733795  -1.201272  -0.457629
N    -1.855445  -0.834589  1.945531
C    -1.423593  -0.557052  3.324936
C    -0.431578  -1.650919  3.811088
O    0.810825  -1.391603  3.699263
H    -2.827538  -1.091498  1.792065
H    -0.790519  0.341777  3.281658
C    -2.618092  -0.253427  4.252875
C    -3.218318  1.152358  4.057175
C    -4.395551  1.395837  5.017076
N    -4.962931  2.734118  4.829807
C    -5.689341  3.413069  5.742745
N    -6.082016  2.824996  6.878245
N    -5.992128  4.695896  5.516692
H    -2.264705  -0.356524  5.289829
H    -3.402295  -1.013392  4.123210
H    -3.564654  1.275058  3.018053
H    -2.447314  1.917646  4.232294
H    -4.044644  1.318666  6.056697
H    -5.170261  0.625557  4.862047
H    -4.958086  3.117614  3.889527
H    -6.489382  3.371449  7.630295
H    -6.159340  1.818713  6.958984
H    -6.700547  5.175026  6.062627
H    -5.513825  5.241923  4.809479
N    -0.810674  -2.819965  4.303968
C    -2.144383  -3.407463  4.471930
H    -0.029595  -3.404664  4.606766
H    -2.596538  -3.099882  5.422667
H    -2.030392  -4.495923  4.481020
H    -2.799262  -3.146644  3.635409
Sr    2.199649  -0.636862  2.017274
