37
Energy: -108385.763805 eV PBE+vdW (tier 2 basis)
C    -0.047577  1.645972  -0.040192
C    -0.077692  1.206040  1.383451
O    0.969404  1.361222  2.135444
H    -0.530867  2.632645  -0.128436
H    -0.603793  0.968945  -0.699891
H    0.982316  1.734236  -0.396655
N    -1.173022  0.679381  1.911014
C    -2.456776  0.391885  1.225429
C    -3.245929  1.655473  0.784950
O    -3.648504  1.672024  -0.385199
H    -1.124910  0.436540  2.901654
H    -2.201335  -0.066657  0.263071
C    -3.265228  -0.641861  2.057612
C    -4.806432  -0.579945  2.050335
C    -5.590504  -0.651785  0.730712
N    -5.225841  -1.771524  -0.148698
C    -5.068087  -1.675298  -1.487214
N    -5.294920  -2.754295  -2.249362
N    -4.645911  -0.538519  -2.048481
H    -2.973482  -0.548800  3.116154
H    -2.931343  -1.640922  1.745866
H    -5.152558  0.334550  2.555053
H    -5.135594  -1.402761  2.702226
H    -5.491704  0.273290  0.158083
H    -6.657336  -0.740753  0.985060
H    -5.445893  -2.702442  0.196209
H    -5.014802  -2.778971  -3.223453
H    -5.860701  -3.527988  -1.919433
H    -4.753403  -0.395626  -3.046238
H    -4.301012  0.251551  -1.491670
N    -3.485444  2.662432  1.645346
C    -3.182812  2.759150  3.069575
H    -4.011324  3.430386  1.229046
H    -3.882315  3.467896  3.524272
H    -2.164320  3.130982  3.252310
H    -3.323919  1.799165  3.580008
Sr    2.977978  1.714535  2.974921
