37
Energy: -108387.629481 eV PBE+vdW (tier 2 basis)
C    -1.738319  2.307524  1.485246
C    -1.920418  0.862785  1.809717
O    -2.619486  0.110372  1.068214
H    -1.157535  2.856675  2.233622
H    -2.719188  2.786575  1.366077
H    -1.230068  2.384819  0.512474
N    -1.313283  0.367933  2.905968
C    -1.260070  -1.056150  3.279675
C    -2.626468  -1.507143  3.860661
O    -3.525141  -1.881217  3.046192
H    -0.781262  1.027923  3.466553
H    -1.196141  -1.615428  2.334599
C    0.044048  -1.395219  4.046205
C    0.351559  -0.695011  5.387275
C    1.842228  -0.667592  5.773553
N    2.375672  -1.995362  6.103484
C    3.695895  -2.279101  6.214242
N    4.616215  -1.325693  6.042991
N    4.074568  -3.536905  6.461702
H    0.856600  -1.169201  3.338537
H    0.062604  -2.486478  4.174439
H    -0.205546  -1.152184  6.222261
H    0.044045  0.362624  5.374350
H    1.958896  0.016395  6.630035
H    2.428334  -0.264212  4.934623
H    1.754723  -2.631126  6.596224
H    5.601864  -1.561315  5.980521
H    4.396618  -0.343033  6.152918
H    3.433180  -4.316354  6.373326
H    5.025930  -3.757905  6.737482
N    -2.850226  -1.484279  5.163498
C    -4.117773  -1.869951  5.797095
H    -2.109897  -1.145453  5.769460
H    -4.843787  -1.048937  5.736140
H    -3.926217  -2.098534  6.849123
H    -4.524498  -2.755737  5.299914
Sr    -4.255657  -1.475105  0.884605
