37
Energy: -108385.670272 eV PBE+vdW (tier 2 basis)
C    -0.027607  0.000937  -0.605298
C    0.104644  -0.590608  0.769664
O    0.999293  -1.362007  1.087493
H    0.980552  0.135715  -1.013356
H    -0.556701  0.960512  -0.627859
H    -0.542821  -0.705860  -1.273278
N    -0.827783  -0.209211  1.758554
C    -2.257748  -0.092087  1.495485
C    -2.812084  1.210416  2.096602
O    -4.069714  1.503592  2.023072
H    -0.607721  -0.691407  2.632646
H    -2.394871  0.016736  0.406937
C    -3.030516  -1.356584  1.953850
C    -2.501152  -2.666028  1.312658
C    -1.521759  -3.463853  2.197735
N    -1.072208  -4.696292  1.549849
C    0.205815  -5.104605  1.378028
N    0.436822  -6.405705  1.156742
N    1.224979  -4.245674  1.411828
H    -4.089121  -1.230335  1.690941
H    -2.993802  -1.425766  3.053478
H    -2.032960  -2.459763  0.338575
H    -3.364440  -3.310097  1.094414
H    -2.012044  -3.725805  3.148877
H    -0.630798  -2.880682  2.454464
H    -1.782888  -5.400007  1.371815
H    1.334617  -6.729348  0.814026
H    -0.251371  -7.117259  1.373270
H    1.109998  -3.232646  1.323507
H    2.177195  -4.593716  1.432379
N    -1.951033  2.023371  2.659278
C    -2.239086  3.319683  3.267216
H    -0.980993  1.689733  2.609216
H    -2.553930  4.044783  2.504187
H    -1.326937  3.694899  3.739675
H    -3.009421  3.217375  4.042456
Sr    -6.117520  2.306323  1.943447
