37
Energy: -108387.871475 eV PBE+vdW (tier 2 basis)
C    -0.734144  -0.421101  0.532615
C    -0.457512  -0.293106  1.993898
O    0.634550  0.195903  2.408630
H    -0.743032  0.587594  0.092945
H    -1.685172  -0.914296  0.306358
H    0.082868  -0.968735  0.045030
N    -1.404784  -0.697824  2.861905
C    -1.393261  -0.485035  4.317353
C    -0.474883  -1.520123  5.017664
O    0.780533  -1.393350  4.885181
H    -2.242318  -1.106656  2.457637
H    -0.859214  0.464027  4.480898
C    -2.821025  -0.260423  4.874434
C    -3.959202  -1.238767  4.511588
C    -5.268312  -0.797854  5.194584
N    -6.394613  -1.653393  4.814048
C    -7.697712  -1.296843  4.865172
N    -8.616655  -2.102476  4.323712
N    -8.068267  -0.139708  5.423289
H    -3.118389  0.742614  4.534554
H    -2.729572  -0.178495  5.968434
H    -3.730092  -2.276953  4.805263
H    -4.134626  -1.258656  3.424458
H    -5.505449  0.230816  4.886524
H    -5.133002  -0.798901  6.289422
H    -6.211734  -2.643840  4.683710
H    -8.366492  -2.842747  3.678065
H    -9.605174  -1.981318  4.518872
H    -9.018241  0.203357  5.320758
H    -7.490432  0.334338  6.106715
N    -0.984732  -2.490041  5.755809
C    -0.182232  -3.486901  6.478080
H    -1.993605  -2.545000  5.845207
H    -0.852721  -4.090197  7.095228
H    0.548994  -2.985482  7.121940
H    0.343030  -4.139148  5.770217
Sr    2.429621  -0.214276  3.762800
