37
Energy: -108386.580052 eV PBE+vdW (tier 2 basis)
C    1.311994  0.886301  -1.537588
C    0.877361  1.994424  -0.640701
O    1.663714  3.014532  -0.471352
H    0.985223  1.118263  -2.563446
H    0.879991  -0.082395  -1.266098
H    2.403306  0.798130  -1.527755
N    -0.282202  1.963413  -0.008105
C    -1.358678  0.982659  -0.233476
C    -1.867830  1.155353  -1.706066
O    -1.607564  2.188122  -2.319361
H    -0.516868  2.798927  0.526359
H    -0.916571  -0.016255  -0.107624
C    -2.486063  1.120010  0.815190
C    -3.529244  2.224718  0.570979
C    -4.653297  2.145007  1.614327
N    -5.721242  3.107045  1.321702
C    -6.979155  3.042713  1.797177
N    -7.916587  3.859411  1.300236
N    -7.303944  2.155401  2.744443
H    -2.027091  1.223499  1.811456
H    -3.002653  0.149517  0.837803
H    -3.963116  2.111149  -0.433288
H    -3.065755  3.224421  0.603476
H    -4.244827  2.321699  2.623714
H    -5.092788  1.136188  1.600028
H    -5.473737  3.944644  0.804640
H    -8.810437  3.979800  1.763856
H    -7.782477  4.357090  0.428074
H    -8.273387  1.992802  2.994949
H    -6.603623  1.725307  3.335502
N    -2.591294  0.120833  -2.176064
C    -3.180394  0.094607  -3.516094
H    -2.682970  -0.716448  -1.608637
H    -2.673794  -0.648144  -4.144833
H    -3.064381  1.085045  -3.964032
H    -4.244834  -0.159116  -3.454369
Sr    3.307628  4.437329  -0.711493
