37
Energy: -108386.544968 eV PBE+vdW (tier 2 basis)
C    0.051072  0.484897  0.450900
C    -0.111229  0.398630  1.930275
O    0.960309  0.334233  2.673021
H    0.598545  -0.398345  0.093118
H    0.657032  1.366149  0.199164
H    -0.900480  0.547655  -0.083155
N    -1.277993  0.385263  2.524052
C    -2.658352  0.497378  2.018602
C    -3.384929  1.046037  3.291272
O    -2.891393  0.736969  4.384171
H    -1.350930  0.343523  3.568051
H    -2.695070  1.199580  1.177346
C    -3.173184  -0.920200  1.639258
C    -4.668708  -1.111831  1.326741
C    -5.115751  -0.756828  -0.098010
N    -6.511249  -1.176997  -0.279636
C    -7.314802  -0.852893  -1.309495
N    -8.612420  -1.173990  -1.261355
N    -6.831713  -0.181507  -2.363497
H    -2.937104  -1.567039  2.495981
H    -2.564302  -1.290624  0.799819
H    -5.291978  -0.581070  2.060471
H    -4.871590  -2.183116  1.480602
H    -4.465129  -1.272218  -0.825411
H    -5.051296  0.325033  -0.287589
H    -6.858503  -1.889746  0.355775
H    -9.198081  -1.135120  -2.088567
H    -9.053818  -1.487968  -0.404630
H    -7.454660  0.166537  -3.084545
H    -5.844303  -0.190035  -2.585253
N    -4.493230  1.793780  3.176184
C    -5.132620  2.352038  1.991238
H    -4.888958  2.057799  4.078591
H    -5.401749  3.396448  2.186149
H    -6.049457  1.804593  1.731244
H    -4.450537  2.342714  1.135130
Sr    2.784430  0.309399  3.859507
