37
Energy: -108386.028329 eV PBE+vdW (tier 2 basis)
C    -0.490039  -0.562327  -0.901954
C    -0.337249  -0.334775  0.569624
O    0.658229  -0.885334  1.197231
H    -1.351893  -0.039831  -1.330054
H    -0.614349  -1.637096  -1.098851
H    0.412915  -0.220380  -1.427594
N    -1.226431  0.419266  1.181078
C    -1.372489  0.813968  2.592994
C    -2.901390  0.706823  2.846213
O    -3.630239  1.367807  2.088101
H    -1.988926  0.797107  0.607838
H    -0.774315  0.140517  3.215477
C    -0.964651  2.300438  2.762534
C    -1.502720  2.941544  4.049780
C    -1.533895  4.476065  4.036248
N    -2.205927  5.130180  2.885745
C    -3.542578  5.226813  2.679805
N    -4.053305  6.388129  2.257337
N    -4.342844  4.171601  2.878628
H    -1.370705  2.845036  1.897142
H    0.129742  2.385115  2.706194
H    -0.892322  2.651564  4.917782
H    -2.514280  2.575892  4.272586
H    -0.510604  4.870567  4.018262
H    -1.994260  4.825332  4.971496
H    -1.675544  5.898709  2.486053
H    -4.978276  6.441476  1.842316
H    -3.561528  7.265431  2.391831
H    -5.349016  4.306151  2.867946
H    -4.017911  3.217720  2.693482
N    -3.362626  -0.048558  3.850705
C    -2.608598  -0.834371  4.828098
H    -4.379362  -0.057973  3.926907
H    -3.312799  -1.212921  5.574561
H    -1.867940  -0.220129  5.355279
H    -2.120808  -1.701325  4.362533
Sr    2.468628  -2.134232  1.360500
