37
Energy: -108387.422677 eV PBE+vdW (tier 2 basis)
C    -0.058177  0.900266  0.409410
C    -0.083474  0.578309  1.864698
O    0.945604  0.730257  2.589368
H    -1.005074  0.697855  -0.101620
H    0.744645  0.330606  -0.078362
H    0.193182  1.964342  0.288928
N    -1.229763  0.125594  2.408180
C    -1.434509  -0.108602  3.846689
C    -0.604016  -1.337040  4.311075
O    0.516467  -1.099512  4.867107
H    -2.031144  0.027920  1.788932
H    -0.952185  0.726423  4.376565
C    -2.940677  -0.073833  4.187475
C    -3.238174  -0.257897  5.686613
C    -4.727683  -0.378790  6.055254
N    -5.451846  0.897107  6.034176
C    -6.543519  1.177180  6.779966
N    -6.999099  2.434192  6.829357
N    -7.156375  0.219511  7.482333
H    -3.486083  -0.829122  3.604583
H    -3.301470  0.905851  3.835975
H    -2.783294  0.552885  6.275561
H    -2.771098  -1.189615  6.040878
H    -4.785015  -0.767341  7.080759
H    -5.220543  -1.111101  5.392911
H    -5.236912  1.564252  5.300818
H    -7.918126  2.646682  7.203431
H    -6.425217  3.222335  6.553513
H    -7.859767  0.453364  8.175849
H    -7.056232  -0.761892  7.253606
N    -0.987723  -2.591940  4.124722
C    -2.167239  -3.141210  3.448311
H    -0.333505  -3.278861  4.503368
H    -3.028488  -3.190657  4.126437
H    -1.925847  -4.159862  3.129194
H    -2.418398  -2.561766  2.555162
Sr    2.381774  0.146108  4.270775
