37
Energy: -108385.665193 eV PBE+vdW (tier 2 basis)
C    1.056713  -0.256693  0.109492
C    0.727952  0.183900  1.509933
O    1.592590  0.519742  2.324689
H    0.184524  -0.408330  -0.536024
H    1.622859  -1.197623  0.157529
H    1.721588  0.486533  -0.348002
N    -0.615676  0.184973  1.829524
C    -1.268287  0.446842  3.111335
C    -1.955251  1.831403  3.152307
O    -3.222905  1.868183  3.461052
H    -1.235132  -0.123511  1.086668
H    -2.119785  -0.249739  3.154003
C    -0.461515  0.228212  4.424563
C    -0.158023  -1.233716  4.814818
C    0.987082  -1.978414  4.105220
N    2.307059  -1.369774  4.269114
C    3.337457  -1.859075  4.976606
N    3.160777  -2.796318  5.917526
N    4.571384  -1.392166  4.741829
H    -1.096574  0.638192  5.225794
H    0.450743  0.832848  4.421742
H    -1.064879  -1.847646  4.693319
H    0.052957  -1.226168  5.894612
H    0.797227  -2.065374  3.027284
H    1.020277  -3.010775  4.477054
H    2.487571  -0.581308  3.643104
H    3.950646  -3.286384  6.321887
H    2.245840  -3.026843  6.280286
H    4.786465  -0.867933  3.902267
H    5.339715  -1.584304  5.374469
N    -1.343735  2.967297  2.905020
C    0.056229  3.251908  2.568061
H    -1.943401  3.792258  2.950956
H    0.377625  4.113827  3.163696
H    0.126870  3.512280  1.503947
H    0.700512  2.395441  2.780155
Sr    -5.364070  2.022173  3.932329
