37
Energy: -108386.195264 eV PBE+vdW (tier 2 basis)
C    0.290398  1.077984  0.530977
C    0.134022  0.332627  1.814156
O    1.167965  0.097191  2.565816
H    -0.365981  1.959564  0.497061
H    0.005938  0.445723  -0.324018
H    1.325548  1.400533  0.395013
N    -1.056356  -0.097287  2.202824
C    -2.329032  0.079661  1.469390
C    -2.912827  1.526683  1.487056
O    -3.326364  1.953232  0.412155
H    -1.095336  -0.583233  3.099742
H    -2.101036  -0.068894  0.407350
C    -3.355188  -0.985931  1.920892
C    -4.795238  -0.765121  1.417356
C    -4.984010  -0.872791  -0.107153
N    -6.337839  -0.509399  -0.537017
C    -7.427830  -1.295144  -0.561934
N    -8.631773  -0.748436  -0.768188
N    -7.326987  -2.617066  -0.362185
H    -3.396747  -1.007691  3.020912
H    -2.985999  -1.973912  1.604965
H    -5.157447  0.220151  1.744711
H    -5.435046  -1.506020  1.917168
H    -4.728254  -1.878863  -0.472015
H    -4.318498  -0.177040  -0.632337
H    -6.467262  0.452611  -0.833677
H    -9.438729  -1.317331  -0.999061
H    -8.769694  0.255399  -0.765931
H    -6.444150  -3.097535  -0.477037
H    -8.156900  -3.198409  -0.329443
N    -2.980098  2.234593  2.639763
C    -2.649166  1.843556  4.004683
H    -3.384887  3.160088  2.508617
H    -3.149573  2.534494  4.690381
H    -1.569475  1.902280  4.208346
H    -3.016953  0.838439  4.246415
Sr    3.190871  -0.103121  3.400259
