37
Energy: -108387.340087 eV PBE+vdW (tier 2 basis)
C    -1.569803  1.051910  0.669931
C    -0.944521  0.434839  1.878300
O    -0.176405  -0.566572  1.763546
H    -0.785313  1.333816  -0.045367
H    -2.187102  1.929468  0.888091
H    -2.190837  0.292839  0.171934
N    -1.226026  0.978179  3.076794
C    -0.867830  0.519888  4.440362
C    0.662872  0.538124  4.672886
O    1.420543  -0.341924  4.164609
H    -1.833260  1.793054  3.044531
H    -1.297646  1.293722  5.091833
C    -1.514419  -0.835328  4.812911
C    -1.512894  -1.147154  6.325495
C    -2.637859  -0.501252  7.162986
N    -3.940368  -1.173936  7.079487
C    -4.503019  -1.934480  8.044588
N    -5.824001  -2.139021  8.031611
N    -3.756990  -2.488180  9.006539
H    -0.995254  -1.639874  4.275726
H    -2.540342  -0.830730  4.416276
H    -0.551229  -0.846519  6.770538
H    -1.564467  -2.237500  6.452352
H    -2.800190  0.549464  6.879509
H    -2.342842  -0.473884  8.219817
H    -4.556119  -0.915931  6.315738
H    -6.455578  -1.532783  7.520014
H    -6.251346  -2.861523  8.602227
H    -4.188315  -2.900998  9.827155
H    -2.754291  -2.589796  8.920243
N    1.139733  1.501003  5.447793
C    2.552134  1.684545  5.797662
H    0.487749  2.196967  5.801499
H    2.610994  2.136289  6.792680
H    3.040381  2.352557  5.075881
H    3.057537  0.715170  5.804830
Sr    1.800323  -1.571449  2.246993
