37
Energy: -108387.028964 eV PBE+vdW (tier 2 basis)
C    -0.097514  1.020575  0.902571
C    0.061319  0.580686  2.318491
O    0.666245  1.306934  3.161620
H    -0.817971  1.849596  0.830966
H    -0.403888  0.218291  0.225231
H    0.867791  1.426758  0.568664
N    -0.432158  -0.620079  2.730397
C    -1.801907  -1.040862  2.439111
C    -2.750580  -0.134824  3.301391
O    -2.258922  0.775190  4.042626
H    -0.125839  -0.861632  3.674765
H    -2.015312  -0.805857  1.384603
C    -1.991223  -2.555537  2.671725
C    -1.197193  -3.431899  1.686587
C    -1.418262  -4.931102  1.948248
N    -0.662405  -5.744866  0.991638
C    -0.952050  -7.013942  0.637168
N    -0.309161  -7.569739  -0.395341
N    -1.892648  -7.707193  1.289267
H    -3.061629  -2.793844  2.584904
H    -1.717431  -2.794993  3.712406
H    -0.123869  -3.199433  1.768828
H    -1.499471  -3.199730  0.653934
H    -2.484160  -5.176239  1.831967
H    -1.123452  -5.179884  2.981799
H    0.234311  -5.386060  0.677653
H    -0.336871  -8.571039  -0.556628
H    0.210089  -7.013197  -1.064565
H    -2.223811  -8.596145  0.928707
H    -2.164092  -7.474725  2.236620
N    -4.053697  -0.321084  3.210677
C    -5.065613  0.465300  3.930274
H    -4.393768  -1.040010  2.577177
H    -6.039936  -0.006757  3.779763
H    -5.101612  1.490332  3.541094
H    -4.836401  0.483339  5.001136
Sr    -0.633932  2.261400  4.836965
