37
Energy: -108387.170025 eV PBE+vdW (tier 2 basis)
C    0.710349  1.580614  1.454600
C    0.316270  0.205128  1.880766
O    1.192390  -0.629131  2.257775
H    1.392130  1.499581  0.595274
H    1.278017  2.063848  2.261644
H    -0.135187  2.219038  1.178660
N    -0.990787  -0.115294  1.851622
C    -1.634972  -1.429307  2.093187
C    -1.349634  -1.915663  3.534152
O    -0.293356  -2.564970  3.806744
H    -1.611746  0.622149  1.528346
H    -2.707596  -1.209787  2.028824
C    -1.277671  -2.474544  1.013624
C    -2.242573  -3.669583  0.852099
C    -3.517352  -3.362796  0.031087
N    -4.058005  -4.546263  -0.651479
C    -5.277842  -5.101633  -0.500604
N    -5.805906  -5.807562  -1.503471
N    -5.965054  -4.951089  0.641346
H    -0.271176  -2.864319  1.214078
H    -1.204517  -1.936570  0.057063
H    -2.503744  -4.112219  1.825973
H    -1.684908  -4.452122  0.318706
H    -3.282311  -2.623563  -0.750272
H    -4.319241  -2.924814  0.638741
H    -3.534820  -4.866925  -1.461944
H    -6.580081  -6.446440  -1.351092
H    -5.470697  -5.717784  -2.456891
H    -6.938960  -5.230834  0.696068
H    -5.489533  -4.789243  1.519225
N    -2.230029  -1.644068  4.488521
C    -3.472196  -0.862839  4.406465
H    -1.979924  -2.004557  5.410276
H    -3.898968  -0.805984  5.411808
H    -4.208855  -1.347879  3.754312
H    -3.277090  0.159949  4.063254
Sr    1.995572  -2.307527  3.557516
