37
Energy: -108387.848832 eV PBE+vdW (tier 2 basis)
C    0.295488  -0.372363  -0.188264
C    -0.220237  -0.737182  1.163105
O    0.561261  -0.849531  2.154383
H    0.814836  0.594334  -0.119451
H    -0.485189  -0.306526  -0.953158
H    1.046095  -1.109780  -0.504868
N    -1.542759  -0.941995  1.316419
C    -2.203666  -1.215059  2.602708
C    -1.825268  -2.632667  3.115636
O    -0.865708  -2.704856  3.950770
H    -2.125738  -0.861349  0.486982
H    -1.730759  -0.554955  3.345089
C    -3.709139  -0.881255  2.561742
C    -4.013989  0.628980  2.595534
C    -5.529237  0.895121  2.589984
N    -5.813173  2.333033  2.595389
C    -6.960807  2.905832  3.016128
N    -7.026425  4.236965  3.126254
N    -8.017297  2.156364  3.349717
H    -4.176215  -1.366943  3.431772
H    -4.175695  -1.334476  1.675203
H    -3.554470  1.126788  1.726187
H    -3.572915  1.082451  3.495766
H    -5.982556  0.456013  3.490703
H    -5.991401  0.416869  1.709597
H    -5.176780  2.935854  2.082619
H    -6.194499  4.815589  3.123960
H    -7.915047  4.714446  3.234526
H    -8.821314  2.570543  3.810181
H    -8.133402  1.212845  3.001498
N    -2.426568  -3.743003  2.717469
C    -3.484432  -3.963330  1.725086
H    -2.075999  -4.582566  3.181977
H    -3.365341  -3.296792  0.865869
H    -4.478796  -3.839604  2.170985
H    -3.394139  -4.992954  1.365157
Sr    1.295282  -1.900842  4.058347
