37
Energy: -108386.300459 eV PBE+vdW (tier 2 basis)
C    0.281143  1.212772  0.987640
C    -0.112833  0.546258  2.259446
O    0.825754  0.148797  3.071468
H    -0.526084  1.780470  0.518086
H    0.613690  0.443347  0.273110
H    1.130909  1.879449  1.175450
N    -1.366381  0.303104  2.605235
C    -2.690052  0.580110  1.962880
C    -2.663824  0.652840  0.408177
O    -2.799404  1.729317  -0.186913
H    -1.457936  -0.160444  3.511060
H    -3.278980  -0.313846  2.220857
C    -3.411484  1.779123  2.602955
C    -2.722327  3.161266  2.522335
C    -3.672972  4.298869  2.131810
N    -4.110340  4.137183  0.743893
C    -4.988352  4.928426  0.113478
N    -5.321029  4.663868  -1.158673
N    -5.543646  5.973337  0.739530
H    -3.623229  1.530066  3.652448
H    -4.396667  1.809689  2.114678
H    -1.889623  3.157425  1.806180
H    -2.292675  3.421766  3.497977
H    -3.146745  5.258890  2.254850
H    -4.546443  4.302375  2.805221
H    -3.681617  3.362803  0.224918
H    -5.933230  5.274548  -1.686157
H    -4.917547  3.878599  -1.653097
H    -5.287019  6.228410  1.683758
H    -6.230092  6.560531  0.280379
N    -2.506951  -0.526303  -0.218194
C    -2.537331  -0.663340  -1.676566
H    -2.542952  -1.380193  0.330370
H    -2.065201  0.211635  -2.133115
H    -3.570494  -0.738883  -2.040573
H    -1.992707  -1.568499  -1.961548
Sr    2.666931  -0.426596  4.128490
