37
Energy: -108385.980564 eV PBE+vdW (tier 2 basis)
C    0.539127  -0.595055  -0.044581
C    -0.493257  0.474449  -0.109601
O    -0.421175  1.363231  -1.059098
H    0.731367  -0.980258  -1.053308
H    0.268788  -1.421335  0.617033
H    1.479108  -0.160136  0.329431
N    -1.472526  0.584678  0.771775
C    -1.847404  -0.230764  1.967484
C    -0.640255  -0.772962  2.788165
O    -0.438118  -1.984565  2.895215
H    -2.108104  1.363461  0.591934
H    -2.333570  0.511663  2.619766
C    -2.945933  -1.273848  1.662322
C    -2.767251  -2.374705  0.600963
C    -1.903654  -3.609568  0.928572
N    -2.124486  -4.181167  2.255406
C    -2.778321  -5.313528  2.554617
N    -2.579155  -5.892736  3.746337
N    -3.631665  -5.874617  1.687024
H    -3.839309  -0.698715  1.376908
H    -3.203496  -1.724928  2.631844
H    -2.390306  -1.954292  -0.345697
H    -3.786769  -2.715030  0.365228
H    -0.836542  -3.364985  0.883759
H    -2.075901  -4.384925  0.169954
H    -1.589051  -3.721491  2.991492
H    -3.194849  -6.621043  4.090052
H    -1.778788  -5.657823  4.321034
H    -3.988095  -6.811696  1.836418
H    -3.990708  -5.369670  0.888287
N    0.124343  0.166720  3.378037
C    1.237469  -0.169499  4.270360
H    -0.196021  1.130108  3.379906
H    1.944459  0.665336  4.290984
H    1.738315  -1.068739  3.900025
H    0.878669  -0.360951  5.290252
Sr    0.052780  2.718351  -2.725817
