37
Energy: -108386.651744 eV PBE+vdW (tier 2 basis)
C    -0.310950  -1.875433  1.885194
C    0.018498  -0.426778  2.014174
O    1.230653  -0.091872  2.363653
H    0.296332  -2.319222  1.083085
H    -1.365355  -2.062969  1.667328
H    -0.046006  -2.393156  2.816992
N    -0.853294  0.525382  1.787836
C    -2.213999  0.483391  1.227799
C    -2.275683  1.858892  0.485901
O    -1.594538  2.781032  0.951576
H    -0.575414  1.530122  1.845645
H    -2.301204  -0.356122  0.524265
C    -3.285712  0.379717  2.344472
C    -4.717527  0.239449  1.801160
C    -5.805909  -0.009131  2.854073
N    -6.145937  1.208862  3.604485
C    -6.998351  1.246143  4.649021
N    -7.222929  2.406014  5.279144
N    -7.592444  0.128847  5.080844
H    -3.189755  1.260259  2.997264
H    -3.045049  -0.499738  2.961915
H    -4.763247  -0.616193  1.110269
H    -4.997311  1.120359  1.202456
H    -5.476559  -0.778361  3.569014
H    -6.699970  -0.388984  2.333209
H    -5.973349  2.095250  3.139558
H    -7.982701  2.508026  5.942907
H    -6.662150  3.229385  5.097168
H    -8.138773  0.124867  5.935485
H    -7.646752  -0.702148  4.505046
N    -3.076153  1.944224  -0.584166
C    -3.240039  3.168118  -1.373582
H    -3.514027  1.097411  -0.933815
H    -4.304245  3.348162  -1.561575
H    -2.717708  3.077100  -2.334070
H    -2.817942  4.005237  -0.811764
Sr    3.334288  0.294841  2.764985
