37
Energy: -108386.526454 eV PBE+vdW (tier 2 basis)
C    0.290289  -1.385882  0.494876
C    0.100666  -0.497468  1.684424
O    1.039804  -0.423911  2.578972
H    1.185375  -1.074617  -0.062646
H    -0.561799  -1.369269  -0.192568
H    0.437857  -2.423849  0.826551
N    -1.022203  0.181496  1.785001
C    -1.514302  1.110079  2.817088
C    -3.027572  0.798810  2.897454
O    -3.651245  0.767089  1.823062
H    -1.721135  0.051032  1.044141
H    -0.988085  0.911077  3.759621
C    -1.297448  2.571712  2.347542
C    -1.954321  3.655475  3.222379
C    -3.419951  4.015109  2.922059
N    -3.613024  4.623764  1.598424
C    -4.552845  4.280018  0.690759
N    -4.984475  5.205970  -0.176130
N    -5.033125  3.035392  0.631875
H    -1.661171  2.655386  1.312240
H    -0.213372  2.745646  2.306325
H    -1.353839  4.571890  3.128480
H    -1.895086  3.389090  4.289285
H    -3.759052  4.734389  3.682293
H    -4.089632  3.153080  2.998017
H    -3.212493  5.550034  1.475601
H    -5.513067  4.948705  -1.002355
H    -4.872542  6.197491  0.002921
H    -5.856907  2.837845  0.075184
H    -4.557651  2.237556  1.066198
N    -3.562952  0.614224  4.108260
C    -4.984916  0.344758  4.338932
H    -2.955955  0.659494  4.920795
H    -5.088170  -0.477793  5.054641
H    -5.447786  0.061020  3.390076
H    -5.487229  1.232798  4.743807
Sr    2.984360  -0.947688  3.480716
