37
Energy: -108386.934896 eV PBE+vdW (tier 2 basis)
C    0.249557  1.495243  -0.392672
C    0.042845  0.745122  0.876793
O    1.028429  0.360486  1.574701
H    0.787966  2.436267  -0.213266
H    -0.670642  1.689361  -0.950126
H    0.915332  0.883268  -1.021822
N    -1.210313  0.424620  1.302412
C    -2.299998  1.395170  1.396003
C    -1.922036  2.379467  2.553742
O    -0.892739  2.158751  3.267300
H    -1.198996  -0.247709  2.071374
H    -2.326859  1.975653  0.461416
C    -3.647048  0.641923  1.573478
C    -4.920260  1.393681  1.144375
C    -6.129093  0.440284  1.097902
N    -7.328672  1.126468  0.610924
C    -8.600492  0.723107  0.822831
N    -9.608932  1.520129  0.455246
N    -8.856706  -0.444983  1.421758
H    -3.742212  0.297248  2.615041
H    -3.552981  -0.259868  0.950529
H    -4.767463  1.827504  0.142382
H    -5.158626  2.219505  1.832167
H    -6.339854  0.059602  2.107806
H    -5.889469  -0.421113  0.451739
H    -7.201613  1.825830  -0.114907
H    -9.463420  2.497278  0.228919
H    -10.561617  1.175148  0.400849
H    -9.798211  -0.677141  1.721515
H    -8.182641  -1.200544  1.427569
N    -2.683157  3.441103  2.753261
C    -2.454199  4.452546  3.794196
H    -3.459380  3.598202  2.116548
H    -1.590760  5.079252  3.537862
H    -2.283288  3.965414  4.759664
H    -3.342720  5.085586  3.863279
Sr    1.254159  1.290374  3.687965
