37
Energy: -108386.411050 eV PBE+vdW (tier 2 basis)
C    0.125296  -0.451206  0.453808
C    -0.245104  0.575442  1.466759
O    0.367730  1.718781  1.461800
H    -0.362103  -0.197260  -0.500325
H    -0.185556  -1.462281  0.732619
H    1.210526  -0.443561  0.299393
N    -1.172577  0.354336  2.381687
C    -2.198483  -0.713269  2.370139
C    -2.927465  -0.625367  0.990605
O    -3.016599  0.474465  0.448893
H    -1.378366  1.147024  2.990347
H    -1.697572  -1.678553  2.524676
C    -3.164659  -0.392332  3.537832
C    -4.363626  -1.325231  3.777364
C    -4.060613  -2.605441  4.568139
N    -5.322312  -3.286346  4.884846
C    -5.448438  -4.518553  5.411662
N    -6.661477  -5.073486  5.511629
N    -4.365911  -5.203478  5.803265
H    -3.572619  0.609933  3.334396
H    -2.570965  -0.315298  4.462950
H    -4.864162  -1.572043  2.830303
H    -5.091703  -0.738272  4.358258
H    -3.526235  -2.341470  5.496923
H    -3.425812  -3.296953  3.993725
H    -6.167469  -2.723988  4.845404
H    -6.819466  -5.900354  6.077305
H    -7.469029  -4.682086  5.040488
H    -4.443590  -6.172820  6.091974
H    -3.496892  -4.734354  6.025123
N    -3.434722  -1.757341  0.450700
C    -3.338096  -3.144582  0.889526
H    -3.946166  -1.584203  -0.414087
H    -3.277259  -3.791470  0.007411
H    -4.214269  -3.456210  1.476357
H    -2.431325  -3.314386  1.480788
Sr    1.347993  3.589696  0.891132
