37
Energy: -108386.077974 eV PBE+vdW (tier 2 basis)
C    0.083255  0.107120  -0.337355
C    0.092656  0.360788  1.131253
O    1.248361  0.605602  1.677119
H    0.756778  -0.725279  -0.571072
H    0.461564  1.013945  -0.835557
H    -0.897485  -0.127131  -0.745305
N    -0.990491  0.552192  1.893987
C    -2.262330  -0.196183  1.829433
C    -1.836047  -1.703733  1.936261
O    -0.767965  -2.027578  1.406447
H    -0.749766  0.849251  2.839237
H    -2.809560  0.128329  2.723804
C    -3.132130  0.089150  0.576469
C    -4.604370  -0.360988  0.662356
C    -5.567424  0.512502  1.490968
N    -6.084100  1.697117  0.792469
C    -7.277659  1.788245  0.172569
N    -7.778447  2.995105  -0.117964
N    -7.968176  0.690364  -0.155613
H    -2.698552  -0.427298  -0.287425
H    -3.071105  1.166896  0.360982
H    -4.659212  -1.390849  1.038545
H    -4.983340  -0.415229  -0.368535
H    -5.097866  0.874805  2.416599
H    -6.430192  -0.084785  1.815144
H    -5.555127  2.559352  0.862832
H    -8.562444  3.101049  -0.752966
H    -7.454012  3.834126  0.348896
H    -7.539655  -0.225174  -0.193463
H    -8.936939  0.753448  -0.449881
N    -2.629343  -2.583794  2.571883
C    -3.811326  -2.384083  3.405888
H    -2.275039  -3.539114  2.521948
H    -3.662916  -2.882764  4.371405
H    -4.706638  -2.810927  2.934722
H    -3.982860  -1.321870  3.602410
Sr    3.387317  0.487110  2.098782
