37
Energy: -108387.841132 eV PBE+vdW (tier 2 basis)
C    -0.070986  0.614496  0.707294
C    -0.545150  0.124641  2.037367
O    -0.594426  -1.116882  2.282802
H    -0.721667  0.195058  -0.073678
H    0.938807  0.227334  0.514007
H    -0.057509  1.705395  0.614228
N    -0.913216  1.045579  2.948984
C    -1.510154  0.866438  4.293529
C    -0.551573  0.145377  5.269805
O    -0.306032  -1.093765  5.158844
H    -0.788437  2.010205  2.654877
H    -1.631635  1.892945  4.665607
C    -2.900699  0.187307  4.268954
C    -4.026166  0.983055  3.572858
C    -4.746729  1.999953  4.475269
N    -5.837452  2.649509  3.741820
C    -6.990003  3.114358  4.267147
N    -7.996578  3.442189  3.450709
N    -7.141846  3.227630  5.591913
H    -3.183358  -0.036964  5.308979
H    -2.804924  -0.784040  3.767078
H    -4.773975  0.264567  3.210321
H    -3.631440  1.488163  2.676331
H    -4.046282  2.759689  4.862728
H    -5.183697  1.475402  5.337113
H    -5.688813  2.838783  2.755219
H    -8.025939  3.133030  2.485740
H    -8.782785  3.994482  3.777268
H    -8.053562  3.423044  5.992824
H    -6.347448  3.313470  6.213339
N    -0.031591  0.870183  6.248095
C    0.860755  0.361910  7.295530
H    -0.239754  1.865348  6.270069
H    0.653608  -0.696772  7.471592
H    0.680512  0.928347  8.214478
H    1.909551  0.490846  6.997629
Sr    -0.043404  -2.833312  3.680330
