37
Energy: -108386.623213 eV PBE+vdW (tier 2 basis)
C    0.118306  0.295215  0.605065
C    -0.149712  1.334542  1.640608
O    0.840187  1.734622  2.389613
H    0.920495  0.639930  -0.061946
H    -0.755956  0.044310  -0.000591
H    0.475639  -0.621151  1.096299
N    -1.336393  1.861898  1.830325
C    -2.577785  1.731560  1.048322
C    -3.282154  3.091416  1.332832
O    -2.989773  3.685980  2.378804
H    -1.475423  2.622742  2.529099
H    -2.324642  1.646294  -0.016970
C    -3.446077  0.514311  1.459630
C    -4.021406  0.525809  2.893655
C    -5.456167  1.045789  3.058244
N    -6.436446  0.074254  2.547791
C    -7.763023  0.293859  2.454223
N    -8.554094  -0.644214  1.920446
N    -8.286183  1.459056  2.855577
H    -2.832353  -0.386674  1.319943
H    -4.255136  0.431393  0.718355
H    -3.390644  1.129386  3.560252
H    -3.974620  -0.492746  3.307590
H    -5.595675  1.995990  2.522398
H    -5.633336  1.232192  4.129900
H    -6.143997  -0.898392  2.523581
H    -9.563680  -0.595390  2.003962
H    -8.175452  -1.450156  1.437146
H    -9.265022  1.670994  2.694148
H    -7.794548  2.061124  3.504550
N    -4.190188  3.496805  0.434294
C    -4.929956  4.755884  0.547294
H    -4.284470  2.972701  -0.430811
H    -5.996019  4.580257  0.363606
H    -4.559796  5.485231  -0.183868
H    -4.786779  5.155912  1.554590
Sr    2.683749  2.355602  3.374213
