37
Energy: -108387.778451 eV PBE+vdW (tier 2 basis)
C    0.106395  2.149596  1.511720
C    -0.151351  0.710917  1.822826
O    0.735757  -0.164124  1.588853
H    1.023766  2.476515  2.019504
H    -0.714449  2.818510  1.790084
H    0.293896  2.244493  0.432040
N    -1.344403  0.390457  2.354036
C    -1.953603  -0.930413  2.637972
C    -1.156258  -1.746149  3.682459
O    -0.032511  -2.267540  3.408902
H    -1.963834  1.181083  2.513198
H    -2.911582  -0.670697  3.110011
C    -2.286688  -1.730081  1.355063
C    -3.217993  -2.925115  1.625685
C    -3.741608  -3.657941  0.379626
N    -4.808722  -2.911204  -0.302325
C    -5.311741  -3.232449  -1.516877
N    -6.254702  -2.457215  -2.062170
N    -4.846675  -4.290403  -2.189156
H    -1.359149  -2.070157  0.872211
H    -2.759296  -1.023162  0.657749
H    -4.079158  -2.606589  2.237504
H    -2.696075  -3.680261  2.231508
H    -4.113865  -4.645262  0.697697
H    -2.923621  -3.820221  -0.338096
H    -5.423857  -2.359703  0.289637
H    -6.789092  -2.763099  -2.868779
H    -6.483262  -1.545402  -1.684103
H    -5.125956  -4.457465  -3.150696
H    -4.374601  -5.053534  -1.719546
N    -1.724039  -1.906504  4.868248
C    -1.155716  -2.668199  5.984674
H    -2.612159  -1.441074  5.039921
H    -1.975156  -3.102753  6.565604
H    -0.570296  -2.007639  6.637851
H    -0.517033  -3.466646  5.597864
Sr    1.982010  -1.896993  2.353726
