37
Energy: -108385.644750 eV PBE+vdW (tier 2 basis)
C    0.096080  0.675003  0.409119
C    -0.057269  -0.021142  1.716287
O    1.032784  -0.366914  2.344043
H    -0.828534  1.086881  0.008952
H    0.504416  -0.039690  -0.321933
H    0.827262  1.486816  0.515100
N    -1.209608  -0.337965  2.286372
C    -2.670704  -0.141428  2.011450
C    -3.417823  -1.504995  1.908939
O    -4.423020  -1.641135  2.617142
H    -1.075817  -0.832469  3.171048
H    -3.034628  0.254720  2.969871
C    -3.089265  0.843247  0.908200
C    -4.615331  1.045085  0.745431
C    -5.407523  1.692328  1.898334
N    -5.957349  0.707572  2.833466
C    -7.116278  0.832113  3.493663
N    -7.655927  -0.249004  4.076106
N    -7.746449  2.011667  3.578336
H    -2.727037  0.504852  -0.071517
H    -2.623063  1.818822  1.114569
H    -5.103852  0.105451  0.449807
H    -4.721763  1.709038  -0.122676
H    -6.246587  2.244598  1.452929
H    -4.783223  2.429961  2.431333
H    -5.467182  -0.197100  2.902112
H    -8.424760  -0.170648  4.731022
H    -7.323825  -1.180532  3.857966
H    -8.691083  2.076382  3.939876
H    -7.282716  2.882102  3.354222
N    -3.007489  -2.464926  1.059167
C    -1.925949  -2.461229  0.080759
H    -3.597209  -3.296049  1.089549
H    -2.143372  -3.225247  -0.672151
H    -0.955602  -2.707565  0.536166
H    -1.858418  -1.502180  -0.444806
Sr    3.093160  -0.647631  3.069865
