37
Energy: -108385.967690 eV PBE+vdW (tier 2 basis)
C    0.312358  1.237173  2.811085
C    0.094642  -0.062136  2.108301
O    1.096766  -0.853868  1.873408
H    0.154238  2.081006  2.120797
H    1.332680  1.299264  3.198171
H    -0.390984  1.370185  3.644456
N    -1.119043  -0.419755  1.718276
C    -2.343063  0.412705  1.789241
C    -3.120465  0.470753  3.130575
O    -3.925911  1.403338  3.213342
H    -1.195501  -1.323880  1.251383
H    -2.012544  1.450629  1.655685
C    -3.297235  0.090314  0.612325
C    -4.259155  -1.103103  0.769948
C    -5.632419  -0.799414  1.402146
N    -6.440788  0.130095  0.605649
C    -7.013423  1.274707  1.039560
N    -8.081288  1.749889  0.383527
N    -6.519628  1.941813  2.083309
H    -2.676115  -0.040232  -0.285745
H    -3.875871  1.003878  0.420195
H    -3.807449  -1.920425  1.355773
H    -4.433211  -1.535001  -0.226076
H    -5.543144  -0.392369  2.414089
H    -6.188757  -1.743499  1.495054
H    -6.799702  -0.229812  -0.274309
H    -8.640388  1.161328  -0.223160
H    -8.413231  2.695942  0.534131
H    -7.055552  2.691791  2.505023
H    -5.586866  1.758608  2.467512
N    -2.957098  -0.414613  4.135803
C    -2.191136  -1.653799  4.230843
H    -3.533406  -0.178741  4.943381
H    -2.588935  -2.229118  5.072708
H    -1.125222  -1.472207  4.428702
H    -2.304953  -2.276113  3.335335
Sr    3.106926  -1.712364  1.571245
