37
Energy: -108386.696036 eV PBE+vdW (tier 2 basis)
C    -0.240151  0.294942  1.046754
C    -0.750555  0.273165  2.451923
O    -0.295281  1.108304  3.291513
H    0.557735  -0.451684  0.911659
H    0.193224  1.282612  0.855965
H    -1.023477  0.094806  0.310591
N    -1.721957  -0.586767  2.871483
C    -1.714452  -2.051402  2.707954
C    -0.567607  -2.576890  3.629206
O    0.413570  -1.806970  3.902886
H    -2.082731  -0.305371  3.785018
H    -2.672264  -2.385767  3.130953
C    -1.659625  -2.528369  1.229323
C    -2.297738  -3.898379  0.933751
C    -2.470289  -4.106188  -0.582053
N    -3.147201  -5.375320  -0.863398
C    -3.100092  -6.047467  -2.033862
N    -3.628097  -7.273558  -2.106103
N    -2.504604  -5.512823  -3.105792
H    -0.625789  -2.513423  0.858652
H    -2.216446  -1.769219  0.662089
H    -3.288892  -3.952069  1.412893
H    -1.689531  -4.720084  1.334705
H    -1.485265  -4.129961  -1.070558
H    -3.042346  -3.263743  -1.006846
H    -3.868588  -5.670831  -0.212087
H    -3.805287  -7.720379  -2.999734
H    -3.863480  -7.804567  -1.275541
H    -2.333230  -6.072666  -3.934913
H    -2.387679  -4.512093  -3.205980
N    -0.612659  -3.787562  4.164778
C    -1.672095  -4.799971  4.167996
H    0.211800  -4.022187  4.720794
H    -1.806961  -5.153861  5.196685
H    -1.388818  -5.653680  3.540887
H    -2.619119  -4.382016  3.819370
Sr    1.301449  0.222168  4.707098
