37
Energy: -108387.906001 eV PBE+vdW (tier 2 basis)
C    -0.079588  -2.307702  0.282165
C    -0.197800  -1.168600  1.237690
O    0.698829  -0.274797  1.303357
H    0.879235  -2.820640  0.435406
H    -0.060319  -1.903190  -0.740882
H    -0.894661  -3.034485  0.361025
N    -1.287005  -1.100155  2.025507
C    -1.640175  0.026611  2.908848
C    -0.730471  0.011599  4.164609
O    0.396728  0.590081  4.105178
H    -1.966520  -1.851962  1.933487
H    -1.358571  0.949187  2.378384
C    -3.167944  0.048101  3.129543
C    -3.676101  1.307317  3.859182
C    -5.152659  1.662839  3.623181
N    -6.092031  0.745024  4.283807
C    -7.417033  0.688080  4.005057
N    -8.181737  -0.204113  4.643107
N    -7.955483  1.483837  3.076829
H    -3.504713  -0.871564  3.637399
H    -3.617740  0.009215  2.125291
H    -3.110307  2.182209  3.504740
H    -3.475642  1.251716  4.940706
H    -5.363872  1.644547  2.544019
H    -5.313356  2.692770  3.981343
H    -5.836547  0.429264  5.215544
H    -7.782752  -0.961356  5.185028
H    -9.194611  -0.155989  4.603451
H    -8.910528  1.343326  2.762422
H    -7.508544  2.344775  2.785478
N    -1.135831  -0.620665  5.252980
C    -0.359856  -0.755912  6.490936
H    -2.036876  -1.089692  5.217686
H    0.221790  -1.687015  6.477969
H    -1.049522  -0.779615  7.340200
H    0.314558  0.098244  6.592688
Sr    2.093656  1.003708  2.575638
