37
Energy: -108387.793074 eV PBE+vdW (tier 2 basis)
C    1.290072  -1.838056  1.988140
C    0.712991  -0.459287  1.960193
O    1.473252  0.554843  1.977408
H    0.538913  -2.634641  1.978652
H    1.912413  -1.941016  2.888616
H    1.960606  -1.971107  1.127855
N    -0.626830  -0.343838  1.913969
C    -1.490716  0.857483  1.990723
C    -1.274808  1.830859  0.810553
O    -0.211399  2.511622  0.688115
H    -1.128534  -1.227315  1.876809
H    -2.504671  0.449037  1.877590
C    -1.447076  1.578250  3.362269
C    -1.933518  0.671870  4.509138
C    -1.936627  1.295319  5.917176
N    -3.120023  2.118190  6.195047
C    -3.710651  2.248103  7.402781
N    -4.918294  2.818799  7.485073
N    -3.111223  1.799350  8.510131
H    -2.075742  2.477777  3.267585
H    -0.426011  1.931028  3.567274
H    -1.275778  -0.207153  4.568114
H    -2.941101  0.283704  4.292309
H    -1.015578  1.878772  6.082597
H    -1.940485  0.472826  6.644144
H    -3.471018  2.726932  5.463502
H    -5.526292  2.901802  6.678772
H    -5.298018  3.120419  8.376458
H    -3.622623  1.726766  9.383929
H    -2.110465  1.652472  8.557655
N    -2.275749  1.952887  -0.047975
C    -2.291640  2.854447  -1.204655
H    -3.091336  1.358384  0.078813
H    -1.688938  3.740599  -0.988499
H    -3.325931  3.153237  -1.400754
H    -1.895447  2.343236  -2.091881
Sr    2.067279  2.508400  0.969376
