37
Energy: -108386.656606 eV PBE+vdW (tier 2 basis)
C    -0.742390  1.523872  -0.254005
C    -0.376585  1.156444  1.144858
O    0.741218  1.619499  1.634995
H    0.074372  1.236433  -0.930426
H    -0.856270  2.614964  -0.328951
H    -1.664976  1.053103  -0.602188
N    -1.128151  0.393799  1.901417
C    -2.520301  -0.046195  1.716708
C    -3.025544  -0.111826  3.195437
O    -2.171442  -0.180963  4.091110
H    -0.887054  0.223876  2.907090
H    -3.068516  0.727870  1.163472
C    -2.688830  -1.397316  0.978115
C    -2.301161  -2.661548  1.762037
C    -2.693454  -3.927283  0.986794
N    -2.432876  -5.131926  1.782827
C    -2.467347  -6.394726  1.316687
N    -2.095253  -7.404179  2.113503
N    -2.843953  -6.645318  0.057564
H    -2.130214  -1.347876  0.030760
H    -3.750505  -1.459620  0.693894
H    -2.820035  -2.663849  2.733701
H    -1.222343  -2.676867  1.976203
H    -2.115981  -3.995990  0.052413
H    -3.763734  -3.873094  0.722657
H    -2.395912  -5.022467  2.791490
H    -2.284009  -8.369372  1.866614
H    -1.608623  -7.242557  2.987017
H    -2.746151  -7.572992  -0.340628
H    -3.366110  -5.970493  -0.486724
N    -4.349491  -0.125673  3.378964
C    -4.986130  -0.189988  4.697648
H    -4.954474  0.006474  2.573679
H    -5.758595  -0.966975  4.698868
H    -5.447590  0.773941  4.944896
H    -4.222827  -0.426415  5.443210
Sr    2.485033  2.720472  2.328961
