37
Energy: -108387.778526 eV PBE+vdW (tier 2 basis)
C    -1.291918  1.569386  0.942908
C    -0.838686  0.665666  2.042204
O    -0.243227  -0.421331  1.777031
H    -2.015922  1.023665  0.319796
H    -0.440435  1.813936  0.293732
H    -1.754211  2.497821  1.293613
N    -1.086019  1.044372  3.309310
C    -0.880588  0.305812  4.578679
C    0.621979  0.037330  4.841743
O    1.249805  -0.869877  4.218075
H    -1.552610  1.942596  3.405905
H    -1.222287  1.013198  5.346928
C    -1.743556  -0.974063  4.680127
C    -2.014814  -1.476699  6.117322
C    -3.293283  -0.891689  6.743506
N    -3.530176  -1.462480  8.072439
C    -4.732941  -1.651458  8.655020
N    -4.817381  -2.411440  9.751791
N    -5.838526  -1.106788  8.134253
H    -1.260531  -1.775881  4.107450
H    -2.694141  -0.772462  4.166154
H    -1.148665  -1.271315  6.768414
H    -2.119933  -2.569464  6.089359
H    -4.153208  -1.148292  6.108227
H    -3.238299  0.208977  6.805504
H    -2.718678  -1.661337  8.649674
H    -4.073906  -3.045136  10.022531
H    -5.645445  -2.401902  10.338386
H    -6.756766  -1.377204  8.471829
H    -5.800277  -0.292925  7.533329
N    1.215394  0.786463  5.759280
C    2.626316  0.686545  6.146822
H    0.669360  1.520954  6.202833
H    2.963313  -0.348503  6.043506
H    2.726652  1.002401  7.189590
H    3.243108  1.341556  5.517366
Sr    1.490504  -1.839430  2.132360
