37
Energy: -108387.669697 eV PBE+vdW (tier 2 basis)
C    0.413502  -1.056730  1.166914
C    -0.013789  -0.080141  2.210648
O    0.638345  0.987025  2.412229
H    1.460660  -1.341968  1.334181
H    0.375583  -0.558718  0.186605
H    -0.204537  -1.959851  1.130435
N    -1.119750  -0.350235  2.930959
C    -1.758289  0.572578  3.885613
C    -0.933519  0.635116  5.198588
O    0.027655  1.461893  5.258331
H    -1.588327  -1.229648  2.731043
H    -1.630635  1.580704  3.464667
C    -3.290539  0.349310  3.957467
C    -3.848495  -1.016642  4.410905
C    -5.285681  -1.312808  3.943166
N    -6.287745  -0.449654  4.581658
C    -7.565013  -0.316669  4.149833
N    -8.377090  0.544898  4.770300
N    -8.005059  -1.007338  3.094080
H    -3.656313  0.557636  2.940107
H    -3.698908  1.153162  4.585746
H    -3.821209  -1.122222  5.508414
H    -3.246853  -1.852517  4.019999
H    -5.501224  -2.372721  4.155313
H    -5.352464  -1.164068  2.855357
H    -6.135435  -0.213940  5.558361
H    -8.025239  1.242006  5.416014
H    -9.378761  0.538215  4.607306
H    -8.909319  -0.802119  2.680434
H    -7.555572  -1.861692  2.787488
N    -1.213214  -0.164711  6.213482
C    -0.469646  -0.194479  7.479751
H    -1.970104  -0.831615  6.101909
H    -1.102586  -0.652368  8.244920
H    -0.213298  0.825542  7.781356
H    0.447849  -0.787612  7.373013
Sr    1.615018  2.440380  3.881413
