37
Energy: -108386.645787 eV PBE+vdW (tier 2 basis)
C    -0.213272  1.026623  -0.774707
C    -0.092017  0.704089  0.677550
O    1.092098  0.721125  1.218265
H    0.127961  2.057579  -0.948492
H    -1.226640  0.927700  -1.170242
H    0.446537  0.361546  -1.348859
N    -1.134268  0.411302  1.426444
C    -2.566910  0.437173  1.068587
C    -3.282058  0.737522  2.405317
O    -2.809964  0.240221  3.446147
H    -1.001878  0.204711  2.427608
H    -2.728859  1.251772  0.351685
C    -3.061468  -0.896378  0.443416
C    -3.187186  -2.110585  1.385939
C    -4.581862  -2.233038  2.030978
N    -4.675173  -3.297922  3.028028
C    -4.630979  -3.134661  4.361957
N    -5.010854  -4.145455  5.155782
N    -4.217765  -1.981543  4.902166
H    -2.379714  -1.141540  -0.382862
H    -4.030622  -0.686393  -0.034664
H    -2.417452  -2.085620  2.170495
H    -2.997557  -3.021578  0.802335
H    -5.330530  -2.446982  1.255549
H    -4.900021  -1.298979  2.510362
H    -4.845467  -4.239908  2.689482
H    -4.830227  -4.131817  6.152801
H    -5.552385  -4.925567  4.801334
H    -4.358910  -1.811242  5.890938
H    -3.724221  -1.258244  4.372942
N    -4.392817  1.476330  2.338407
C    -5.225876  1.807858  3.496026
H    -4.680673  1.841849  1.434867
H    -6.094307  1.138632  3.558474
H    -4.624809  1.716443  4.405026
H    -5.582162  2.838374  3.398709
Sr    3.213860  1.004895  1.687588
