37
Energy: -108387.990659 eV PBE+vdW (tier 2 basis)
C    0.668193  -1.259171  -0.085367
C    0.217446  -0.455698  1.087801
O    0.854183  0.577448  1.455805
H    0.627552  -0.620012  -0.980111
H    0.065017  -2.155587  -0.262698
H    1.718982  -1.549425  0.046096
N    -0.891395  -0.844099  1.743059
C    -1.577504  -0.096141  2.814967
C    -0.763675  -0.213195  4.129870
O    0.193252  0.596066  4.328734
H    -1.346707  -1.690000  1.406627
H    -1.527386  0.970823  2.548813
C    -3.055927  -0.533643  2.854275
C    -3.985671  0.341546  3.714144
C    -5.435193  -0.182102  3.665344
N    -6.358949  0.593836  4.499518
C    -7.529790  1.148003  4.115553
N    -8.476728  1.372427  5.031614
N    -7.751939  1.486665  2.840191
H    -3.134064  -1.591350  3.162892
H    -3.410618  -0.512238  1.811841
H    -3.958189  1.382294  3.358197
H    -3.644715  0.359610  4.761135
H    -5.469439  -1.230038  4.003131
H    -5.814480  -0.185341  2.635751
H    -6.228326  0.519336  5.504539
H    -8.481486  0.894261  5.925926
H    -9.258485  1.991531  4.842160
H    -8.683376  1.734719  2.523514
H    -6.995574  1.622405  2.182750
N    -1.062229  -1.164402  4.998148
C    -0.337227  -1.419827  6.248170
H    -1.822088  -1.798278  4.765249
H    0.518245  -2.083614  6.066398
H    -1.016582  -1.903817  6.955743
H    0.015581  -0.473576  6.667906
Sr    1.833291  1.738582  3.152317
