37
Energy: -108387.694488 eV PBE+vdW (tier 2 basis)
C    2.511173  -0.105206  2.119789
C    1.164739  -0.413451  2.686553
O    0.680061  0.283378  3.626318
H    2.487392  0.911798  1.701045
H    2.831634  -0.803844  1.339888
H    3.259232  -0.095452  2.923613
N    0.473466  -1.445043  2.164272
C    -0.917247  -1.809817  2.478589
C    -0.984160  -2.574791  3.829229
O    -0.814813  -1.909372  4.896427
H    0.947629  -1.986262  1.447153
H    -1.437007  -0.866378  2.705030
C    -1.641867  -2.421828  1.250798
C    -0.925733  -3.523006  0.441302
C    -1.805920  -4.230982  -0.605915
N    -2.154948  -3.366142  -1.740517
C    -3.122465  -3.649105  -2.645651
N    -3.402478  -2.758047  -3.601774
N    -3.819104  -4.786878  -2.567915
H    -1.876744  -1.582613  0.581213
H    -2.618126  -2.788954  1.602913
H    -0.533965  -4.325163  1.086551
H    -0.037123  -3.121061  -0.074126
H    -2.742190  -4.567385  -0.136357
H    -1.262867  -5.123169  -0.957787
H    -1.440426  -2.717961  -2.060009
H    -3.971999  -3.005521  -4.404554
H    -3.064771  -1.803583  -3.559514
H    -3.460774  -5.601721  -2.084537
H    -4.637763  -4.934328  -3.150192
N    -1.233427  -3.872408  3.855268
C    -1.341060  -4.692030  5.068129
H    -1.356964  -4.349079  2.967603
H    -2.134394  -5.432856  4.925438
H    -1.586871  -4.051854  5.918551
H    -0.393125  -5.211153  5.260097
Sr    -0.161586  0.140402  5.748016
