37
Energy: -108386.580504 eV PBE+vdW (tier 2 basis)
C    -2.269979  0.287641  0.521579
C    -1.670181  0.634632  1.850615
O    -0.746068  1.460945  1.965240
H    -2.948008  -0.572232  0.546836
H    -1.460283  0.097615  -0.193642
H    -2.817873  1.162255  0.142978
N    -2.201076  0.020495  2.955262
C    -1.647342  0.087430  4.314283
C    -1.804471  1.491336  4.934166
O    -2.414969  1.640916  6.074165
H    -2.968315  -0.626740  2.807996
H    -2.276125  -0.578196  4.919373
C    -0.171727  -0.394336  4.430278
C    0.076313  -1.787206  3.830785
C    1.529852  -2.242827  4.055498
N    1.806877  -3.577363  3.513941
C    2.684962  -3.899310  2.545069
N    3.135795  -2.980409  1.682030
N    3.108846  -5.164054  2.439010
H    0.085671  -0.394379  5.501468
H    0.488629  0.338483  3.947628
H    -0.139033  -1.780544  2.752672
H    -0.605814  -2.525059  4.282476
H    1.759663  -2.267838  5.131331
H    2.239767  -1.532417  3.612231
H    1.395107  -4.362056  4.010483
H    3.929381  -3.175289  1.081698
H    2.668676  -2.093286  1.552059
H    3.014731  -5.824812  3.201974
H    3.581261  -5.494376  1.604345
N    -1.293991  2.503840  4.287505
C    -1.349365  3.895867  4.713679
H    -0.893354  2.235487  3.328230
H    -0.812796  4.505749  3.981331
H    -0.861700  4.025739  5.690008
H    -2.388464  4.254556  4.756091
Sr    -3.504695  2.323460  7.837137
