37
Energy: -108386.298140 eV PBE+vdW (tier 2 basis)
C    -0.045985  0.142929  0.164165
C    -0.300910  0.135928  1.631926
O    0.644278  0.523214  2.435458
H    -0.857574  -0.285944  -0.427383
H    0.872886  -0.422692  -0.043799
H    0.123382  1.177844  -0.168337
N    -1.451623  -0.263376  2.156449
C    -2.727661  -0.634531  1.472932
C    -2.627070  -1.896810  0.562389
O    -3.451829  -2.060142  -0.336972
H    -1.499041  -0.206419  3.174264
H    -3.371516  -0.960937  2.304655
C    -3.360534  0.638548  0.845165
C    -4.684299  0.523967  0.065487
C    -5.838088  -0.195797  0.782848
N    -7.023400  -0.332232  -0.062980
C    -7.261252  -1.351354  -0.908948
N    -8.461421  -1.447293  -1.497233
N    -6.319470  -2.267538  -1.155387
H    -2.632591  1.101771  0.164840
H    -3.491786  1.346517  1.678260
H    -4.496906  0.042111  -0.899443
H    -5.000204  1.553848  -0.158073
H    -6.149280  0.352742  1.682134
H    -5.550779  -1.204001  1.112100
H    -7.701608  0.422227  -0.049127
H    -8.626322  -2.095128  -2.258581
H    -9.255981  -0.905438  -1.178557
H    -6.553443  -3.111029  -1.665320
H    -5.343365  -2.143794  -0.881953
N    -1.668991  -2.799888  0.852286
C    -1.584609  -4.085290  0.150648
H    -1.119201  -2.687206  1.695778
H    -2.405321  -4.751176  0.446987
H    -0.630044  -4.558715  0.396401
H    -1.639261  -3.919196  -0.930047
Sr    2.447211  1.334751  3.414511
