37
Energy: -108386.773869 eV PBE+vdW (tier 2 basis)
C    0.396399  1.588265  0.756287
C    0.007350  0.784859  1.947027
O    0.764583  0.708446  2.960795
H    0.581165  2.636914  1.026630
H    -0.313861  1.529086  -0.073042
H    1.365078  1.193763  0.408445
N    -1.159121  0.078095  1.962261
C    -2.452710  0.687252  1.652977
C    -2.845196  1.556145  2.891987
O    -2.098507  1.536941  3.929491
H    -1.199053  -0.560621  2.757009
H    -2.296593  1.396754  0.825643
C    -3.483812  -0.349516  1.146456
C    -3.892976  -1.500410  2.082070
C    -4.867128  -2.436672  1.341414
N    -5.296247  -3.562557  2.174445
C    -5.751660  -4.746254  1.707708
N    -5.969185  -5.748062  2.566778
N    -5.958885  -4.933544  0.400312
H    -3.043670  -0.765668  0.228232
H    -4.383854  0.191020  0.825515
H    -4.376152  -1.106468  2.991427
H    -3.019033  -2.090303  2.398604
H    -4.362838  -2.847320  0.454812
H    -5.741816  -1.860099  0.995480
H    -5.471492  -3.377643  3.157515
H    -5.594759  -5.736420  3.508248
H    -6.496331  -6.571175  2.294325
H    -6.139238  -5.861900  0.031433
H    -6.107166  -4.159259  -0.235036
N    -3.904878  2.347283  2.857777
C    -4.826258  2.645190  1.753929
H    -4.071034  2.862206  3.723902
H    -5.715580  2.004383  1.800735
H    -4.331730  2.532815  0.784308
H    -5.146089  3.687730  1.853368
Sr    -0.006973  1.530666  4.991876
