37
Energy: -108386.834031 eV PBE+vdW (tier 2 basis)
C    -0.774690  1.696682  -0.545214
C    -0.371887  0.943951  0.674442
O    0.815782  0.996421  1.111804
H    -0.091083  1.391507  -1.353420
H    -0.617266  2.776224  -0.412407
H    -1.801297  1.504050  -0.868084
N    -1.267228  0.157435  1.335658
C    -2.590254  0.627466  1.749806
C    -2.354381  1.776876  2.784852
O    -1.200474  1.946218  3.293767
H    -0.816179  -0.435288  2.034745
H    -3.102553  1.058894  0.876765
C    -3.408738  -0.584177  2.274861
C    -4.911694  -0.343978  2.498030
C    -5.705292  -1.583822  2.955291
N    -6.019054  -2.516718  1.867091
C    -7.094212  -3.334543  1.835939
N    -7.396933  -3.976173  0.701605
N    -7.865616  -3.491237  2.916177
H    -2.952589  -0.949745  3.209169
H    -3.252333  -1.372698  1.522929
H    -5.382877  0.065875  1.590620
H    -5.054980  0.397861  3.297114
H    -6.660951  -1.234973  3.368179
H    -5.161602  -2.100936  3.763724
H    -5.319985  -2.681030  1.150532
H    -8.059643  -4.744572  0.692441
H    -7.032171  -3.677506  -0.195348
H    -8.764510  -3.957954  2.848426
H    -7.527339  -3.296208  3.850681
N    -3.368642  2.568621  3.087587
C    -3.311144  3.688081  4.037232
H    -4.245542  2.430139  2.591501
H    -4.332164  3.946857  4.331187
H    -2.844804  4.564871  3.569613
H    -2.742688  3.395078  4.925052
Sr    1.148911  1.977386  3.192445
