37
Energy: -108386.179652 eV PBE+vdW (tier 2 basis)
C    -0.982648  2.028814  0.189563
C    -0.378288  1.006320  1.088431
O    0.878671  1.080611  1.409482
H    -1.529252  2.768851  0.797107
H    -1.717570  1.598583  -0.502073
H    -0.209266  2.550737  -0.380672
N    -1.116211  0.028902  1.594930
C    -2.562321  -0.198800  1.356913
C    -3.481948  0.943479  1.887701
O    -4.374706  1.335038  1.145151
H    -0.640089  -0.620356  2.223390
H    -2.722539  -0.171505  0.271833
C    -2.962344  -1.588281  1.907260
C    -4.474547  -1.806104  2.113531
C    -5.397829  -1.833425  0.888088
N    -5.325053  -3.115231  0.168034
C    -6.023209  -3.388530  -0.953079
N    -5.930772  -4.600805  -1.514500
N    -6.775919  -2.444529  -1.527923
H    -2.493903  -1.724021  2.896450
H    -2.535642  -2.362117  1.251345
H    -4.863938  -1.023992  2.779360
H    -4.603945  -2.741177  2.680396
H    -5.158088  -1.015070  0.194291
H    -6.425974  -1.669360  1.249811
H    -5.029501  -3.921356  0.711314
H    -6.559240  -4.889879  -2.255616
H    -5.272652  -5.293912  -1.179981
H    -7.230894  -2.608770  -2.419124
H    -7.035994  -1.600167  -1.033489
N    -3.243829  1.409527  3.135079
C    -4.106322  2.406722  3.776761
H    -2.568323  0.928271  3.719831
H    -3.503889  3.044742  4.431270
H    -4.894951  1.926379  4.370741
H    -4.575254  3.015821  2.998738
Sr    2.999070  1.625021  1.606112
