37
Energy: -108386.388533 eV PBE+vdW (tier 2 basis)
C    -0.458848  1.155017  3.125230
C    -0.092421  -0.051216  2.326245
O    1.131132  -0.485971  2.329702
H    0.288469  1.337826  3.902681
H    -1.446398  1.066684  3.593631
H    -0.489628  2.039657  2.468066
N    -0.998088  -0.679934  1.593251
C    -2.404832  -0.259805  1.386834
C    -3.390600  -0.588776  2.538596
O    -4.237450  0.275774  2.792148
H    -0.672362  -1.494814  1.071993
H    -2.407058  0.836508  1.358976
C    -2.914876  -0.762492  0.016025
C    -4.261419  -0.138056  -0.413644
C    -5.514984  -0.924613  0.020399
N    -6.756882  -0.217692  -0.282985
C    -7.447365  0.568222  0.564609
N    -8.655962  1.015903  0.196478
N    -6.948398  0.902567  1.758152
H    -2.981139  -1.862447  0.008119
H    -2.155686  -0.488596  -0.730803
H    -4.265577  -0.067094  -1.509622
H    -4.327810  0.895252  -0.043501
H    -5.511975  -1.158193  1.091984
H    -5.555764  -1.888741  -0.504678
H    -7.124177  -0.305253  -1.225059
H    -9.144370  1.721602  0.734978
H    -9.146992  0.631455  -0.602009
H    -7.540717  1.354140  2.445121
H    -5.986229  0.704892  2.040633
N    -3.351516  -1.773546  3.182602
C    -2.519332  -2.949626  2.947562
H    -4.053106  -1.847445  3.917999
H    -3.014389  -3.814255  3.400769
H    -1.525975  -2.855346  3.408525
H    -2.416097  -3.168241  1.877657
Sr    3.309803  -0.734139  2.553211
