37
Energy: -108385.670158 eV PBE+vdW (tier 2 basis)
C    0.118195  0.379763  -0.552120
C    -0.004633  0.812531  0.871951
O    1.060607  0.984597  1.595618
H    -0.250331  -0.650907  -0.676592
H    1.162320  0.409273  -0.874435
H    -0.476738  1.015796  -1.221778
N    -1.195245  1.027200  1.408728
C    -2.504812  0.756099  0.773521
C    -3.139453  1.838565  -0.146936
O    -4.143065  1.460699  -0.754607
H    -1.203181  1.330824  2.382892
H    -2.329973  -0.068518  0.069682
C    -3.522749  0.218230  1.808715
C    -4.270736  1.198202  2.730471
C    -5.363460  2.080238  2.085440
N    -6.268857  1.371111  1.181934
C    -7.563547  1.084460  1.392580
N    -8.342213  0.773860  0.348037
N    -8.090564  1.096860  2.624088
H    -2.997302  -0.523676  2.427750
H    -4.255597  -0.363087  1.234124
H    -3.580780  1.876743  3.259593
H    -4.727985  0.583847  3.519788
H    -4.915648  2.897956  1.505569
H    -5.948506  2.569822  2.874437
H    -5.895170  1.222496  0.241460
H    -8.055712  0.974644  -0.602789
H    -9.257673  0.357454  0.475236
H    -9.093784  1.056035  2.763652
H    -7.513253  1.101009  3.454052
N    -2.628418  3.079316  -0.316313
C    -1.603147  3.819877  0.412695
H    -3.147784  3.604389  -1.019134
H    -1.741018  4.883674  0.195033
H    -0.585112  3.549753  0.097105
H    -1.702774  3.698571  1.498244
Sr    3.116631  0.944477  2.389872
