37
Energy: -108388.077018 eV PBE+vdW (tier 2 basis)
C    -4.352572  2.289617  4.981851
C    -3.409091  1.540946  4.101679
O    -3.315773  1.808717  2.865863
H    -4.379343  1.920752  6.012414
H    -5.364372  2.252273  4.556911
H    -4.053429  3.348538  4.990650
N    -2.645897  0.578827  4.651327
C    -1.551288  -0.152893  3.983825
C    -2.147992  -1.194544  3.002610
O    -2.462282  -0.817935  1.832339
H    -2.779956  0.403306  5.644841
H    -1.024642  0.568628  3.340524
C    -0.573975  -0.665743  5.061235
C    0.764147  -1.216609  4.536273
C    1.698660  -1.589491  5.700919
N    2.990653  -2.078858  5.212780
C    4.140362  -2.089907  5.920815
N    4.144037  -1.781724  7.222197
N    5.288028  -2.386564  5.301974
H    -1.070042  -1.413114  5.705327
H    -0.367860  0.193270  5.718605
H    1.258421  -0.459132  3.909648
H    0.596486  -2.101659  3.901823
H    1.216019  -2.349192  6.339375
H    1.886002  -0.699157  6.318939
H    2.997920  -2.600633  4.341767
H    5.017993  -1.634792  7.717020
H    3.310920  -1.858652  7.792528
H    5.370939  -2.371416  4.292044
H    6.128147  -2.607316  5.826388
N    -2.340522  -2.437082  3.411705
C    -2.946790  -3.505671  2.609056
H    -2.093442  -2.663366  4.371628
H    -4.033566  -3.529532  2.763631
H    -2.523161  -4.464990  2.921319
H    -2.729100  -3.335620  1.551300
Sr    -3.290639  1.043720  0.721872
