37
Energy: -108386.049318 eV PBE+vdW (tier 2 basis)
C    -0.622536  0.530769  -0.481718
C    -0.214118  0.470312  0.953826
O    1.027621  0.670761  1.285331
H    -0.894024  -0.471580  -0.848979
H    0.196791  0.909856  -1.098452
H    -1.500217  1.175209  -0.626377
N    -1.109618  0.214097  1.897856
C    -2.537532  -0.104262  1.670981
C    -3.520730  1.108978  1.602045
O    -4.689041  0.834769  1.374929
H    -0.762328  0.183054  2.857160
H    -2.592732  -0.547427  0.668664
C    -3.084929  -1.168656  2.646654
C    -3.540733  -0.688612  4.037925
C    -4.534861  -1.699384  4.630894
N    -5.044488  -1.267190  5.935830
C    -6.230412  -1.623389  6.464638
N    -6.665578  -1.016931  7.576745
N    -6.985806  -2.560324  5.881582
H    -2.363194  -1.995228  2.724865
H    -3.958678  -1.577213  2.121010
H    -4.047058  0.283372  3.955784
H    -2.684244  -0.562758  4.720623
H    -4.065822  -2.694053  4.714450
H    -5.391430  -1.781648  3.946515
H    -4.404154  -0.779246  6.554114
H    -7.439739  -1.392427  8.113171
H    -6.264263  -0.144682  7.899114
H    -7.947113  -2.707959  6.169089
H    -6.598466  -3.225688  5.224541
N    -3.024138  2.355666  1.770798
C    -3.867166  3.551681  1.699040
H    -2.053104  2.472011  2.033398
H    -3.413270  4.293369  1.032296
H    -4.003831  3.994696  2.693500
H    -4.842328  3.257506  1.301061
Sr    3.207804  0.942842  1.168436
