37
Energy: -108387.746309 eV PBE+vdW (tier 2 basis)
C    -0.590397  -0.280225  -0.456218
C    -0.788080  -0.260927  1.024319
O    -0.323914  -1.193285  1.746735
H    0.482807  -0.346179  -0.681224
H    -1.011518  0.588976  -0.971814
H    -1.053143  -1.193098  -0.858961
N    -1.467898  0.772496  1.552458
C    -1.943669  1.001297  2.937475
C    -0.775753  1.079975  3.944025
O    -0.189515  0.029339  4.355359
H    -1.791977  1.460044  0.876749
H    -2.392922  2.000291  2.888400
C    -3.064882  0.023387  3.362309
C    -3.921507  0.551749  4.529127
C    -5.204105  -0.274413  4.721401
N    -6.040072  0.300495  5.780531
C    -7.072626  -0.321739  6.387428
N    -7.650058  0.247760  7.450293
N    -7.498523  -1.513978  5.953964
H    -2.642550  -0.962343  3.603154
H    -3.700980  -0.116725  2.476015
H    -4.207493  1.595256  4.315569
H    -3.347436  0.560050  5.468070
H    -4.952992  -1.307541  5.004277
H    -5.760152  -0.307269  3.768921
H    -5.960834  1.299027  5.947402
H    -8.545435  -0.075229  7.801808
H    -7.213984  1.014543  7.949419
H    -8.177471  -2.046034  6.488745
H    -7.326353  -1.827219  5.006643
N    -0.400879  2.267875  4.396949
C    -0.901340  3.604742  4.041044
H    0.355857  2.236936  5.081700
H    -0.830913  3.781470  2.961682
H    -0.268986  4.341549  4.544400
H    -1.932205  3.749966  4.386159
Sr    0.810901  -1.898017  3.576683
