37
Energy: -108387.912757 eV PBE+vdW (tier 2 basis)
C    -0.846597  0.130208  0.150636
C    -0.509338  -0.091505  1.588906
O    0.293159  -1.013997  1.925788
H    -1.516571  0.978607  -0.022646
H    -1.319777  -0.782882  -0.239967
H    0.076630  0.276802  -0.425808
N    -1.083607  0.714780  2.498460
C    -1.079287  0.652841  3.979652
C    0.334762  0.844411  4.573882
O    1.221514  -0.059225  4.495245
H    -1.699200  1.425171  2.109896
H    -1.667037  1.535016  4.269083
C    -1.825945  -0.586303  4.532418
C    -2.344259  -0.392135  5.969763
C    -3.328667  -1.498948  6.382769
N    -3.890136  -1.223863  7.709192
C    -4.552823  -2.111915  8.479794
N    -4.877452  -1.779932  9.733517
N    -4.856522  -3.327661  8.010269
H    -1.186038  -1.477534  4.463714
H    -2.677092  -0.760291  3.858019
H    -2.865771  0.577960  6.029435
H    -1.512635  -0.354971  6.689539
H    -2.815165  -2.471250  6.420443
H    -4.134239  -1.567306  5.631695
H    -3.953875  -0.251402  7.995005
H    -4.468495  -0.977188  10.198008
H    -5.545125  -2.325420  10.268508
H    -5.228747  -4.042342  8.627306
H    -4.920205  -3.513034  7.016952
N    0.568238  1.990653  5.195754
C    1.833336  2.360841  5.837404
H    -0.168951  2.691597  5.198906
H    1.620258  3.047079  6.662597
H    2.492728  2.865776  5.119040
H    2.326264  1.464567  6.223738
Sr    2.143666  -1.628206  3.077086
