37
Energy: -108388.093678 eV PBE+vdW (tier 2 basis)
C    -3.077388  2.550386  4.771429
C    -2.729100  1.425866  3.853227
O    -2.925674  1.519676  2.605029
H    -2.502416  3.438286  4.470473
H    -2.877970  2.335622  5.826443
H    -4.138121  2.809390  4.652536
N    -2.190818  0.311520  4.383361
C    -1.681429  -0.852003  3.635713
C    -2.870143  -1.706708  3.116142
O    -3.477122  -1.321173  2.069748
H    -2.109771  0.282593  5.397055
H    -1.204467  -0.462553  2.723139
C    -0.628863  -1.615841  4.463165
C    0.697787  -0.857965  4.668744
C    1.701059  -1.694143  5.481651
N    2.965581  -0.974765  5.658115
C    4.154345  -1.541358  5.954822
N    4.231699  -2.838032  6.273891
N    5.265809  -0.799930  5.900430
H    -0.419017  -2.559706  3.938192
H    -1.051254  -1.888865  5.446515
H    0.516626  0.096988  5.187446
H    1.139967  -0.614148  3.691171
H    1.916196  -2.632912  4.950103
H    1.264768  -1.950942  6.462213
H    2.924781  0.037754  5.723647
H    5.131834  -3.301909  6.342284
H    3.432815  -3.348740  6.629003
H    5.288534  0.095722  5.426656
H    6.135518  -1.121600  6.312331
N    -3.225805  -2.797588  3.770458
C    -4.329051  -3.691993  3.402696
H    -2.699296  -3.044775  4.604549
H    -4.589375  -3.536477  2.353423
H    -5.203163  -3.492467  4.035973
H    -4.008991  -4.728470  3.552184
Sr    -3.933085  0.545258  0.794044
