37
Energy: -108386.475936 eV PBE+vdW (tier 2 basis)
C    -0.570035  2.282567  1.739242
C    -0.196888  1.358486  0.629970
O    0.920932  1.553647  0.007828
H    -0.473018  3.316257  1.379082
H    0.118478  2.146463  2.583729
H    -1.590487  2.139759  2.103287
N    -1.024919  0.413689  0.188348
C    -1.955615  -0.309594  1.068449
C    -1.082075  -0.834287  2.272297
O    0.143530  -0.679123  2.226616
H    -0.642318  -0.144905  -0.575225
H    -2.703676  0.399380  1.453135
C    -2.669774  -1.423300  0.277124
C    -3.735074  -0.909528  -0.706246
C    -4.365958  -1.993100  -1.599531
N    -5.267901  -2.933560  -0.918545
C    -6.611316  -2.962898  -1.031167
N    -7.273286  -4.085505  -0.726075
N    -7.292520  -1.882573  -1.428785
H    -3.128769  -2.108529  1.001495
H    -1.908923  -2.021804  -0.252426
H    -3.291530  -0.166007  -1.386468
H    -4.524469  -0.379737  -0.149929
H    -3.581983  -2.593121  -2.083785
H    -4.925166  -1.520269  -2.417183
H    -4.847931  -3.754182  -0.494610
H    -8.280523  -4.087171  -0.605073
H    -6.811340  -4.987670  -0.705464
H    -8.266502  -1.951065  -1.703203
H    -6.873735  -0.962315  -1.451903
N    -1.709188  -1.403382  3.315045
C    -3.136428  -1.550883  3.585015
H    -1.070662  -1.744606  4.032049
H    -3.302726  -1.434747  4.661442
H    -3.508400  -2.541701  3.288375
H    -3.720107  -0.774387  3.078549
Sr    3.092327  1.770894  -0.134376
