37
Energy: -108386.517384 eV PBE+vdW (tier 2 basis)
C    -0.117213  -1.611030  1.190911
C    -0.080306  -1.531765  2.679879
O    0.619675  -2.418630  3.331790
H    0.902291  -1.505839  0.793254
H    -0.751982  -0.852171  0.726968
H    -0.481994  -2.602877  0.889641
N    -0.717801  -0.608853  3.361118
C    -1.414573  0.605658  2.900966
C    -1.210626  1.564262  4.110085
O    -1.036325  1.048974  5.223074
H    -0.627117  -0.553557  4.397935
H    -0.909488  0.991780  2.006806
C    -2.913542  0.367360  2.568942
C    -3.848866  -0.005095  3.740402
C    -4.536481  1.164530  4.474090
N    -5.646538  1.786359  3.738283
C    -6.958978  1.554998  3.932885
N    -7.376142  0.480731  4.612834
N    -7.861144  2.409634  3.434973
H    -2.951485  -0.428347  1.811697
H    -3.278807  1.266367  2.050490
H    -3.301585  -0.585176  4.497455
H    -4.625376  -0.679361  3.351619
H    -3.823208  1.964360  4.709788
H    -4.922155  0.822348  5.443484
H    -5.424273  2.544599  3.102729
H    -8.338315  0.400621  4.922746
H    -6.759147  -0.290171  4.829445
H    -7.607583  3.348118  3.148957
H    -8.846440  2.172475  3.395048
N    -1.278878  2.889799  3.903114
C    -1.280024  3.606542  2.625522
H    -1.106194  3.440602  4.743242
H    -2.044935  3.218704  1.942620
H    -0.298794  3.566986  2.132930
H    -1.515532  4.656578  2.822678
Sr    2.016157  -3.868284  4.169371
