37
Energy: -108386.354248 eV PBE+vdW (tier 2 basis)
C    -0.274260  -0.424146  -0.559133
C    0.154100  -0.312493  0.864719
O    0.964085  -1.192616  1.368335
H    0.290380  0.304116  -1.162868
H    -1.339978  -0.198297  -0.690615
H    -0.076233  -1.426409  -0.948151
N    -0.271335  0.683615  1.622697
C    -1.246249  1.731128  1.243774
C    -0.625139  2.677266  0.188012
O    0.592246  2.920686  0.228776
H    0.097168  0.721161  2.572393
H    -2.116308  1.207993  0.825272
C    -1.731633  2.526255  2.492777
C    -1.107025  3.905493  2.764499
C    0.342275  3.907743  3.281998
N    0.886238  5.257772  3.416316
C    1.597468  5.920344  2.484658
N    1.819668  5.390091  1.277389
N    2.097944  7.126597  2.785665
H    -1.647011  1.874845  3.378205
H    -2.811335  2.676343  2.366889
H    -1.742951  4.404917  3.509500
H    -1.173273  4.529621  1.860773
H    1.009996  3.336704  2.623255
H    0.392992  3.441493  4.276408
H    0.628394  5.779455  4.248182
H    1.369405  4.532555  0.943365
H    2.471047  5.839083  0.644429
H    2.075688  7.494723  3.729344
H    2.521206  7.716020  2.078540
N    -1.460675  3.224567  -0.708411
C    -2.911096  3.053560  -0.839937
H    -1.009955  3.874342  -1.350696
H    -3.236548  3.595569  -1.732283
H    -3.452544  3.467298  0.020369
H    -3.186096  1.999783  -0.978182
Sr    2.176052  -2.992882  1.735181
