37
Energy: -108387.835391 eV PBE+vdW (tier 2 basis)
C    1.193144  -0.262279  0.518005
C    0.389686  -0.581269  1.737057
O    0.673789  -1.591882  2.445679
H    0.861466  0.637615  -0.010204
H    1.145886  -1.120117  -0.168269
H    2.248968  -0.143197  0.797579
N    -0.633862  0.238641  2.045235
C    -1.652288  0.123777  3.115433
C    -1.030884  0.206926  4.529229
O    -0.354482  -0.750998  5.011413
H    -0.740352  1.038580  1.427679
H    -2.272325  1.021607  2.986314
C    -2.558596  -1.122218  2.973856
C    -3.478909  -1.143725  1.734840
C    -4.831795  -0.438170  1.927617
N    -5.672212  -0.642652  0.742885
C    -6.817633  0.012664  0.461957
N    -7.386985  -0.144253  -0.736984
N    -7.365006  0.840591  1.360703
H    -3.159892  -1.209424  3.891822
H    -1.919660  -2.014109  2.946426
H    -3.677585  -2.199704  1.497554
H    -2.961134  -0.727213  0.857270
H    -4.703276  0.645631  2.074188
H    -5.326700  -0.847182  2.825258
H    -5.465201  -1.450606  0.163148
H    -8.340014  0.156521  -0.913254
H    -6.891066  -0.565412  -1.514339
H    -8.150300  1.431282  1.106452
H    -7.178505  0.743975  2.351152
N    -1.270088  1.304981  5.229480
C    -0.805218  1.548188  6.599504
H    -1.791985  2.054812  4.783131
H    -1.512834  2.220159  7.094379
H    0.186027  2.020051  6.588535
H    -0.757562  0.601579  7.144707
Sr    1.111840  -2.449978  4.512857
