37
Energy: -108387.787207 eV PBE+vdW (tier 2 basis)
C    -1.740372  -1.038247  -0.606572
C    -1.128405  -0.911283  0.747978
O    0.113522  -0.702001  0.888259
H    -1.241962  -1.845560  -1.160432
H    -1.552304  -0.110669  -1.166541
H    -2.817947  -1.231212  -0.585213
N    -1.925408  -1.016430  1.828589
C    -1.489542  -0.814088  3.219830
C    -0.577120  -1.987063  3.675807
O    0.680415  -1.814427  3.561899
H    -2.910250  -1.208556  1.662511
H    -0.797947  0.041601  3.211153
C    -2.675289  -0.462959  4.142181
C    -3.185118  0.983096  3.985666
C    -4.427721  1.233713  4.861936
N    -4.999962  2.571875  4.675325
C    -5.312795  3.466558  5.637379
N    -4.694670  3.454985  6.824186
N    -6.249041  4.388326  5.391247
H    -2.349578  -0.627106  5.180341
H    -3.504285  -1.166013  3.973279
H    -3.444393  1.183439  2.933918
H    -2.392417  1.697669  4.253239
H    -4.191399  1.098748  5.924807
H    -5.209069  0.493174  4.628190
H    -5.411399  2.759344  3.765269
H    -5.046027  4.009517  7.597619
H    -3.801852  2.999367  6.958480
H    -6.345995  5.211817  5.976569
H    -6.927897  4.277437  4.646156
N    -1.035289  -3.136395  4.146952
C    -2.405430  -3.635486  4.309406
H    -0.295393  -3.780852  4.431137
H    -3.041781  -3.322521  3.476442
H    -2.836597  -3.309755  5.263833
H    -2.363519  -4.729060  4.306377
Sr    2.127237  -1.099982  1.911798
