37
Energy: -108387.973864 eV PBE+vdW (tier 2 basis)
C    1.226626  -0.326305  0.408501
C    0.369264  -0.607244  1.600675
O    0.388616  -1.750484  2.147610
H    2.281294  -0.487600  0.671537
H    1.113245  0.686372  0.008006
H    0.985427  -1.054941  -0.378383
N    -0.407210  0.390814  2.060597
C    -1.422138  0.396982  3.139080
C    -0.828863  0.096298  4.534012
O    -0.381045  -1.050961  4.839243
H    -0.310531  1.270577  1.560574
H    -1.762242  1.441545  3.165036
C    -2.667108  -0.475100  2.842140
C    -3.524311  0.082116  1.690230
C    -4.847422  -0.682608  1.516351
N    -5.641449  -0.105821  0.427338
C    -6.986278  -0.139540  0.323370
N    -7.591867  0.615927  -0.598785
N    -7.717041  -0.898239  1.148874
H    -3.265614  -0.507410  3.765822
H    -2.357544  -1.508574  2.630589
H    -2.953997  0.041761  0.748505
H    -3.757344  1.141162  1.881084
H    -5.438987  -0.609795  2.440322
H    -4.649249  -1.750228  1.322774
H    -5.139555  0.236333  -0.386697
H    -8.560792  0.459065  -0.856203
H    -7.115485  1.383043  -1.059305
H    -8.726920  -0.802539  1.181496
H    -7.324040  -1.705642  1.616316
N    -0.855848  1.084845  5.414201
C    -0.399216  0.994185  6.804582
H    -1.201469  1.991158  5.107521
H    -1.020048  1.652241  7.420597
H    0.647312  1.316985  6.882595
H    -0.495739  -0.036056  7.156648
Sr    0.690572  -2.927322  4.076145
