37
Energy: -108386.638627 eV PBE+vdW (tier 2 basis)
C    0.105874  0.428551  0.702750
C    -0.043082  -0.204407  2.044433
O    1.034471  -0.551141  2.694791
H    0.726507  -0.213154  0.063091
H    0.632273  1.388250  0.807364
H    -0.849560  0.608284  0.203277
N    -1.206024  -0.425222  2.605075
C    -2.573138  -0.013293  2.243989
C    -3.193272  0.199377  3.667847
O    -2.736318  -0.492150  4.587128
H    -1.263037  -0.815069  3.574415
H    -2.549176  0.924535  1.672933
C    -3.298771  -1.138807  1.456470
C    -4.785105  -0.850345  1.179036
C    -5.590321  -2.020186  0.590884
N    -5.424934  -2.185210  -0.859654
C    -6.328604  -2.762493  -1.674563
N    -7.370262  -3.432187  -1.170885
N    -6.187247  -2.652970  -3.002861
H    -3.210574  -2.065323  2.044221
H    -2.739540  -1.302576  0.521193
H    -4.907270  0.036598  0.537407
H    -5.279392  -0.610432  2.130158
H    -6.655269  -1.822273  0.773499
H    -5.328431  -2.954545  1.114987
H    -4.537030  -1.933038  -1.279247
H    -8.146282  -3.710620  -1.761997
H    -7.378644  -3.772818  -0.217363
H    -6.731879  -3.226038  -3.638039
H    -5.615405  -1.927506  -3.418290
N    -4.175385  1.100291  3.785284
C    -4.859896  1.390297  5.048721
H    -4.415751  1.668187  2.978655
H    -5.944634  1.370927  4.895446
H    -4.567983  2.379482  5.422258
H    -4.579064  0.628719  5.780491
Sr    2.881838  -0.930679  3.780301
