37
Energy: -108386.686104 eV PBE+vdW (tier 2 basis)
C    -0.643167  -0.928806  -0.646500
C    -0.615164  -0.052091  0.566042
O    0.397786  0.674370  0.790324
H    0.189403  -0.654775  -1.301738
H    -1.582317  -0.826340  -1.201582
H    -0.533637  -1.989299  -0.372180
N    -1.666714  0.019408  1.435678
C    -2.319475  -1.150964  2.048612
C    -1.221172  -1.942054  2.833680
O    0.012130  -1.659010  2.662744
H    -1.522538  0.777559  2.104686
H    -2.985184  -0.728077  2.817380
C    -3.197657  -2.028593  1.118058
C    -4.673388  -1.606990  0.982220
C    -4.972866  -0.401480  0.077138
N    -6.425431  -0.289639  -0.099392
C    -7.104609  0.796740  -0.517385
N    -8.437399  0.815713  -0.421400
N    -6.452398  1.865411  -0.995126
H    -3.193769  -3.049889  1.517873
H    -2.735124  -2.119908  0.129589
H    -5.111859  -1.432073  1.977166
H    -5.200174  -2.480296  0.566331
H    -4.478037  -0.537942  -0.900201
H    -4.603170  0.535099  0.519933
H    -6.963646  -1.147372  -0.014657
H    -8.994072  1.502027  -0.920197
H    -8.943267  0.140905  0.141562
H    -6.951013  2.728179  -1.187381
H    -5.530580  1.778369  -1.403968
N    -1.568438  -2.870839  3.708655
C    -2.899322  -3.301428  4.151514
H    -0.781168  -3.342985  4.156397
H    -2.847276  -3.519224  5.223679
H    -3.208425  -4.213877  3.625474
H    -3.641391  -2.512705  3.997907
Sr    1.885516  -0.314470  2.282175
