37
Energy: -108388.007134 eV PBE+vdW (tier 2 basis)
C    -1.400545  1.814312  -0.373056
C    -1.142495  0.517317  0.320123
O    -0.111481  -0.169316  0.053579
H    -2.337944  2.294736  -0.073998
H    -1.408527  1.657513  -1.460033
H    -0.564005  2.496132  -0.160788
N    -2.027694  0.099460  1.244085
C    -1.891242  -1.083636  2.112952
C    -2.178198  -2.372994  1.295846
O    -1.257330  -2.833875  0.552893
H    -2.858728  0.672378  1.370361
H    -0.826930  -1.160984  2.383675
C    -2.725740  -0.914033  3.397752
C    -2.210281  0.172918  4.362260
C    -3.123807  0.306702  5.596007
N    -2.714512  1.394369  6.491884
C    -2.531822  1.324974  7.828510
N    -2.660282  2.434686  8.562280
N    -2.212536  0.171440  8.426870
H    -2.729798  -1.882752  3.919598
H    -3.776336  -0.697128  3.133793
H    -2.157986  1.146525  3.850476
H    -1.185315  -0.064533  4.683850
H    -3.148117  -0.628625  6.168783
H    -4.161686  0.496682  5.278958
H    -2.799552  2.336087  6.119490
H    -3.160213  3.248170  8.220702
H    -2.302278  2.485189  9.510706
H    -2.244946  0.084812  9.437161
H    -1.811823  -0.603784  7.915723
N    -3.361836  -2.952732  1.382037
C    -3.769559  -4.164449  0.661465
H    -4.057576  -2.528202  1.990025
H    -4.408267  -4.765470  1.316556
H    -2.882846  -4.739751  0.385171
H    -4.334030  -3.896312  -0.241018
Sr    0.642263  -2.227823  -0.605680
