37
Energy: -108386.329251 eV PBE+vdW (tier 2 basis)
C    -0.695103  2.467207  -0.344804
C    0.023711  1.231878  0.076514
O    1.302890  1.182838  -0.160196
H    -1.766247  2.442095  -0.155436
H    -0.542041  2.635598  -1.416676
H    -0.258508  3.313976  0.208241
N    -0.488120  0.264552  0.844819
C    -1.846776  -0.306086  0.764649
C    -2.014335  -0.716510  -0.741682
O    -1.473704  0.004840  -1.587718
H    0.213468  -0.415331  1.136233
H    -1.806713  -1.188585  1.416032
C    -2.988370  0.609830  1.280477
C    -4.291970  -0.152050  1.574430
C    -5.459185  0.712239  2.071116
N    -5.315080  1.108950  3.479987
C    -6.128691  1.984483  4.107806
N    -5.911012  2.282723  5.394731
N    -7.124701  2.582460  3.446381
H    -3.210807  1.389746  0.540675
H    -2.622006  1.114987  2.186319
H    -4.116872  -0.973072  2.289105
H    -4.652828  -0.628705  0.653613
H    -6.389192  0.135752  1.939211
H    -5.536553  1.624590  1.460675
H    -4.814385  0.463154  4.083715
H    -5.069073  1.989791  5.875181
H    -6.597928  2.788195  5.943383
H    -7.659362  3.331347  3.873602
H    -7.478277  2.217004  2.570842
N    -2.731534  -1.806023  -1.065528
C    -3.280664  -2.879769  -0.239531
H    -2.813342  -1.934487  -2.074206
H    -4.378156  -2.865668  -0.246859
H    -2.931900  -2.804445  0.793995
H    -2.947326  -3.845686  -0.637386
Sr    3.234467  1.375193  -1.153855
