37
Energy: -108386.530058 eV PBE+vdW (tier 2 basis)
C    0.981048  -1.164704  1.624928
C    0.261293  -0.460329  2.725021
O    0.885156  -0.267354  3.854183
H    1.839330  -0.557443  1.302441
H    0.353840  -1.369687  0.753820
H    1.379137  -2.116420  2.001769
N    -0.968946  -0.020636  2.604714
C    -1.871476  0.013670  1.437854
C    -2.717317  1.285334  1.741540
O    -2.967114  1.506962  2.934127
H    -1.430868  0.481771  3.388108
H    -1.277968  0.110410  0.521563
C    -2.742906  -1.269849  1.392826
C    -3.691008  -1.403829  0.182037
C    -5.102468  -0.799568  0.320753
N    -6.031097  -1.576206  1.152719
C    -6.983891  -2.414973  0.701563
N    -7.987937  -2.769605  1.513272
N    -6.939944  -2.901593  -0.544013
H    -3.297473  -1.341490  2.341063
H    -2.049730  -2.122949  1.384314
H    -3.791129  -2.475332  -0.043331
H    -3.224400  -0.965163  -0.712253
H    -5.556025  -0.688310  -0.673443
H    -5.066788  0.210095  0.749106
H    -6.062851  -1.362163  2.143724
H    -8.606357  -3.539243  1.280916
H    -8.223438  -2.228690  2.337280
H    -7.741012  -3.375303  -0.947250
H    -6.103060  -2.857976  -1.110286
N    -3.152108  2.070178  0.740961
C    -2.889028  2.017950  -0.695170
H    -3.700721  2.863571  1.073403
H    -2.037340  1.369711  -0.920625
H    -3.765990  1.659004  -1.250674
H    -2.645826  3.024894  -1.052909
Sr    2.164074  0.068681  5.586392
