37
Energy: -108385.974577 eV PBE+vdW (tier 2 basis)
C    -0.197380  -0.362530  -0.784982
C    -0.057168  0.228901  0.585707
O    0.967435  0.241394  1.231885
H    0.667535  -0.080759  -1.398186
H    -1.127165  -0.098703  -1.304396
H    -0.165165  -1.459991  -0.692287
N    -1.279762  0.816421  1.131048
C    -1.301525  1.006614  2.622991
C    -2.722349  1.446633  2.965050
O    -3.256447  2.314494  2.180788
H    -2.051983  0.197817  0.851936
H    -1.044034  0.051597  3.098504
C    -0.310912  2.118459  3.090144
C    0.334611  1.871660  4.467434
C    1.330351  0.701016  4.563784
N    2.561119  0.863577  3.785607
C    3.796487  1.060021  4.291338
N    3.969756  1.566375  5.517111
N    4.864736  0.752403  3.546512
H    -0.846031  3.081108  3.137968
H    0.476055  2.224723  2.334659
H    -0.445453  1.706757  5.226538
H    0.838124  2.802451  4.765613
H    0.870541  -0.244035  4.239434
H    1.600517  0.546642  5.616320
H    2.505140  0.601747  2.804211
H    3.230995  2.050746  6.010379
H    4.879367  1.546636  5.966383
H    4.799313  0.112791  2.763082
H    5.795198  1.064658  3.804247
N    -3.383661  1.020658  4.019913
C    -3.023856  0.028690  5.038218
H    -4.303358  1.456177  4.136000
H    -3.815259  -0.728548  5.090765
H    -2.943760  0.522083  6.014829
H    -2.077123  -0.459355  4.796392
Sr    -2.566592  3.138139  0.205183
