37
Energy: -108387.637830 eV PBE+vdW (tier 2 basis)
C    0.380629  -1.073570  1.251097
C    -0.125892  0.016626  2.134327
O    0.418036  1.160806  2.135895
H    0.286698  -0.746989  0.204771
H    -0.149685  -2.023321  1.376029
H    1.451636  -1.231059  1.436077
N    -1.185809  -0.235760  2.926859
C    -1.896491  0.767884  3.737939
C    -1.060154  1.125600  4.995263
O    -0.183387  2.036988  4.887174
H    -1.566745  -1.177320  2.890121
H    -1.875357  1.699495  3.153523
C    -3.398252  0.417416  3.894539
C    -3.814803  -0.897828  4.586620
C    -5.226509  -1.395718  4.223861
N    -6.292903  -0.530022  4.743238
C    -7.585184  -0.589330  4.340209
N    -8.463647  0.289585  4.832777
N    -7.977271  -1.488735  3.433307
H    -3.798023  0.415453  2.868642
H    -3.873311  1.274351  4.392192
H    -3.756709  -0.815348  5.684928
H    -3.144503  -1.729686  4.318051
H    -5.337724  -2.419727  4.616320
H    -5.326815  -1.439022  3.129309
H    -6.145603  -0.119405  5.661168
H    -8.168021  1.116300  5.338601
H    -9.463077  0.162195  4.710592
H    -8.903930  -1.440273  3.021110
H    -7.454201  -2.338916  3.261303
N    -1.242650  0.484274  6.136987
C    -0.477381  0.738668  7.364365
H    -1.933357  -0.258968  6.163338
H    0.502343  0.246049  7.316066
H    -1.036514  0.336189  8.213439
H    -0.338766  1.815992  7.496985
Sr    1.271332  2.923128  3.314978
