37
Energy: -108386.723380 eV PBE+vdW (tier 2 basis)
C    0.304922  0.988232  -0.331943
C    -0.024647  -0.196028  0.512818
O    0.015251  -1.362854  0.024608
H    1.398353  1.125038  -0.281559
H    -0.157338  1.919514  0.008654
H    0.058089  0.802456  -1.381907
N    -0.332225  -0.048573  1.831408
C    -1.340196  0.906136  2.333429
C    -2.587952  0.812459  1.398506
O    -2.742682  -0.215867  0.663733
H    -0.334828  -0.942279  2.321846
H    -1.687339  0.449702  3.275883
C    -0.820788  2.312165  2.716897
C    0.339512  2.233163  3.730489
C    0.631682  3.507334  4.536705
N    1.301897  4.558041  3.755776
C    1.485147  5.824356  4.200143
N    2.102538  6.712780  3.413793
N    1.022736  6.202025  5.395279
H    -1.652531  2.855409  3.193718
H    -0.539520  2.892724  1.827956
H    1.258344  1.882105  3.236280
H    0.105129  1.464099  4.482196
H    1.258453  3.219408  5.396586
H    -0.308148  3.921949  4.930644
H    1.971585  4.244632  3.058604
H    2.413692  7.609540  3.772191
H    2.283078  6.526451  2.434742
H    1.035228  7.178270  5.673104
H    0.804341  5.530804  6.121441
N    -3.492754  1.771545  1.434377
C    -4.763120  1.749264  0.695705
H    -3.319350  2.570583  2.037329
H    -5.360285  0.879660  0.994084
H    -4.575229  1.715125  -0.383678
H    -5.315539  2.661713  0.933704
Sr    -2.112487  -2.198357  -0.419095
