37
Energy: -108386.664361 eV PBE+vdW (tier 2 basis)
C    -1.136738  -1.421551  0.086428
C    -2.595893  -1.156499  -0.057715
O    -3.185809  -1.474504  -1.134404
H    -0.750712  -1.241493  1.090162
H    -0.557562  -0.862848  -0.661202
H    -0.991093  -2.486722  -0.153903
N    -3.351287  -0.660724  0.961128
C    -3.143488  0.582828  1.722021
C    -3.397459  1.764926  0.739368
O    -3.458868  1.548038  -0.515980
H    -4.343763  -0.823855  0.783512
H    -3.992374  0.596423  2.422644
C    -1.878481  0.666598  2.629095
C    -0.611145  1.393796  2.143238
C    0.498083  1.234567  3.199525
N    1.697077  2.007122  2.864700
C    2.656169  2.370485  3.745012
N    2.632923  1.921517  5.003936
N    3.620268  3.210353  3.353407
H    -2.200631  1.144276  3.564076
H    -1.647161  -0.369837  2.914124
H    -0.812725  2.465072  1.994633
H    -0.260772  0.999484  1.177865
H    0.746971  0.165177  3.311392
H    0.126879  1.593271  4.171152
H    1.930739  2.114953  1.882705
H    3.253411  2.312449  5.705863
H    2.131242  1.081463  5.264677
H    4.455952  3.351298  3.911564
H    3.536267  3.765799  2.510018
N    -3.611164  2.981411  1.216275
C    -3.709834  3.425119  2.611827
H    -3.777467  3.693635  0.504267
H    -2.724133  3.683274  3.018594
H    -4.339450  4.319742  2.638489
H    -4.183263  2.660169  3.236656
Sr    -4.035239  0.269346  -2.403037
