37
Energy: -108385.999797 eV PBE+vdW (tier 2 basis)
C    -1.512172  0.910722  -0.239673
C    -1.636578  0.401147  1.169930
O    -1.149350  0.986124  2.130796
H    -1.653327  1.997268  -0.242136
H    -2.209853  0.451573  -0.949427
H    -0.485935  0.719439  -0.587436
N    -2.368183  -0.789077  1.293046
C    -2.378651  -1.738474  2.412349
C    -3.735332  -2.451028  2.451879
O    -3.821554  -3.654647  2.917692
H    -2.514833  -1.234095  0.388651
H    -1.635090  -2.533953  2.228700
C    -2.049904  -1.151574  3.815695
C    -2.992387  -0.056432  4.350230
C    -2.355260  0.827051  5.434064
N    -1.334131  1.695166  4.848576
C    -0.704547  2.695531  5.479359
N    0.117584  3.492750  4.783303
N    -0.887157  2.910448  6.788650
H    -1.017546  -0.789848  3.759724
H    -2.033166  -2.001224  4.515608
H    -3.894029  -0.506747  4.789213
H    -3.335993  0.599976  3.538126
H    -1.914870  0.194125  6.223970
H    -3.146591  1.438279  5.895350
H    -1.145664  1.559584  3.849381
H    0.671228  4.211518  5.233789
H    0.216615  3.394749  3.780349
H    -1.442629  2.289249  7.360660
H    -0.458537  3.699611  7.258019
N    -4.794241  -1.802580  2.026716
C    -6.176749  -2.281555  2.023446
H    -4.595228  -0.872866  1.647616
H    -6.834001  -1.444227  1.773272
H    -6.453821  -2.659441  3.014743
H    -6.312960  -3.065000  1.266094
Sr    -3.925619  -5.791413  3.441498
