37
Energy: -108386.629496 eV PBE+vdW (tier 2 basis)
C    -0.736509  -1.466316  0.898157
C    0.044689  -0.566297  1.795833
O    1.268746  -0.895231  2.076218
H    -0.235035  -1.553289  -0.072528
H    -1.761710  -1.135085  0.720088
H    -0.772409  -2.462809  1.364192
N    -0.511657  0.441829  2.471393
C    -1.584947  1.267067  1.913327
C    -0.998209  1.826138  0.553672
O    -0.032369  1.241991  0.053061
H    0.130532  0.929177  3.097460
H    -2.418118  0.603228  1.639372
C    -2.087493  2.293047  2.957447
C    -3.597319  2.588196  2.872575
C    -4.044032  3.613986  3.924284
N    -5.491220  3.840401  3.845830
C    -6.256691  4.372983  4.817882
N    -7.589134  4.339095  4.700184
N    -5.696664  4.910357  5.907969
H    -1.504260  3.223290  2.877226
H    -1.882468  1.880550  3.956519
H    -4.160245  1.653692  3.018078
H    -3.872831  2.962170  1.872066
H    -3.498580  4.561835  3.779081
H    -3.809857  3.238073  4.931445
H    -5.940767  3.698135  2.946669
H    -8.185763  4.905354  5.293544
H    -8.051005  3.735783  4.029714
H    -6.264194  5.174165  6.706384
H    -4.734156  5.224009  5.912183
N    -1.615440  2.873477  -0.005134
C    -1.205455  3.441826  -1.293477
H    -2.383445  3.317286  0.482818
H    -2.044612  4.004345  -1.712603
H    -0.932142  2.633365  -1.978503
H    -0.345459  4.112404  -1.171266
Sr    3.309947  -1.597794  1.785219
