37
Energy: -108386.661242 eV PBE+vdW (tier 2 basis)
C    0.035061  0.196320  0.080511
C    0.268457  -0.278977  1.478891
O    1.446453  -0.570432  1.848814
H    -0.738255  0.966685  0.019904
H    -0.261000  -0.643589  -0.566983
H    0.978696  0.596787  -0.305752
N    -0.733509  -0.381389  2.396153
C    -2.010174  -1.092189  2.206347
C    -1.643985  -2.608195  2.109867
O    -0.480162  -2.942970  1.702545
H    -0.354705  -0.513956  3.335752
H    -2.556761  -0.938515  3.147759
C    -2.901990  -0.521370  1.063810
C    -4.415591  -0.747596  1.248122
C    -5.328346  0.249995  0.516547
N    -5.393782  0.036303  -0.936708
C    -6.005289  0.889691  -1.793348
N    -6.023437  0.605596  -3.100257
N    -6.554083  2.023882  -1.350810
H    -2.569618  -0.893431  0.086286
H    -2.716977  0.562111  1.075609
H    -4.674736  -0.632160  2.310567
H    -4.705103  -1.773583  0.975770
H    -4.970671  1.274571  0.697717
H    -6.335584  0.161500  0.956009
H    -5.336688  -0.926742  -1.255889
H    -5.458487  -0.136902  -3.494354
H    -6.610650  1.123329  -3.745711
H    -6.894231  2.726771  -1.999433
H    -6.791464  2.160742  -0.375899
N    -2.495683  -3.550663  2.486177
C    -3.798587  -3.465986  3.154204
H    -2.144456  -4.499550  2.344315
H    -4.610026  -3.694387  2.453311
H    -3.954696  -2.477846  3.592853
H    -3.817364  -4.208422  3.960086
Sr    1.870229  -2.842237  1.860696
