37
Energy: -108386.471030 eV PBE+vdW (tier 2 basis)
C    -0.665915  0.987260  0.143050
C    -0.220167  1.053337  1.571028
O    0.588291  2.005565  1.938540
H    0.207947  0.868893  -0.514015
H    -1.177815  1.920864  -0.130959
H    -1.349311  0.154237  -0.051418
N    -0.661409  0.139909  2.402557
C    -0.405856  -0.127970  3.825845
C    -0.432141  -1.681766  3.870538
O    -1.278354  -2.248266  3.173027
H    -1.256634  -0.621137  2.030664
H    0.567421  0.288518  4.115847
C    -1.559244  0.480511  4.674368
C    -1.726558  -0.050980  6.114570
C    -2.711607  -1.226255  6.223066
N    -2.959886  -1.556399  7.630742
C    -3.573857  -2.670651  8.072129
N    -3.650210  -2.906673  9.387335
N    -4.077354  -3.557827  7.205352
H    -2.496732  0.322999  4.120901
H    -1.403349  1.566965  4.706560
H    -2.114874  0.779061  6.723718
H    -0.759041  -0.330332  6.557857
H    -2.318451  -2.120901  5.720494
H    -3.656094  -0.947175  5.725607
H    -2.844366  -0.808198  8.307951
H    -4.262990  -3.622823  9.761354
H    -3.112325  -2.370485  10.057946
H    -4.279882  -3.306269  6.245920
H    -4.432049  -4.452602  7.525268
N    0.444438  -2.287191  4.688795
C    0.538435  -3.741759  4.829874
H    1.132468  -1.719153  5.172086
H    1.524665  -4.091218  4.501985
H    -0.230676  -4.199723  4.201972
H    0.387731  -4.034597  5.875943
Sr    1.879131  3.744015  1.571603
