37
Energy: -108386.458521 eV PBE+vdW (tier 2 basis)
C    -1.063675  1.710873  0.682339
C    -0.292059  0.620679  1.354607
O    0.999354  0.710881  1.457409
H    -0.386748  2.483463  0.309146
H    -1.774158  2.183631  1.376367
H    -1.648190  1.320883  -0.162672
N    -0.905501  -0.441509  1.855226
C    -2.356666  -0.749310  1.806713
C    -2.881806  -1.259274  3.190475
O    -3.671694  -2.203993  3.239578
H    -0.303341  -1.149999  2.277811
H    -2.873454  0.202219  1.618551
C    -2.723280  -1.718723  0.671792
C    -2.137055  -3.147369  0.765643
C    -3.139225  -4.244485  0.384549
N    -4.224676  -4.292464  1.364717
C    -5.255981  -5.145516  1.339418
N    -6.186591  -5.081619  2.303016
N    -5.373139  -6.055432  0.363696
H    -2.445114  -1.256333  -0.285647
H    -3.821231  -1.755472  0.671454
H    -1.772611  -3.364609  1.781223
H    -1.273563  -3.249965  0.095809
H    -2.610637  -5.210386  0.355073
H    -3.543675  -4.047674  -0.622969
H    -4.167795  -3.609960  2.131229
H    -6.966599  -5.726774  2.333666
H    -6.113429  -4.411077  3.057611
H    -6.149219  -6.706221  0.338678
H    -4.681270  -6.145131  -0.368004
N    -2.455892  -0.597311  4.282101
C    -2.952752  -0.909070  5.626760
H    -1.929947  0.261604  4.165280
H    -2.305213  -0.424799  6.362944
H    -2.932695  -1.992341  5.781975
H    -3.982497  -0.552061  5.757115
Sr    3.117296  1.324824  1.359259
