37
Energy: -108386.472984 eV PBE+vdW (tier 2 basis)
C    -0.589676  0.888074  0.972344
C    -0.144409  0.411326  2.318613
O    1.036776  -0.116219  2.447883
H    0.107248  1.650599  0.596626
H    -1.596550  1.317661  0.984560
H    -0.587848  0.047962  0.262847
N    -0.968991  0.538806  3.334796
C    -0.836113  0.096200  4.727368
C    -2.295647  -0.222200  5.142946
O    -3.199060  0.440118  4.594882
H    -1.926788  0.882217  3.160485
H    -0.198061  -0.795351  4.746538
C    -0.226991  1.186037  5.667838
C    -1.192225  2.178681  6.341907
C    -1.811741  3.259354  5.436596
N    -2.789136  4.087484  6.140428
C    -4.125784  3.921327  6.127193
N    -4.902888  4.861624  6.680654
N    -4.683315  2.842931  5.566534
H    0.550664  1.724108  5.104615
H    0.300046  0.649415  6.468210
H    -0.627914  2.682053  7.140485
H    -1.993947  1.629469  6.857471
H    -2.312397  2.828004  4.561422
H    -1.030942  3.931597  5.053877
H    -2.430164  4.837912  6.722299
H    -4.540810  5.773292  6.934927
H    -5.891854  4.704976  6.837660
H    -4.149522  2.020937  5.276949
H    -5.685501  2.811904  5.418427
N    -2.518202  -1.133573  6.091823
C    -1.547013  -1.985254  6.782764
H    -3.502880  -1.269800  6.316809
H    -2.083892  -2.565803  7.538151
H    -0.784754  -1.392275  7.302585
H    -1.070887  -2.695296  6.093792
Sr    2.980547  -0.921547  1.792171
