37
Energy: -108386.806083 eV PBE+vdW (tier 2 basis)
C    -1.121859  0.719871  -0.573861
C    -0.616902  0.403453  0.791356
O    0.538779  -0.084547  0.964196
H    -0.942219  -0.163588  -1.204776
H    -0.540392  1.535958  -1.027637
H    -2.187003  0.965337  -0.603822
N    -1.399450  0.615041  1.887985
C    -2.066174  1.892950  2.144223
C    -0.946070  2.938771  2.449783
O    0.257512  2.537832  2.598308
H    -0.988820  0.209980  2.730844
H    -2.566693  2.212894  1.217360
C    -3.130359  1.750232  3.257972
C    -4.334472  0.900547  2.802224
C    -5.611786  1.020966  3.651492
N    -5.593687  0.229373  4.887294
C    -6.693123  -0.255719  5.504331
N    -6.551024  -1.130859  6.507284
N    -7.916176  0.113669  5.113412
H    -3.476606  2.753588  3.540204
H    -2.647864  1.335631  4.158370
H    -4.056252  -0.158256  2.701486
H    -4.625345  1.231295  1.793317
H    -6.445739  0.646852  3.042617
H    -5.815265  2.081490  3.877790
H    -4.728363  0.167737  5.412527
H    -7.327895  -1.362305  7.117478
H    -5.693646  -1.653239  6.641854
H    -8.739197  -0.379901  5.443945
H    -8.078859  0.961585  4.584256
N    -1.228917  4.228223  2.520183
C    -2.498136  4.926868  2.291345
H    -0.431792  4.823960  2.750907
H    -2.285023  5.858115  1.755246
H    -2.979384  5.177167  3.245460
H    -3.174726  4.325814  1.677226
Sr    2.114222  1.206998  2.094809
