37
Energy: -108387.448889 eV PBE+vdW (tier 2 basis)
C    -1.929806  1.646508  1.410743
C    -1.186070  0.774092  2.369317
O    -0.569568  -0.252769  1.956408
H    -2.414594  2.509501  1.878793
H    -2.691809  1.038698  0.901700
H    -1.242113  2.002578  0.631415
N    -1.198749  1.120698  3.670671
C    -0.651687  0.412126  4.851552
C    0.888609  0.288817  4.799688
O    1.463298  -0.506291  3.996123
H    -1.692191  1.985276  3.875838
H    -0.887155  1.084128  5.688769
C    -1.326500  -0.954833  5.124972
C    -2.838207  -0.875347  5.427817
C    -3.244545  -0.502000  6.870283
N    -3.247996  -1.616655  7.825960
C    -4.344848  -2.240009  8.309981
N    -4.255033  -2.936609  9.447791
N    -5.514376  -2.174435  7.664795
H    -0.785264  -1.435253  5.955002
H    -1.174059  -1.603870  4.252630
H    -3.288331  -1.846338  5.177863
H    -3.309512  -0.151852  4.745688
H    -4.250158  -0.062193  6.869403
H    -2.588966  0.276996  7.287318
H    -2.376400  -1.843716  8.292518
H    -3.504010  -2.783763  10.111623
H    -4.985721  -3.582448  9.729234
H    -6.373924  -2.474322  8.113356
H    -5.580388  -1.896954  6.694253
N    1.579705  1.023743  5.657727
C    3.040696  1.017080  5.787680
H    1.070623  1.670320  6.255337
H    3.486776  1.766208  5.120380
H    3.427063  0.024819  5.539498
H    3.301122  1.263688  6.821442
Sr    1.378086  -1.432622  1.892432
