37
Energy: -108385.721441 eV PBE+vdW (tier 2 basis)
C    0.688826  0.268569  1.076762
C    0.272312  0.343101  2.507160
O    1.162471  0.457245  3.444889
H    0.331631  1.150283  0.523186
H    0.250459  -0.608269  0.579406
H    1.776854  0.216601  0.991068
N    -1.009596  0.304146  2.840087
C    -2.167815  0.152716  1.926762
C    -2.467385  1.406231  1.058141
O    -2.622001  1.209620  -0.154030
H    -1.221067  0.376139  3.836281
H    -1.873630  -0.583528  1.170027
C    -3.380361  -0.413817  2.716650
C    -4.809579  0.007902  2.317255
C    -5.324542  -0.210212  0.886093
N    -5.149957  -1.573094  0.364116
C    -4.728248  -1.867996  -0.885042
N    -5.118072  -3.019654  -1.449381
N    -3.895317  -1.052785  -1.538579
H    -3.275658  -0.128226  3.775707
H    -3.296449  -1.508897  2.697557
H    -4.965163  1.075798  2.532000
H    -5.475845  -0.519337  3.016165
H    -4.855958  0.482978  0.183734
H    -6.398306  0.029928  0.881697
H    -5.692724  -2.301060  0.821755
H    -4.683510  -3.363231  -2.298502
H    -5.938141  -3.519143  -1.124345
H    -3.772109  -1.150658  -2.539939
H    -3.442249  -0.253174  -1.082193
N    -2.568505  2.629146  1.610408
C    -2.523147  3.020015  3.015564
H    -2.764643  3.363113  0.930491
H    -3.056524  3.969389  3.127342
H    -1.493575  3.171907  3.370277
H    -3.033181  2.290545  3.655944
Sr    2.997152  0.546459  4.666222
