37
Energy: -108386.368146 eV PBE+vdW (tier 2 basis)
C    -0.128775  -0.535933  0.222388
C    -0.446347  -1.533839  1.280665
O    0.351363  -2.555776  1.407702
H    -0.091082  -1.038318  -0.751258
H    0.866107  -0.114725  0.434830
H    -0.855212  0.272652  0.154104
N    -1.406246  -1.395006  2.187720
C    -2.667847  -0.639992  2.093247
C    -3.428676  -1.214554  0.851814
O    -2.781331  -1.639825  -0.105074
H    -1.419749  -2.138805  2.884130
H    -3.209186  -0.932574  2.999884
C    -2.518998  0.920287  2.128463
C    -3.173253  1.724054  0.990047
C    -3.078279  3.231828  1.262427
N    -3.759290  3.994084  0.209957
C    -3.679851  5.327160  0.037776
N    -4.221522  5.886899  -1.050673
N    -3.040643  6.090452  0.931811
H    -1.448754  1.161383  2.184304
H    -2.940625  1.257231  3.085208
H    -4.234793  1.449279  0.897969
H    -2.706583  1.493528  0.020120
H    -2.024831  3.549388  1.295409
H    -3.530378  3.451816  2.244827
H    -4.457436  3.506823  -0.342890
H    -4.510084  5.332763  -1.848221
H    -4.355175  6.889898  -1.118102
H    -2.861007  7.070975  0.744361
H    -2.861062  5.768657  1.874582
N    -4.774692  -1.203611  0.906304
C    -5.636531  -0.880567  2.044465
H    -5.219749  -1.604024  0.082474
H    -6.671493  -0.851779  1.691212
H    -5.407826  0.106208  2.467322
H    -5.574425  -1.639121  2.837253
Sr    1.701997  -4.245552  1.130582
