37
Energy: -108386.264926 eV PBE+vdW (tier 2 basis)
C    0.156638  -1.873427  1.371681
C    0.327632  -0.499258  1.926975
O    1.521639  -0.021040  2.117815
H    -0.050082  -2.576903  2.195392
H    1.073990  -2.198981  0.872505
H    -0.684902  -1.945221  0.669977
N    -0.720337  0.242455  2.252557
C    -2.140278  -0.150186  2.087569
C    -2.594566  -0.115930  0.589372
O    -2.897956  -1.192875  0.086405
H    -0.521439  1.169998  2.628709
H    -2.197933  -1.219809  2.320974
C    -3.057144  0.593179  3.075690
C    -4.521474  0.151486  2.895974
C    -5.458374  0.740857  3.958176
N    -6.821688  0.237409  3.757072
C    -7.949304  0.801228  4.226759
N    -9.137276  0.347858  3.809152
N    -7.892185  1.827129  5.085166
H    -2.973916  1.682731  2.949765
H    -2.719003  0.361001  4.097668
H    -4.571423  -0.948468  2.941318
H    -4.883653  0.439696  1.897994
H    -5.481365  1.837982  3.879604
H    -5.099121  0.476949  4.967164
H    -6.918221  -0.679284  3.330360
H    -9.995587  0.594130  4.289677
H    -9.222627  -0.254369  2.998667
H    -8.727490  2.349391  5.326041
H    -7.066711  2.006380  5.642534
N    -2.619900  1.052523  -0.099369
C    -2.417601  2.422939  0.352168
H    -2.944417  0.928356  -1.057037
H    -2.262317  3.055183  -0.527799
H    -1.520414  2.523015  0.976947
H    -3.283355  2.821371  0.900353
Sr    3.703130  0.198272  2.202679
