37
Energy: -108386.577556 eV PBE+vdW (tier 2 basis)
C    -0.626716  1.025451  -0.331169
C    -0.030968  0.113698  0.687619
O    1.256120  -0.019411  0.777465
H    0.141530  1.663550  -0.775431
H    -1.412939  1.658674  0.100800
H    -1.095350  0.436778  -1.136155
N    -0.810769  -0.579722  1.506152
C    -2.292941  -0.628732  1.493539
C    -3.007741  0.627149  2.061296
O    -4.099729  0.924934  1.568993
H    -0.338709  -1.203302  2.163514
H    -2.610443  -0.671422  0.443930
C    -2.742489  -1.913247  2.232974
C    -4.254374  -2.051078  2.478687
C    -5.107696  -2.209935  1.206583
N    -6.540987  -2.235290  1.488436
C    -7.376849  -1.183046  1.407544
N    -8.697976  -1.393542  1.492043
N    -6.907138  0.056375  1.238971
H    -2.246312  -1.937812  3.217190
H    -2.372311  -2.782142  1.666462
H    -4.621133  -1.196537  3.064272
H    -4.399241  -2.935609  3.114956
H    -4.859425  -3.149566  0.693715
H    -4.924204  -1.401001  0.487787
H    -6.944694  -3.118082  1.784961
H    -9.348427  -0.625405  1.608124
H    -9.097314  -2.320189  1.400157
H    -5.920432  0.299601  1.351693
H    -7.543563  0.811175  1.011393
N    -2.422176  1.294670  3.070406
C    -3.054099  2.432647  3.744564
H    -1.567415  0.925527  3.472796
H    -2.277417  3.102563  4.125811
H    -3.681102  2.096244  4.580549
H    -3.678875  2.969916  3.025302
Sr    3.443701  -0.006483  0.486250
