37
Energy: -108385.712438 eV PBE+vdW (tier 2 basis)
C    0.359161  -0.049462  0.430832
C    0.093979  0.256839  1.870074
O    1.012654  0.831863  2.580920
H    -0.487185  -0.531723  -0.070106
H    1.229372  -0.716680  0.348550
H    0.594419  0.877491  -0.111311
N    -1.076609  -0.077642  2.386958
C    -1.569045  0.104643  3.764446
C    -2.216651  -1.216436  4.294593
O    -3.368637  -1.201472  4.725743
H    -1.724664  -0.516407  1.734086
H    -0.681943  0.301828  4.383380
C    -2.512645  1.323672  3.897166
C    -3.644836  1.552453  2.874135
C    -4.839509  0.582840  2.834442
N    -5.543690  0.435982  4.106580
C    -6.797496  0.821867  4.387657
N    -7.432768  0.272017  5.431388
N    -7.426407  1.750543  3.653922
H    -1.875451  2.219631  3.864261
H    -2.921792  1.284129  4.915670
H    -3.235680  1.603252  1.851709
H    -4.024606  2.565362  3.074535
H    -4.526064  -0.425245  2.529070
H    -5.548129  0.921130  2.067467
H    -5.069856  -0.186286  4.762861
H    -8.282584  0.677116  5.807280
H    -7.105201  -0.587708  5.855326
H    -8.422094  1.910394  3.756506
H    -6.927814  2.360994  3.020783
N    -1.471250  -2.344005  4.289983
C    -0.064089  -2.536167  3.966797
H    -1.972353  -3.151577  4.658395
H    0.303501  -3.405096  4.522176
H    0.535670  -1.671448  4.281002
H    0.095989  -2.729140  2.895995
Sr    2.924792  1.829579  3.067604
