37
Energy: -108385.582440 eV PBE+vdW (tier 2 basis)
C    -0.629112  0.290252  -1.669638
C    -0.801810  0.363036  -0.179781
O    0.035324  -0.039469  0.625361
H    -1.391968  0.833870  -2.237867
H    -0.645286  -0.766931  -1.971749
H    0.361639  0.677789  -1.937287
N    -1.990793  0.939365  0.265011
C    -2.439105  0.827743  1.655343
C    -3.756163  1.574066  1.824869
O    -4.642679  1.135036  2.656758
H    -2.724182  0.938448  -0.441414
H    -2.655473  -0.224819  1.908577
C    -1.421524  1.334039  2.739080
C    -0.746976  2.705196  2.521250
C    0.722522  2.698283  2.064000
N    1.636951  2.117764  3.057098
C    2.654769  1.262382  2.801783
N    2.606628  0.419480  1.770616
N    3.710074  1.253568  3.628585
H    -0.666574  0.548364  2.844838
H    -1.978123  1.344624  3.688105
H    -0.810659  3.278611  3.457365
H    -1.289660  3.317292  1.785083
H    1.028529  3.738372  1.875202
H    0.848799  2.155398  1.124715
H    1.722473  2.631643  3.929920
H    3.435544  -0.097705  1.500559
H    1.731813  0.203740  1.280993
H    3.923904  2.041207  4.229358
H    4.389339  0.500991  3.605734
N    -3.961471  2.681872  1.144279
C    -5.141108  3.547231  1.224481
H    -3.208514  2.957437  0.512316
H    -5.283764  3.908866  2.250188
H    -6.035247  3.010951  0.881684
H    -4.984557  4.408414  0.569308
Sr    -6.210989  0.248045  3.925827
