37
Energy: -108386.418579 eV PBE+vdW (tier 2 basis)
C    -2.306425  -0.120115  0.776561
C    -1.572408  -0.024057  2.079570
O    -0.326632  0.013919  2.126114
H    -2.133728  0.803339  0.206154
H    -3.384868  -0.280532  0.879190
H    -1.870703  -0.935188  0.185247
N    -2.335163  0.045606  3.213145
C    -1.898449  0.019133  4.619333
C    -0.927656  1.152903  4.998488
O    -1.168661  1.847915  6.075945
H    -3.341065  0.040358  3.076727
H    -2.807140  0.252680  5.188731
C    -1.449816  -1.386014  5.132715
C    -0.204497  -2.041866  4.517896
C    0.133172  -3.418338  5.126286
N    -0.720311  -4.531192  4.687884
C    -0.371372  -5.494494  3.811722
N    -1.050469  -6.647604  3.794327
N    0.636255  -5.309211  2.951182
H    -2.328114  -2.033500  4.985904
H    -1.315727  -1.300439  6.224147
H    0.678546  -1.405922  4.678585
H    -0.314075  -2.140029  3.430165
H    0.077255  -3.383248  6.223853
H    1.172962  -3.679811  4.891018
H    -1.571583  -4.702923  5.212404
H    -0.948921  -7.308023  3.031045
H    -1.615704  -6.945785  4.581184
H    1.030298  -4.394641  2.774789
H    1.031221  -6.087312  2.434239
N    0.113260  1.383609  4.249592
C    1.099508  2.431695  4.479686
H    0.130088  0.787363  3.341754
H    1.877425  2.351061  3.715105
H    1.570935  2.318141  5.465587
H    0.642439  3.428452  4.391788
Sr    -1.429553  3.361281  7.626269
