37
Energy: -108386.695824 eV PBE+vdW (tier 2 basis)
C    -0.938655  -0.146412  -0.666790
C    -0.317157  -0.151921  0.693890
O    0.892202  0.198399  0.833778
H    -0.336995  0.490678  -1.323266
H    -1.968402  0.222763  -0.646539
H    -0.945312  -1.161760  -1.092863
N    -1.023905  -0.503408  1.802911
C    -1.836367  -1.724332  1.930002
C    -0.875763  -2.941723  1.728954
O    0.299555  -2.750384  1.268249
H    -0.509563  -0.279883  2.656032
H    -2.133130  -1.746172  2.990798
C    -3.153923  -1.764163  1.114532
C    -4.096059  -0.606311  1.503637
C    -5.587410  -0.800756  1.191523
N    -5.918841  -0.647209  -0.233274
C    -7.133888  -0.936887  -0.757312
N    -7.339184  -0.771178  -2.068483
N    -8.112122  -1.419651  0.013901
H    -3.645886  -2.718579  1.344406
H    -2.954288  -1.790034  0.036382
H    -3.746732  0.347364  1.077850
H    -4.046823  -0.459727  2.593344
H    -6.149007  -0.064329  1.789684
H    -5.906270  -1.804808  1.508897
H    -5.381074  0.042388  -0.750631
H    -8.271924  -0.807581  -2.466242
H    -6.574983  -0.612698  -2.714017
H    -8.974612  -1.764719  -0.395394
H    -8.106782  -1.304365  1.020058
N    -1.251150  -4.159647  2.083300
C    -2.476294  -4.617849  2.747559
H    -0.554970  -4.883262  1.897053
H    -3.195006  -5.006841  2.015212
H    -2.931693  -3.814334  3.334141
H    -2.207161  -5.428361  3.433316
Sr    2.335584  -1.608672  1.025254
