37
Energy: -108386.717836 eV PBE+vdW (tier 2 basis)
C    0.698591  1.372189  1.075492
C    0.288407  0.693849  2.334922
O    1.150074  0.220666  3.134450
H    1.344800  2.236518  1.282170
H    -0.138162  1.668673  0.437040
H    1.324249  0.657950  0.516136
N    -1.030382  0.531929  2.643641
C    -1.983137  1.642859  2.647876
C    -1.639588  2.519006  3.894685
O    -0.765972  2.105231  4.729148
H    -1.153128  -0.101687  3.433840
H    -1.777198  2.263470  1.762906
C    -3.444966  1.141838  2.516306
C    -3.996238  0.289124  3.671104
C    -5.259739  -0.518204  3.322654
N    -6.451480  0.316806  3.120186
C    -7.567663  -0.092090  2.470160
N    -8.578543  0.767263  2.303947
N    -7.654245  -1.325814  1.964977
H    -3.462490  0.558350  1.583946
H    -4.097594  2.006006  2.339434
H    -4.180359  0.905238  4.566215
H    -3.263349  -0.472127  3.980740
H    -5.439651  -1.246815  4.129419
H    -5.079906  -1.079616  2.394482
H    -6.593315  1.073345  3.783976
H    -9.493471  0.453224  1.997181
H    -8.469826  1.760834  2.468624
H    -7.076110  -2.085232  2.303526
H    -8.418810  -1.581820  1.348026
N    -2.209898  3.700600  4.066410
C    -3.131361  4.431729  3.190313
H    -1.924948  4.187392  4.917707
H    -2.898301  5.499183  3.264919
H    -4.171729  4.281598  3.504618
H    -3.008530  4.128720  2.146319
Sr    1.278531  1.088584  5.286803
