37
Energy: -108388.078166 eV PBE+vdW (tier 2 basis)
C    1.260387  -0.520664  -0.234155
C    0.790833  0.225832  0.969005
O    0.748197  1.493036  0.976646
H    0.577863  -0.299220  -1.068429
H    1.303273  -1.605220  -0.090163
H    2.251610  -0.155075  -0.533446
N    0.399723  -0.476852  2.047705
C    -0.242470  0.070956  3.258688
C    0.818953  0.793139  4.128244
O    1.104795  2.000244  3.860927
H    0.471861  -1.489939  1.981772
H    -0.924818  0.869722  2.929613
C    -1.070198  -1.047397  3.924267
C    -2.010358  -0.596378  5.056704
C    -2.907889  -1.757898  5.519301
N    -3.832986  -1.328542  6.571559
C    -4.476231  -2.151486  7.427681
N    -5.165365  -1.627723  8.446794
N    -4.403937  -3.479136  7.282515
H    -0.407518  -1.857130  4.277368
H    -1.674920  -1.496378  3.120868
H    -2.645100  0.227235  4.691807
H    -1.443842  -0.209697  5.916788
H    -2.287058  -2.570858  5.924236
H    -3.466305  -2.155931  4.654914
H    -4.170194  -0.371268  6.535794
H    -5.822495  -2.185933  8.981728
H    -5.043394  -0.664062  8.735894
H    -4.754120  -4.098911  8.006095
H    -4.179740  -3.907439  6.392788
N    1.416104  0.132341  5.105469
C    2.470334  0.671621  5.971775
H    1.157110  -0.840860  5.245369
H    2.361707  1.756662  6.044881
H    3.460349  0.425117  5.566228
H    2.373305  0.225384  6.966312
Sr    1.278532  3.432706  2.043460
