37
Energy: -108387.764519 eV PBE+vdW (tier 2 basis)
C    -2.485248  -0.480046  -0.150500
C    -1.940872  -0.371138  1.237953
O    -1.156614  -1.257679  1.689141
H    -3.016119  -1.437686  -0.247586
H    -1.652268  -0.510412  -0.866577
H    -3.161128  0.335283  -0.428542
N    -2.314041  0.694240  1.971951
C    -2.030769  1.031343  3.385756
C    -0.526829  1.235317  3.660133
O    0.281195  0.253636  3.667725
H    -2.925922  1.348113  1.491247
H    -2.512404  2.007110  3.519742
C    -2.668922  0.062113  4.411258
C    -4.205314  0.158914  4.454537
C    -4.821420  -0.776312  5.513087
N    -6.288272  -0.760032  5.512169
C    -7.102841  -0.408629  6.529276
N    -8.360509  -0.860782  6.545307
N    -6.674625  0.386676  7.517305
H    -2.251532  0.310710  5.399732
H    -2.354753  -0.968791  4.192519
H    -4.625212  -0.095502  3.469111
H    -4.509679  1.196130  4.664582
H    -4.472031  -0.519521  6.521529
H    -4.500436  -1.814169  5.335236
H    -6.745043  -1.220010  4.729988
H    -9.065051  -0.441159  7.143354
H    -8.649314  -1.662112  5.995062
H    -7.224582  0.507360  8.361253
H    -5.870411  0.989644  7.407431
N    -0.084083  2.453532  3.934072
C    -0.809505  3.732522  3.970142
H    0.911421  2.494158  4.158726
H    -1.350827  3.909482  3.033909
H    -0.070432  4.530547  4.085242
H    -1.494231  3.777131  4.825995
Sr    0.841621  -1.735981  2.682732
