37
Energy: -108386.550534 eV PBE+vdW (tier 2 basis)
C    -0.407390  -1.520644  1.290911
C    0.201130  -0.178512  1.523004
O    1.494958  -0.092908  1.633529
H    -0.134794  -2.187598  2.121335
H    0.006010  -1.957621  0.371036
H    -1.496605  -1.505812  1.209489
N    -0.523073  0.916927  1.621102
C    -1.972638  1.099019  1.415738
C    -2.111593  2.557752  0.924141
O    -1.342620  3.421727  1.388220
H    -0.052850  1.820777  1.777166
H    -2.296188  0.415079  0.620369
C    -2.839490  0.823462  2.677020
C    -2.362315  1.319132  4.052479
C    -2.321928  2.822339  4.355472
N    -3.633615  3.477665  4.227284
C    -3.833771  4.749782  3.819823
N    -4.906061  5.417407  4.264645
N    -2.997337  5.332161  2.954133
H    -2.960873  -0.266519  2.754411
H    -3.845503  1.210886  2.456380
H    -1.354307  0.931628  4.267082
H    -3.008301  0.827719  4.796164
H    -1.613631  3.337206  3.701979
H    -1.962981  2.952617  5.388132
H    -4.378766  3.086486  4.798731
H    -5.409843  5.125648  5.094714
H    -5.208453  6.282407  3.830092
H    -3.030859  6.334299  2.807382
H    -2.315652  4.791835  2.414373
N    -3.084758  2.790781  0.039665
C    -3.383947  4.107328  -0.525869
H    -3.648548  2.008456  -0.280851
H    -3.636262  3.993029  -1.585042
H    -2.500219  4.745165  -0.432929
H    -4.232903  4.572358  -0.008351
Sr    3.667961  -0.397914  1.597580
