37
Energy: -108386.790075 eV PBE+vdW (tier 2 basis)
C    -1.384631  0.525050  0.884668
C    -1.210909  -0.027545  2.263259
O    -0.365899  0.499402  3.046824
H    -2.424763  0.496391  0.547814
H    -0.772940  -0.038790  0.162748
H    -1.028843  1.561125  0.880543
N    -1.957658  -1.069969  2.725350
C    -2.136435  -2.357717  2.034412
C    -0.725274  -3.021578  1.923868
O    0.320668  -2.320747  2.134615
H    -1.839653  -1.183943  3.733245
H    -2.715903  -2.973533  2.739997
C    -2.931772  -2.324733  0.708204
C    -4.383494  -1.847124  0.894766
C    -5.177364  -1.881626  -0.421213
N    -6.563570  -1.457626  -0.202269
C    -7.612512  -1.755577  -0.996745
N    -8.852845  -1.489169  -0.574278
N    -7.422738  -2.337098  -2.186827
H    -2.938570  -3.347057  0.306783
H    -2.408631  -1.720548  -0.043813
H    -4.392652  -0.824606  1.304347
H    -4.890248  -2.485753  1.634555
H    -5.194939  -2.906823  -0.819579
H    -4.691312  -1.235549  -1.172159
H    -6.736822  -0.779701  0.533635
H    -9.056301  -1.293964  0.399322
H    -9.641371  -1.499364  -1.212731
H    -8.208345  -2.701748  -2.715820
H    -6.540140  -2.269692  -2.678219
N    -0.610521  -4.312106  1.657933
C    -1.643885  -5.339605  1.489618
H    0.353550  -4.642042  1.587354
H    -1.827351  -5.534689  0.425331
H    -2.574966  -5.048730  1.984598
H    -1.284481  -6.263873  1.954962
Sr    1.620786  -0.690474  3.201551
