37
Energy: -108387.929258 eV PBE+vdW (tier 2 basis)
C    -0.843393  -0.009484  0.308874
C    -0.485613  -0.234733  1.741807
O    0.336803  -1.145000  2.063104
H    -1.300982  -0.929063  -0.084880
H    0.070662  0.161548  -0.275634
H    -1.532402  0.826307  0.149365
N    -1.062114  0.555942  2.663503
C    -1.032633  0.489266  4.144379
C    0.387432  0.703812  4.716420
O    1.286052  -0.186739  4.623727
H    -1.695429  1.257268  2.287385
H    -1.631639  1.359342  4.446841
C    -1.746853  -0.764406  4.705345
C    -2.208581  -0.595899  6.165414
C    -3.148983  -1.730373  6.608112
N    -3.618144  -1.520448  7.980868
C    -4.792295  -1.948944  8.490299
N    -5.188878  -1.502623  9.686798
N    -5.570692  -2.791308  7.801519
H    -1.103529  -1.649197  4.596314
H    -2.622075  -0.934652  4.061446
H    -2.744912  0.359514  6.274715
H    -1.337976  -0.554759  6.839926
H    -2.640934  -2.705342  6.521131
H    -4.029846  -1.749292  5.950615
H    -2.954740  -1.140470  8.649320
H    -4.773249  -0.684737  10.117539
H    -5.941786  -1.954201  10.195545
H    -6.519646  -2.984692  8.105166
H    -5.195642  -3.393866  7.079584
N    0.609872  1.853986  5.335109
C    1.874781  2.251686  5.960268
H    -0.140917  2.540369  5.348969
H    2.474367  2.847619  5.259552
H    2.432254  1.360417  6.259130
H    1.655219  2.861135  6.842645
Sr    2.207443  -1.742989  3.189783
