37
Energy: -108387.672997 eV PBE+vdW (tier 2 basis)
C    0.517738  -1.755597  1.223324
C    0.186364  -0.661621  2.181894
O    0.962788  0.327108  2.336712
H    0.573318  -1.326175  0.211820
H    -0.209055  -2.574529  1.221613
H    1.514487  -2.156999  1.449334
N    -0.967286  -0.740087  2.873576
C    -1.522535  0.322288  3.728931
C    -0.767439  0.371290  5.083456
O    0.325334  1.015088  5.132031
H    -1.534668  -1.568577  2.716236
H    -1.240142  1.273008  3.252797
C    -3.073113  0.302430  3.721546
C    -3.830770  -0.948695  4.220316
C    -5.252189  -1.114289  3.644210
N    -6.223564  -0.154029  4.176576
C    -7.550611  -0.388531  4.306825
N    -8.304915  0.493043  4.971609
N    -8.105577  -1.494787  3.803790
H    -3.351447  0.487313  2.672097
H    -3.395385  1.194198  4.279117
H    -3.913437  -0.966394  5.318557
H    -3.302417  -1.873205  3.937916
H    -5.604476  -2.118769  3.913325
H    -5.213138  -1.055635  2.543151
H    -5.945399  0.819251  4.250977
H    -7.899120  1.183073  5.593027
H    -9.318075  0.466246  4.917463
H    -9.054116  -1.758391  4.052437
H    -7.677004  -2.015444  3.047943
N    -1.245526  -0.248791  6.148201
C    -0.590899  -0.270147  7.462429
H    -2.110371  -0.771085  6.048935
H    0.208621  -1.022005  7.481434
H    -1.337712  -0.524095  8.219672
H    -0.170186  0.715873  7.681799
Sr    2.086917  1.690667  3.785925
