37
Energy: -108388.093964 eV PBE+vdW (tier 2 basis)
C    2.351601  1.557292  2.466575
C    1.163614  1.666516  1.568817
O    1.196873  1.211589  0.386711
H    3.220503  2.028730  1.987819
H    2.600684  0.493121  2.589237
H    2.200666  2.005676  3.454054
N    0.050675  2.252197  2.049344
C    -1.248551  2.353354  1.360233
C    -1.179781  3.450550  0.262891
O    -0.633141  3.159808  -0.845576
H    0.109479  2.642555  2.986962
H    -1.387822  1.415342  0.801037
C    -2.396817  2.503859  2.377375
C    -2.669602  1.245235  3.224804
C    -3.840555  1.466754  4.197377
N    -4.106375  0.260466  4.986213
C    -5.266237  -0.023057  5.615923
N    -5.446314  -1.238996  6.142336
N    -6.241543  0.889047  5.692710
H    -3.307115  2.753476  1.812078
H    -2.195876  3.359904  3.045687
H    -1.770012  0.966642  3.796547
H    -2.905477  0.398115  2.563439
H    -4.751493  1.708271  3.629983
H    -3.617843  2.319103  4.861921
H    -3.315916  -0.333758  5.216686
H    -6.200335  -1.424977  6.795293
H    -4.856294  -2.023522  5.890304
H    -7.166510  0.631833  6.021913
H    -6.054194  1.879840  5.602051
N    -1.676768  4.650192  0.505228
C    -1.673315  5.780032  -0.431196
H    -2.095332  4.816668  1.416874
H    -1.518802  5.409646  -1.446943
H    -0.875034  6.485600  -0.167136
H    -2.638605  6.293455  -0.369854
Sr    0.888563  1.728446  -1.822717
