37
Energy: -108386.768324 eV PBE+vdW (tier 2 basis)
C    -1.400567  0.755005  0.033897
C    -0.481469  0.480746  1.179106
O    0.730854  0.842178  1.127026
H    -2.386450  1.095670  0.367742
H    -1.547063  -0.153785  -0.572187
H    -0.949167  1.516264  -0.610284
N    -0.917156  -0.152711  2.305754
C    -1.686382  -1.408569  2.310113
C    -0.856362  -2.466865  1.502674
O    0.323720  -2.187843  1.115904
H    -0.213934  -0.117533  3.043595
H    -1.649775  -1.746815  3.357727
C    -3.173931  -1.296653  1.896982
C    -4.004384  -0.235783  2.653272
C    -4.631855  -0.726154  3.969782
N    -5.465027  0.325338  4.560309
C    -6.599232  0.145070  5.268128
N    -7.401180  1.189869  5.497530
N    -6.938116  -1.068166  5.720874
H    -3.643495  -2.281772  2.042745
H    -3.244661  -1.102941  0.820283
H    -4.818641  0.085879  1.989692
H    -3.384231  0.654034  2.844377
H    -3.857821  -1.044896  4.688479
H    -5.279066  -1.590968  3.764942
H    -5.131220  1.281873  4.487803
H    -8.129484  1.151236  6.203165
H    -7.331790  2.046186  4.959280
H    -7.862294  -1.236054  6.105491
H    -6.244956  -1.788724  5.879817
N    -1.388021  -3.652653  1.273634
C    -0.701407  -4.760509  0.594701
H    -2.335053  -3.826232  1.598359
H    -1.377522  -5.618783  0.567302
H    0.207321  -5.036815  1.142104
H    -0.442918  -4.476257  -0.432004
Sr    2.232088  -0.889566  0.727428
