37
Energy: -108386.178602 eV PBE+vdW (tier 2 basis)
C    0.201046  0.948909  -0.167572
C    0.143109  0.392610  1.223457
O    1.100194  0.000725  1.853233
H    1.069169  1.612397  -0.263188
H    -0.708420  1.471543  -0.489637
H    0.371559  0.113818  -0.866162
N    -1.197304  0.339247  1.810326
C    -1.364550  -0.594593  2.976548
C    -2.859939  -0.612450  3.288995
O    -3.470453  0.514505  3.293864
H    -1.837036  0.062465  1.054397
H    -1.011232  -1.594705  2.683676
C    -0.592411  -0.106677  4.241009
C    -0.029348  -1.239929  5.120593
C    1.137078  -2.055814  4.532552
N    2.387345  -1.313958  4.349249
C    3.516214  -1.478693  5.069650
N    3.482276  -2.010897  6.296184
N    4.686904  -1.090682  4.550468
H    -1.270882  0.497361  4.866181
H    0.226199  0.549944  3.925177
H    -0.832060  -1.948473  5.380148
H    0.282744  -0.793935  6.075819
H    0.874481  -2.483618  3.554372
H    1.334706  -2.917513  5.183070
H    2.471303  -0.788690  3.482434
H    2.625583  -2.085396  6.829099
H    4.334751  -2.304671  6.761548
H    4.809643  -0.964602  3.552352
H    5.519030  -1.013194  5.125996
N    -3.460622  -1.745572  3.582409
C    -4.865747  -1.900761  3.980617
H    -2.909790  -2.599978  3.512784
H    -4.909907  -2.432113  4.938642
H    -5.394762  -2.489637  3.221096
H    -5.327866  -0.916527  4.078851
Sr    -2.739819  2.536582  2.610733
