37
Energy: -108385.547748 eV PBE+vdW (tier 2 basis)
C    1.034488  0.096861  0.352460
C    0.584336  -0.059192  1.774027
O    1.306398  0.206974  2.746186
H    0.320765  -0.285324  -0.385613
H    1.995097  -0.418563  0.225591
H    1.216732  1.161226  0.148276
N    -0.703415  -0.513545  1.963537
C    -1.256773  -0.673935  3.300365
C    -1.791534  -2.098311  3.506491
O    -1.303304  -2.816619  4.473752
H    -1.294958  -0.586463  1.142864
H    -0.379279  -0.603125  3.957774
C    -2.300233  0.396195  3.737199
C    -1.925875  1.874482  3.499460
C    -1.012259  2.587302  4.512944
N    0.416482  2.389095  4.268381
C    1.369928  3.325861  4.386552
N    2.574876  3.085839  3.847423
N    1.143350  4.484455  5.017993
H    -2.522143  0.234104  4.804072
H    -3.247720  0.216994  3.211757
H    -2.877592  2.423110  3.520844
H    -1.535247  2.020047  2.481409
H    -1.272856  2.284113  5.540710
H    -1.225468  3.662149  4.433433
H    0.720429  1.511268  3.825606
H    2.720681  2.272748  3.258837
H    3.377751  3.665732  4.060143
H    0.327199  4.627047  5.598438
H    1.819140  5.239425  4.987241
N    -2.734382  -2.630529  2.754577
C    -3.456908  -2.094603  1.592768
H    -2.986508  -3.589768  2.996017
H    -3.410860  -1.004501  1.559896
H    -4.509095  -2.389114  1.676244
H    -3.044849  -2.522917  0.669399
Sr    -0.429466  -4.143384  5.999678
