37
Energy: -108386.282841 eV PBE+vdW (tier 2 basis)
C    -1.733857  -0.761008  -0.086201
C    -1.413483  -0.559704  1.365025
O    -0.237243  -0.501605  1.774468
H    -1.494892  0.165181  -0.629073
H    -2.778621  -1.024528  -0.283072
H    -1.072963  -1.535272  -0.493543
N    -2.474247  -0.415741  2.214407
C    -2.466058  -0.296259  3.682569
C    -1.667860  0.906760  4.217047
O    -2.208190  1.656424  5.136097
H    -3.396526  -0.435988  1.790494
H    -3.505897  -0.052039  3.935439
C    -2.167200  -1.614011  4.466515
C    -0.770355  -2.268479  4.383276
C    -0.578736  -3.387667  3.349329
N    -1.191440  -4.647878  3.799805
C    -1.253199  -5.776726  3.064163
N    -1.886658  -6.850432  3.550041
N    -0.717934  -5.815481  1.838022
H    -2.944289  -2.329257  4.157366
H    -2.387713  -1.387174  5.520497
H    -0.518733  -2.676441  5.374602
H    0.006861  -1.520854  4.187606
H    0.503631  -3.527099  3.196886
H    -1.020686  -3.115632  2.381206
H    -1.318490  -4.762906  4.800953
H    -1.795121  -7.761399  3.113597
H    -2.469657  -6.797708  4.376839
H    -0.001450  -5.158230  1.555130
H    -0.854064  -6.622181  1.237942
N    -0.467767  1.137168  3.761445
C    0.393978  2.239726  4.171679
H    -0.171769  0.467981  2.970373
H    1.346366  2.151856  3.641207
H    0.595344  2.199749  5.250975
H    -0.054173  3.207915  3.905144
Sr    -2.910145  3.214498  6.496682
