37
Energy: -108387.152188 eV PBE+vdW (tier 2 basis)
C    -1.077428  -1.531060  -0.426183
C    -1.092738  -1.475051  1.064799
O    -0.826590  -2.500862  1.761053
H    -1.311056  -0.574282  -0.904563
H    -1.796876  -2.287424  -0.770005
H    -0.085538  -1.868545  -0.759040
N    -1.393333  -0.307169  1.663057
C    -1.379133  -0.067124  3.116533
C    -2.509871  -0.880717  3.809039
O    -2.185544  -2.003660  4.319170
H    -1.621264  0.479199  1.058856
H    -0.463759  -0.532870  3.511316
C    -1.363410  1.444784  3.426428
C    -0.044949  2.213370  3.182750
C    0.999406  2.129597  4.323274
N    1.761281  3.371092  4.507613
C    3.042467  3.611900  4.168868
N    3.663760  2.853428  3.252891
N    3.703735  4.607633  4.764670
H    -1.667070  1.576374  4.476069
H    -2.146533  1.935509  2.833752
H    -0.324588  3.269843  3.069632
H    0.407202  1.928230  2.220037
H    1.714507  1.308782  4.182899
H    0.490765  1.938634  5.279536
H    1.304163  4.102853  5.044275
H    4.664991  2.937369  3.111311
H    3.142352  2.378060  2.528174
H    3.378686  5.023981  5.630845
H    4.560827  4.983616  4.371826
N    -3.770112  -0.479100  3.876306
C    -4.448796  0.698678  3.320176
H    -4.367153  -1.117681  4.404760
H    -4.355376  1.563701  3.987704
H    -5.510750  0.452832  3.222489
H    -4.067743  0.941371  2.323974
Sr    -1.204782  -3.928418  3.517288
