37
Energy: -108386.382996 eV PBE+vdW (tier 2 basis)
C    -0.807023  0.067938  -0.255031
C    -0.224764  -0.333379  1.060358
O    0.529552  -1.386235  1.143471
H    -1.877232  -0.192546  -0.290379
H    -0.303793  -0.456339  -1.072087
H    -0.729262  1.148889  -0.427325
N    -0.474025  0.374148  2.154874
C    -1.420673  1.509657  2.281775
C    -0.813221  2.921346  2.068560
O    -1.593824  3.873348  2.138248
H    -0.057096  0.026287  3.020161
H    -2.153041  1.399331  1.471335
C    -2.199053  1.420527  3.614374
C    -1.464588  1.846289  4.902290
C    -1.633617  3.314969  5.339763
N    -3.020899  3.666473  5.660395
C    -3.741251  4.672615  5.118842
N    -4.782987  5.162796  5.805781
N    -3.447807  5.158096  3.912288
H    -2.563028  0.387727  3.710943
H    -3.105845  2.026319  3.484770
H    -0.379122  1.659755  4.837075
H    -1.812176  1.204770  5.724548
H    -1.269682  4.013777  4.580487
H    -1.023818  3.482893  6.239203
H    -3.398838  3.269240  6.515773
H    -5.467339  5.765887  5.363568
H    -4.878932  5.019048  6.804301
H    -3.871115  6.023261  3.596870
H    -2.810266  4.680230  3.266605
N    0.497318  3.037447  1.796659
C    1.152531  4.326603  1.555546
H    1.077276  2.206896  1.808690
H    0.391934  5.057289  1.267661
H    1.880012  4.220550  0.744198
H    1.667772  4.679014  2.458203
Sr    1.583077  -3.290377  0.756095
