37
Energy: -108387.271615 eV PBE+vdW (tier 2 basis)
C    -0.468724  0.376709  0.246686
C    -0.439267  0.133163  1.720859
O    0.325451  -0.751061  2.209289
H    -1.143033  1.183883  -0.057551
H    -0.775511  -0.553080  -0.254506
H    0.545747  0.603986  -0.107887
N    -1.247064  0.882491  2.493765
C    -1.555390  0.795194  3.939845
C    -0.313857  1.039288  4.824687
O    0.605743  0.166769  4.923222
H    -1.800743  1.568536  1.987126
H    -2.236292  1.638390  4.105525
C    -2.329258  -0.489311  4.327075
C    -2.965009  -0.386026  5.726152
C    -3.816463  -1.589319  6.172347
N    -5.159755  -1.609631  5.582204
C    -6.273367  -2.072441  6.191812
N    -7.468912  -1.831555  5.641800
N    -6.195835  -2.747705  7.342897
H    -1.667100  -1.365076  4.269549
H    -3.095767  -0.628101  3.549831
H    -3.580415  0.524231  5.799841
H    -2.170454  -0.280003  6.480452
H    -3.942720  -1.520258  7.260526
H    -3.289762  -2.534269  5.958437
H    -5.255689  -1.397643  4.594670
H    -7.602743  -1.104443  4.948893
H    -8.298299  -2.331270  5.945451
H    -7.029370  -2.936380  7.890656
H    -5.348374  -3.220883  7.631343
N    -0.229887  2.167224  5.515021
C    -1.146511  3.317436  5.551249
H    0.601394  2.235821  6.104292
H    -2.089911  3.058564  6.047281
H    -1.336263  3.707236  4.544780
H    -0.663807  4.108848  6.131691
Sr    1.916298  -1.304796  3.731401
