37
Energy: -108386.506574 eV PBE+vdW (tier 2 basis)
C    -1.069785  -0.760171  0.067802
C    -0.596463  0.048464  1.234069
O    0.664222  0.351142  1.328295
H    -0.836188  -0.234088  -0.868783
H    -2.146945  -0.954160  0.092742
H    -0.549808  -1.728897  0.052525
N    -1.476000  0.425853  2.135282
C    -1.305793  1.168038  3.390034
C    -2.423591  0.608952  4.300127
O    -3.484462  0.249997  3.751665
H    -2.450544  0.100384  2.044376
H    -0.309112  0.951002  3.797220
C    -1.442933  2.702770  3.190662
C    -2.752732  3.277404  2.602415
C    -3.878957  3.694505  3.576311
N    -4.924750  2.684596  3.752203
C    -6.215359  2.948239  4.005518
N    -7.111910  1.951961  3.943849
N    -6.628272  4.186697  4.305234
H    -0.615634  3.001867  2.530767
H    -1.228698  3.175425  4.161253
H    -3.169165  2.627035  1.819251
H    -2.461313  4.197013  2.078617
H    -4.357268  4.591254  3.160145
H    -3.448438  3.980229  4.551183
H    -4.631912  1.700667  3.747214
H    -8.054587  2.066152  4.297813
H    -6.885304  1.066157  3.509308
H    -7.615581  4.416043  4.332669
H    -5.985220  4.906493  4.608792
N    -2.195848  0.597310  5.614348
C    -3.166201  0.138152  6.611417
H    -1.288041  0.902299  5.953771
H    -3.566935  0.987176  7.179262
H    -2.675842  -0.553646  7.304835
H    -3.979503  -0.380701  6.097541
Sr    2.798285  0.309325  0.778605
