37
Energy: -108387.767240 eV PBE+vdW (tier 2 basis)
C    -1.334450  0.472831  0.614605
C    -0.775292  0.126444  1.956337
O    0.038288  -0.837491  2.082739
H    -0.511719  0.663672  -0.087767
H    -2.005489  1.337921  0.622429
H    -1.880876  -0.400073  0.228312
N    -1.164352  0.870029  3.007373
C    -0.908426  0.700854  4.457072
C    0.592031  0.809198  4.816917
O    1.419571  -0.102300  4.510480
H    -1.802326  1.628153  2.778501
H    -1.402697  1.574115  4.905203
C    -1.591776  -0.555256  5.052215
C    -1.638182  -0.524522  6.591256
C    -2.381411  -1.692017  7.267263
N    -3.841476  -1.545282  7.251712
C    -4.679793  -1.983046  8.216552
N    -5.957910  -1.587959  8.202963
N    -4.243408  -2.787327  9.191137
H    -1.082315  -1.464462  4.701579
H    -2.604387  -0.584237  4.622410
H    -2.079562  0.421447  6.942481
H    -0.611689  -0.546095  6.987222
H    -2.071004  -1.718175  8.319856
H    -2.087767  -2.651736  6.810153
H    -4.284401  -1.212765  6.401719
H    -6.262254  -0.778173  7.675366
H    -6.658090  -2.051128  8.773054
H    -4.816624  -2.969753  10.008768
H    -3.411525  -3.354926  9.086014
N    0.962038  1.885336  5.494521
C    2.321600  2.171274  5.962547
H    0.257191  2.593320  5.687030
H    2.875931  1.235891  6.071950
H    2.261021  2.678149  6.931049
H    2.837570  2.828889  5.250627
Sr    2.042961  -1.571801  2.847360
