37
Energy: -108386.501843 eV PBE+vdW (tier 2 basis)
C    -1.114481  1.112032  1.632822
C    -0.798004  0.133018  2.715827
O    -0.410122  0.612462  3.858387
H    -1.218098  0.666971  0.642927
H    -0.333493  1.877347  1.579553
H    -2.066944  1.602199  1.891358
N    -1.167249  -1.164284  2.678716
C    -0.896660  -2.023301  1.514104
C    0.553364  -1.622628  1.040871
O    1.081895  -0.613764  1.534599
H    -1.010364  -1.628689  3.571923
H    -0.845557  -3.044144  1.921357
C    -1.958597  -1.997502  0.391973
C    -3.343701  -2.576325  0.752014
C    -3.475215  -4.088322  0.511622
N    -4.851273  -4.530839  0.764016
C    -5.477931  -5.561389  0.165702
N    -6.806171  -5.680210  0.277650
N    -4.788424  -6.454973  -0.554010
H    -1.547414  -2.535799  -0.475012
H    -2.094672  -0.969505  0.038354
H    -4.094856  -2.069774  0.130288
H    -3.592738  -2.334974  1.797786
H    -2.773127  -4.656660  1.145448
H    -3.238776  -4.310056  -0.539320
H    -5.374106  -4.042375  1.484441
H    -7.280702  -6.543475  0.035820
H    -7.388521  -4.904409  0.570977
H    -5.268014  -7.130686  -1.139323
H    -3.795595  -6.595349  -0.416981
N    1.134440  -2.406090  0.130517
C    2.480184  -2.170854  -0.401999
H    0.653876  -3.245760  -0.174715
H    2.682133  -1.096152  -0.404546
H    2.528054  -2.552710  -1.426292
H    3.236793  -2.679871  0.208803
Sr    0.847039  1.788261  5.196194
