37
Energy: -108386.883033 eV PBE+vdW (tier 2 basis)
C    -1.140419  2.913593  -0.828506
C    -0.662526  2.117362  0.338253
O    0.300323  2.525266  1.052278
H    -1.641486  3.833933  -0.492631
H    -1.809882  2.360699  -1.493432
H    -0.256097  3.238165  -1.395467
N    -1.245391  0.926879  0.650379
C    -2.694922  0.765507  0.760155
C    -3.157805  1.617619  1.994727
O    -2.298093  2.236355  2.699409
H    -0.728020  0.418073  1.370095
H    -3.164750  1.200566  -0.134976
C    -3.065975  -0.729967  0.897976
C    -2.683839  -1.639401  -0.290163
C    -3.757875  -1.760524  -1.384307
N    -3.329524  -2.718559  -2.408312
C    -4.126776  -3.539445  -3.122101
N    -3.583122  -4.557655  -3.796754
N    -5.452735  -3.356804  -3.143567
H    -4.143198  -0.815604  1.102334
H    -2.575013  -1.114534  1.805245
H    -2.493165  -2.645225  0.108218
H    -1.734245  -1.296872  -0.731218
H    -3.973228  -0.781801  -1.846246
H    -4.690743  -2.137469  -0.940782
H    -2.340946  -2.743026  -2.639995
H    -4.102276  -5.051570  -4.515326
H    -2.647981  -4.894068  -3.596310
H    -6.064859  -4.062287  -3.540736
H    -5.867689  -2.453037  -2.954372
N    -4.447373  1.680937  2.268415
C    -5.031621  2.434843  3.386765
H    -5.093198  1.185624  1.659226
H    -6.098213  2.201827  3.439573
H    -4.909140  3.513027  3.226735
H    -4.553505  2.143295  4.328278
Sr    -0.225777  3.198754  3.216348
