37
Energy: -108387.351716 eV PBE+vdW (tier 2 basis)
C    -1.652843  1.667989  1.533663
C    -0.999671  0.718111  2.484651
O    -0.460313  -0.346306  2.059393
H    -2.454486  1.135817  1.001262
H    -0.925652  1.980489  0.771707
H    -2.071793  2.559046  2.012557
N    -1.008977  1.037023  3.793149
C    -0.545181  0.260732  4.967055
C    0.980586  0.012539  4.939633
O    1.504277  -0.810141  4.129098
H    -1.434828  1.934164  4.009430
H    -0.741086  0.931889  5.815082
C    -1.335881  -1.050948  5.197069
C    -2.840874  -0.851011  5.477173
C    -3.240646  -0.475463  6.920973
N    -3.359319  -1.606445  7.849912
C    -4.515938  -2.146365  8.293175
N    -4.513055  -2.874766  9.414373
N    -5.659681  -1.966638  7.623920
H    -0.852001  -1.593623  6.024124
H    -1.222706  -1.690848  4.312060
H    -3.366295  -1.774933  5.197659
H    -3.237297  -0.075957  4.804058
H    -4.204035  0.050465  6.913419
H    -2.527854  0.233501  7.367797
H    -2.521258  -1.914855  8.330918
H    -3.766588  -2.805073  10.097036
H    -5.302252  -3.462409  9.663115
H    -6.552046  -2.205748  8.044033
H    -5.678798  -1.659533  6.660338
N    1.712739  0.671020  5.824961
C    3.166288  0.542328  5.977737
H    1.246941  1.344462  6.427989
H    3.431748  0.789712  7.009846
H    3.684393  1.234769  5.301444
H    3.470277  -0.484943  5.757911
Sr    1.385102  -1.681054  2.003283
