37
Energy: -108385.634983 eV PBE+vdW (tier 2 basis)
C    0.708770  0.271999  0.473337
C    0.373386  0.340289  1.932441
O    1.183768  0.648304  2.810923
H    1.046902  1.260490  0.134946
H    -0.122870  -0.058681  -0.158122
H    1.555024  -0.415247  0.340862
N    -0.925707  0.018726  2.292563
C    -1.309054  0.184392  3.690438
C    -2.223336  -0.978358  4.076009
O    -3.510670  -0.923237  3.957723
H    -1.628241  -0.043493  1.562686
H    -0.357767  0.026180  4.224670
C    -1.811549  1.596907  4.063218
C    -1.397941  2.048973  5.474848
C    0.088362  2.400150  5.657865
N    0.458568  3.661978  4.995840
C    1.676523  3.945476  4.470336
N    2.414311  2.995868  3.895159
N    2.118232  5.209188  4.511293
H    -2.904414  1.658830  3.950235
H    -1.398059  2.291678  3.319200
H    -1.638661  1.272268  6.218510
H    -2.007617  2.918073  5.764286
H    0.740268  1.608775  5.271649
H    0.298964  2.487225  6.734769
H    -0.067105  4.478315  5.298719
H    3.381440  3.183583  3.655063
H    2.007970  2.119311  3.550124
H    1.746881  5.884539  5.169791
H    2.900484  5.512209  3.940866
N    -1.647941  -2.081704  4.511210
C    -2.323291  -3.335137  4.846761
H    -0.631013  -2.070528  4.577569
H    -1.570033  -4.064681  5.157189
H    -2.850626  -3.737082  3.971189
H    -3.018498  -3.186665  5.683835
Sr    -5.708464  -1.069575  3.891374
