37
Energy: -108386.515434 eV PBE+vdW (tier 2 basis)
C    1.230188  -0.881275  1.726748
C    0.475824  0.410961  1.803527
O    0.977638  1.483581  1.410892
H    1.455139  -1.097351  0.673445
H    0.703833  -1.735285  2.165799
H    2.197041  -0.754625  2.231030
N    -0.795220  0.354098  2.307254
C    -1.706486  1.464259  2.629224
C    -2.028640  2.385514  1.438616
O    -3.278991  2.675045  1.200354
H    -1.127212  -0.565952  2.579091
H    -2.665802  0.974833  2.840065
C    -1.353507  2.235358  3.940435
C    0.050866  2.840350  4.088413
C    0.247778  3.437530  5.491383
N    1.615581  3.942319  5.651577
C    2.260100  4.112346  6.821485
N    1.608334  3.989509  7.983819
N    3.570748  4.383910  6.819280
H    -1.515858  1.510857  4.753017
H    -2.120126  3.015763  4.077491
H    0.222348  3.620129  3.330440
H    0.815291  2.069155  3.930143
H    0.082574  2.658107  6.249984
H    -0.481161  4.245903  5.670354
H    2.083852  4.295183  4.822659
H    2.114252  3.960739  8.862565
H    0.601595  4.076207  8.041522
H    4.143923  4.240714  5.996122
H    4.041869  4.718323  7.652821
N    -1.060126  2.860952  0.709626
C    -1.228588  3.720202  -0.455754
H    -0.087907  2.443840  0.967304
H    -0.238822  3.984585  -0.838478
H    -1.756300  4.645806  -0.188683
H    -1.770949  3.195424  -1.255896
Sr    -5.270741  3.068290  0.406409
