37
Energy: -108387.274163 eV PBE+vdW (tier 2 basis)
C    0.758266  1.203591  1.448963
C    0.347121  -0.152401  1.920599
O    1.218758  -1.031914  2.188341
H    1.321245  1.092108  0.510626
H    1.448286  1.649561  2.178185
H    -0.079081  1.888914  1.282108
N    -0.969691  -0.402151  2.048969
C    -1.661168  -1.674320  2.366603
C    -1.269493  -2.181135  3.775041
O    -0.190782  -2.825585  3.959465
H    -1.580644  0.374636  1.809948
H    -2.720256  -1.392615  2.404548
C    -1.481779  -2.749685  1.271347
C    -2.528307  -3.887943  1.281166
C    -3.777103  -3.588400  0.433080
N    -4.683492  -4.740066  0.416431
C    -5.522196  -5.077774  -0.585804
N    -6.099888  -6.283501  -0.579111
N    -5.762262  -4.228954  -1.591765
H    -0.479582  -3.187460  1.358418
H    -1.497437  -2.233101  0.300981
H    -2.824340  -4.133475  2.314916
H    -2.056208  -4.794415  0.878948
H    -3.466914  -3.388406  -0.602650
H    -4.305320  -2.693002  0.804116
H    -4.751555  -5.297303  1.262588
H    -6.889399  -6.493140  -1.181313
H    -5.753842  -7.040745  -0.000779
H    -6.257160  -4.537575  -2.422529
H    -5.624454  -3.231007  -1.492825
N    -2.083742  -1.942646  4.794153
C    -3.346181  -1.189712  4.819130
H    -1.765103  -2.323110  5.686525
H    -3.685150  -1.140562  5.857836
H    -4.124668  -1.694606  4.234000
H    -3.204740  -0.163050  4.461835
Sr    2.068259  -2.691053  3.483911
