37
Energy: -108387.675175 eV PBE+vdW (tier 2 basis)
C    0.617680  -1.644787  1.168000
C    0.305120  -0.636447  2.222010
O    1.121078  0.291844  2.499178
H    1.589315  -2.111071  1.377965
H    0.720986  -1.121383  0.205691
H    -0.143059  -2.425799  1.066909
N    -0.874023  -0.725659  2.867781
C    -1.405217  0.270324  3.813530
C    -0.686651  0.144398  5.182986
O    0.424458  0.740475  5.328043
H    -1.474729  -1.503773  2.609417
H    -1.067288  1.249982  3.444420
C    -2.954336  0.324616  3.768084
C    -3.779415  -0.934313  4.118118
C    -5.187901  -0.979169  3.490259
N    -6.140378  -0.046870  4.100556
C    -7.477720  -0.245421  4.171131
N    -8.220629  0.581606  4.914077
N    -8.055006  -1.266505  3.531366
H    -3.194682  0.627895  2.736941
H    -3.252417  1.169356  4.406405
H    -3.896305  -1.056579  5.206521
H    -3.281466  -1.848859  3.758448
H    -5.584463  -1.992463  3.636407
H    -5.113383  -0.801041  2.403994
H    -5.830502  0.900409  4.292483
H    -7.809945  1.181389  5.620192
H    -9.232084  0.599002  4.831398
H    -9.018360  -1.522243  3.725331
H    -7.623886  -1.711314  2.729982
N    -1.212680  -0.574645  6.159317
C    -0.595278  -0.769521  7.477037
H    -2.090743  -1.052007  5.980974
H    -0.116351  0.159134  7.800866
H    0.151853  -1.572695  7.436168
H    -1.376231  -1.044939  8.191154
Sr    2.253641  1.463078  4.101858
