37
Energy: -108386.751433 eV PBE+vdW (tier 2 basis)
C    0.462286  -0.563895  0.213508
C    0.527002  0.149848  1.524150
O    1.644802  0.490424  2.011809
H    0.302303  -1.643328  0.367709
H    1.417405  -0.439076  -0.306593
H    -0.350318  -0.192411  -0.419783
N    -0.602243  0.461199  2.223004
C    -1.684465  -0.490281  2.525924
C    -1.039480  -1.708957  3.274347
O    0.189782  -1.675846  3.602070
H    -0.390638  1.079623  3.006010
H    -2.296082  0.024563  3.283503
C    -2.609910  -0.870020  1.343833
C    -3.239840  0.314037  0.577558
C    -4.506886  0.900518  1.230878
N    -5.085719  2.015035  0.474858
C    -6.227728  2.001281  -0.243849
N    -6.832049  3.157422  -0.533546
N    -6.765133  0.848877  -0.663469
H    -3.418417  -1.505185  1.738815
H    -2.064867  -1.506507  0.636814
H    -3.492330  -0.039460  -0.432243
H    -2.496750  1.113463  0.438990
H    -4.295166  1.276811  2.242900
H    -5.280883  0.129514  1.348823
H    -4.648129  2.924462  0.587063
H    -6.632842  4.009681  -0.021344
H    -7.544429  3.214544  -1.254233
H    -7.704351  0.825067  -1.046909
H    -6.214118  0.006222  -0.760450
N    -1.803716  -2.737134  3.590876
C    -1.353060  -3.911293  4.351345
H    -2.780039  -2.715787  3.310124
H    -0.999231  -3.608396  5.343841
H    -0.549499  -4.427446  3.813407
H    -2.200120  -4.592305  4.466416
Sr    2.375706  -0.854162  3.763425
