37
Energy: -108386.436577 eV PBE+vdW (tier 2 basis)
C    0.185083  -0.171763  -0.479607
C    0.148383  0.163244  0.972585
O    1.247352  0.401249  1.622070
H    1.211675  -0.175842  -0.853637
H    -0.404515  0.552858  -1.060940
H    -0.264034  -1.158587  -0.667272
N    -1.009199  0.226656  1.615474
C    -2.347312  -0.043930  1.039325
C    -2.849796  1.015597  0.013570
O    -3.485480  0.601425  -0.950472
H    -0.966949  0.458694  2.609240
H    -2.264322  -0.962960  0.445480
C    -3.361569  -0.250614  2.189939
C    -4.842113  -0.295582  1.765482
C    -5.237479  -1.494222  0.882518
N    -6.573077  -1.347328  0.296992
C    -7.710261  -1.939410  0.697880
N    -8.767813  -1.958068  -0.123201
N    -7.801674  -2.519321  1.902245
H    -3.256942  0.583107  2.903584
H    -3.090227  -1.169040  2.733464
H    -5.101179  0.630951  1.233965
H    -5.446292  -0.291330  2.684307
H    -5.196869  -2.441343  1.438253
H    -4.548029  -1.589981  0.033940
H    -6.632555  -0.777296  -0.541784
H    -9.695247  -2.187855  0.216139
H    -8.676327  -1.767285  -1.114325
H    -8.586086  -3.118709  2.132549
H    -7.150460  -2.309574  2.646533
N    -2.580893  2.315194  0.267927
C    -3.089696  3.401571  -0.574057
H    -2.155848  2.566335  1.154063
H    -2.361516  4.218691  -0.596624
H    -4.046322  3.783204  -0.193757
H    -3.240744  3.017233  -1.586908
Sr    3.338051  0.626228  2.267068
