37
Energy: -108386.688261 eV PBE+vdW (tier 2 basis)
C    -0.833409  -0.676224  -0.121920
C    -0.567748  -0.517911  1.333788
O    0.574267  -0.762405  1.821504
H    -0.682195  -1.742552  -0.359345
H    -0.095595  -0.128388  -0.722414
H    -1.849305  -0.403801  -0.420394
N    -1.563064  -0.132127  2.182813
C    -2.391359  1.061107  1.962068
C    -1.408325  2.260014  1.811770
O    -0.256319  2.175013  2.357038
H    -1.295331  -0.247285  3.161905
H    -2.972679  0.933964  1.039492
C    -3.333124  1.195387  3.191848
C    -4.476348  2.225391  3.134242
C    -5.784324  1.779194  2.459844
N    -6.562679  0.897704  3.342075
C    -7.694881  0.248401  2.987480
N    -8.282876  -0.571114  3.864215
N    -8.202781  0.388698  1.757697
H    -2.702450  1.425252  4.064634
H    -3.745534  0.190035  3.366621
H    -4.149555  3.156351  2.655244
H    -4.708180  2.531533  4.165834
H    -5.588561  1.238963  1.520087
H    -6.367804  2.681705  2.214317
H    -6.425121  1.024923  4.341030
H    -9.222517  -0.922947  3.711792
H    -7.824594  -0.855475  4.722350
H    -8.981813  -0.185767  1.451308
H    -7.993077  1.198359  1.186871
N    -1.729715  3.344313  1.123059
C    -2.905001  3.642447  0.299703
H    -1.010868  4.071196  1.132743
H    -3.455403  4.491571  0.723384
H    -3.566739  2.776397  0.229083
H    -2.571019  3.914285  -0.709070
Sr    1.745747  1.019084  2.765773
