37
Energy: -108386.413049 eV PBE+vdW (tier 2 basis)
C    0.166032  1.794852  0.938098
C    -0.023708  0.497733  1.651176
O    0.896233  -0.416284  1.605579
H    -0.050939  2.649619  1.592643
H    -0.519443  1.863013  0.078759
H    1.189982  1.884393  0.566672
N    -1.135152  0.261290  2.336663
C    -2.331218  1.132453  2.431454
C    -2.256927  2.265627  3.487229
O    -3.127213  3.135931  3.416523
H    -1.205899  -0.654786  2.782802
H    -2.416087  1.659204  1.471417
C    -3.612113  0.274238  2.656809
C    -4.692227  0.430028  1.572307
C    -5.528326  1.717248  1.598154
N    -6.499093  1.739877  2.703569
C    -6.816315  2.811797  3.462957
N    -8.045233  2.892204  3.991751
N    -5.915602  3.763260  3.711310
H    -4.032802  0.502977  3.645555
H    -3.323058  -0.787010  2.693934
H    -5.370795  -0.433614  1.640209
H    -4.232630  0.354326  0.574632
H    -6.080665  1.795000  0.649734
H    -4.895495  2.608011  1.673539
H    -7.203669  1.007166  2.681349
H    -8.255366  3.544628  4.738831
H    -8.822260  2.359238  3.618628
H    -6.201628  4.640281  4.130310
H    -4.914593  3.601792  3.569376
N    -1.276104  2.247789  4.404229
C    -1.169718  3.249087  5.470265
H    -0.659764  1.444547  4.448216
H    -0.118708  3.364381  5.751956
H    -1.749786  2.947785  6.352028
H    -1.552952  4.204144  5.100073
Sr    2.648089  -1.677926  1.138292
