37
Energy: -108387.414944 eV PBE+vdW (tier 2 basis)
C    -2.430348  0.251384  -0.177126
C    -1.954579  -0.087513  1.198419
O    -1.183106  -1.073749  1.385039
H    -3.103202  1.114333  -0.214704
H    -2.943692  -0.624635  -0.598515
H    -1.563619  0.447566  -0.823586
N    -2.375040  0.690978  2.215368
C    -2.150953  0.550158  3.672758
C    -0.656114  0.669568  4.040595
O    0.147425  -0.288464  3.814768
H    -2.964474  1.471315  1.939575
H    -2.662139  1.418868  4.104142
C    -2.770170  -0.732579  4.276775
C    -4.311996  -0.805803  4.246597
C    -5.007153  -0.182457  5.468228
N    -6.450968  -0.432010  5.398703
C    -7.390648  0.130015  6.186802
N    -8.683210  -0.049370  5.898313
N    -7.036283  0.890592  7.230242
H    -2.407755  -0.828885  5.311815
H    -2.369984  -1.600310  3.737375
H    -4.586169  -1.870650  4.207420
H    -4.705571  -0.356527  3.321962
H    -4.846688  0.906257  5.510669
H    -4.584422  -0.625453  6.386277
H    -6.758901  -1.206033  4.817494
H    -9.410821  0.171552  6.570215
H    -8.986104  -0.415052  5.002637
H    -7.735034  1.415613  7.746258
H    -6.131784  0.790679  7.674219
N    -0.218468  1.773339  4.628499
C    -0.943462  3.006174  4.965368
H    0.770373  1.747454  4.883013
H    -0.205279  3.756616  5.262683
H    -1.625639  2.848052  5.810130
H    -1.487428  3.397918  4.098626
Sr    0.718405  -1.930943  2.313950
