37
Energy: -108386.714061 eV PBE+vdW (tier 2 basis)
C    0.513726  1.139633  -0.048066
C    0.401551  0.751164  1.383601
O    1.422509  0.711325  2.133093
H    1.012078  2.111952  -0.158136
H    -0.436935  1.133124  -0.587919
H    1.182908  0.404333  -0.525226
N    -0.800603  0.394773  1.918404
C    -2.008619  1.219322  1.804879
C    -1.688476  2.564581  2.525306
O    -0.739059  2.591016  3.381664
H    -0.697004  -0.026951  2.842710
H    -2.201809  1.418567  0.741874
C    -3.199791  0.410207  2.393987
C    -4.609491  0.924987  2.055795
C    -5.733011  -0.119565  2.163107
N    -6.071752  -0.486343  3.545361
C    -6.855455  -1.541410  3.873560
N    -7.101848  -1.798535  5.163020
N    -7.351252  -2.344987  2.928864
H    -3.067339  0.313688  3.483002
H    -3.081355  -0.599930  1.973683
H    -4.637676  1.252955  1.006780
H    -4.870102  1.809476  2.657186
H    -5.429623  -1.033940  1.632240
H    -6.620318  0.289141  1.652391
H    -6.046418  0.261794  4.232726
H    -6.589127  -1.341114  5.907131
H    -7.817509  -2.461324  5.442399
H    -7.422874  -2.055375  1.961113
H    -7.818081  -3.212198  3.174978
N    -2.348853  3.677933  2.246925
C    -3.353950  3.964695  1.218355
H    -2.062877  4.480319  2.811456
H    -3.091616  4.913410  0.736470
H    -4.349238  4.066123  1.666966
H    -3.372183  3.182787  0.455533
Sr    1.497381  2.151379  3.956371
