37
Energy: -108387.404028 eV PBE+vdW (tier 2 basis)
C    -2.473512  -0.512779  -0.127652
C    -1.880155  -0.440576  1.242241
O    -0.918037  -1.197774  1.563900
H    -2.825035  -1.539221  -0.305295
H    -1.690897  -0.316588  -0.873648
H    -3.302335  0.183739  -0.291194
N    -2.405255  0.451706  2.105663
C    -2.098768  0.681883  3.536654
C    -0.646806  1.164578  3.745810
O    0.327896  0.356004  3.642627
H    -3.151076  1.026025  1.723090
H    -2.760341  1.509200  3.819138
C    -2.414896  -0.530883  4.444197
C    -3.906798  -0.913334  4.551799
C    -4.678327  -0.181871  5.662877
N    -6.039140  -0.721208  5.761847
C    -7.053913  -0.183146  6.469645
N    -8.287806  -0.677078  6.329995
N    -6.837593  0.859832  7.281141
H    -2.005693  -0.320884  5.444443
H    -1.859283  -1.399992  4.070004
H    -3.950768  -1.992360  4.762555
H    -4.416249  -0.771326  3.586456
H    -4.750072  0.897866  5.458788
H    -4.142722  -0.313562  6.618682
H    -6.193331  -1.656977  5.398197
H    -9.026922  -0.445800  6.985776
H    -8.533947  -1.297302  5.566814
H    -7.616007  1.346049  7.714763
H    -5.920759  1.046497  7.667918
N    -0.422126  2.429664  4.069526
C    -1.370463  3.540805  4.229065
H    0.561158  2.648356  4.238938
H    -2.035762  3.624573  3.362650
H    -0.791468  4.466576  4.295239
H    -1.951516  3.436681  5.154036
Sr    1.161724  -1.437371  2.475312
