37
Energy: -108387.758352 eV PBE+vdW (tier 2 basis)
C    0.287504  1.988851  1.424982
C    0.076710  0.534690  1.693400
O    0.998501  -0.302513  1.456499
H    0.506070  2.117900  0.354758
H    1.174436  2.337632  1.971199
H    -0.567869  2.618147  1.691360
N    -1.114213  0.155091  2.190153
C    -1.670205  -1.199872  2.417154
C    -0.841687  -1.997881  3.446646
O    0.262758  -2.539504  3.124416
H    -1.774932  0.913104  2.342471
H    -2.646182  -1.000008  2.875045
C    -1.937808  -1.971475  1.103325
C    -2.962874  -3.110133  1.266016
C    -3.425367  -3.664077  -0.092793
N    -4.420644  -4.725887  0.080166
C    -5.389588  -5.052309  -0.801205
N    -6.357334  -5.896156  -0.427772
N    -5.405115  -4.521984  -2.029344
H    -0.995512  -2.350639  0.683250
H    -2.323312  -1.231112  0.387084
H    -3.846829  -2.738543  1.807088
H    -2.534520  -3.926336  1.870267
H    -2.561106  -4.037716  -0.667247
H    -3.892342  -2.855953  -0.673850
H    -4.290792  -5.367180  0.856931
H    -6.971143  -6.330402  -1.109211
H    -6.530394  -6.114223  0.546817
H    -6.213922  -4.635102  -2.632026
H    -4.566755  -4.154995  -2.462314
N    -1.310262  -2.131659  4.679296
C    -2.532333  -1.575180  5.280184
H    -0.720582  -2.693888  5.294696
H    -3.432540  -2.008093  4.827305
H    -2.552558  -0.482095  5.201248
H    -2.529210  -1.835797  6.342333
Sr    2.267953  -2.071703  2.083674
