37
Energy: -108386.183116 eV PBE+vdW (tier 2 basis)
C    0.086704  1.119010  0.473770
C    -0.439074  1.462841  1.827354
O    0.193006  2.314758  2.578429
H    -0.693006  1.185581  -0.297230
H    0.453949  0.080517  0.460130
H    0.913570  1.780262  0.202626
N    -1.545650  0.898596  2.284103
C    -2.360483  -0.121497  1.580086
C    -3.204529  0.437940  0.395496
O    -3.202434  -0.218875  -0.643708
H    -1.852270  1.185648  3.214272
H    -1.655998  -0.805201  1.089843
C    -3.201050  -0.930897  2.596466
C    -3.585468  -2.360549  2.161242
C    -4.624045  -2.476449  1.033983
N    -5.086162  -3.860470  0.909454
C    -5.427270  -4.483284  -0.233264
N    -5.708509  -5.792716  -0.209426
N    -5.470978  -3.819963  -1.394393
H    -4.104952  -0.370006  2.878268
H    -2.600925  -1.038680  3.512880
H    -3.986751  -2.851047  3.061672
H    -2.682137  -2.923027  1.881979
H    -4.174398  -2.171809  0.081485
H    -5.482271  -1.812221  1.231439
H    -5.317514  -4.348776  1.770169
H    -6.161143  -6.249455  -0.993081
H    -5.493487  -6.370079  0.594844
H    -5.568883  -4.315537  -2.273210
H    -5.488006  -2.808983  -1.431895
N    -3.922308  1.578235  0.540748
C    -4.123382  2.431580  1.705824
H    -4.424522  1.833663  -0.307815
H    -5.038546  3.012464  1.552726
H    -3.298526  3.145256  1.849939
H    -4.270413  1.848475  2.623507
Sr    1.650787  3.695949  3.472189
