37
Energy: -108387.848632 eV PBE+vdW (tier 2 basis)
C    -1.255089  -0.931236  -0.358653
C    -0.824489  -0.887982  1.068869
O    0.397358  -0.760637  1.380343
H    -2.335261  -1.054125  -0.488774
H    -0.736120  -1.752421  -0.872022
H    -0.936420  -0.001707  -0.852169
N    -1.762965  -0.981561  2.030833
C    -1.498401  -0.863675  3.473866
C    -0.715296  -2.106499  3.982923
O    0.552307  -1.998530  4.052964
H    -2.726980  -1.104260  1.730578
H    -0.766567  -0.050930  3.593868
C    -2.767296  -0.481093  4.263522
C    -3.170773  0.998833  4.115775
C    -4.428240  1.321183  4.941373
N    -4.810159  2.728534  4.794872
C    -5.563208  3.432701  5.666100
N    -6.162169  2.826778  6.697337
N    -5.684386  4.755022  5.507416
H    -2.574009  -0.701068  5.324226
H    -3.607532  -1.126285  3.968564
H    -3.360759  1.235395  3.056197
H    -2.346712  1.647964  4.447910
H    -4.227362  1.133266  6.006346
H    -5.258622  0.664055  4.631312
H    -4.642111  3.167922  3.894926
H    -6.595827  3.370551  7.436523
H    -6.365863  1.835025  6.688381
H    -6.396654  5.282666  6.001121
H    -5.060173  5.281269  4.907040
N    -1.290353  -3.251109  4.318155
C    -2.693226  -3.676731  4.263160
H    -0.630468  -3.950001  4.664202
H    -2.707574  -4.768792  4.192439
H    -3.192858  -3.277390  3.375702
H    -3.232952  -3.382698  5.171558
Sr    2.238212  -1.299437  2.640214
