37
Energy: -108387.170066 eV PBE+vdW (tier 2 basis)
C    0.939883  0.691648  0.456534
C    0.350395  -0.410135  1.275291
O    1.091751  -1.311292  1.767980
H    1.713679  1.207697  1.041040
H    0.207290  1.425943  0.106049
H    1.446434  0.248462  -0.413303
N    -0.982600  -0.405395  1.465433
C    -1.855817  -1.413911  2.110794
C    -1.509750  -1.589087  3.607607
O    -0.502079  -2.272798  3.969343
H    -1.472598  0.375171  1.036203
H    -2.852562  -0.959014  2.062302
C    -1.902643  -2.758984  1.349531
C    -3.077953  -3.674241  1.754467
C    -4.436631  -3.376056  1.084591
N    -4.563164  -3.852307  -0.298179
C    -4.988675  -5.076962  -0.681641
N    -5.069189  -5.364723  -1.984028
N    -5.294543  -6.012265  0.224730
H    -0.956000  -3.293571  1.500787
H    -1.945996  -2.528920  0.274814
H    -3.228894  -3.640457  2.845208
H    -2.802241  -4.714790  1.534830
H    -4.645531  -2.298010  1.053084
H    -5.250712  -3.795903  1.693348
H    -4.527847  -3.152332  -1.030789
H    -5.492167  -6.226917  -2.311534
H    -4.768303  -4.713034  -2.699325
H    -5.607003  -6.932754  -0.066323
H    -5.439497  -5.780900  1.198912
N    -2.292266  -1.029524  4.519798
C    -3.479749  -0.181672  4.338956
H    -2.010955  -1.212793  5.484251
H    -3.255818  0.690661  3.714300
H    -3.783679  0.181318  5.324941
H    -4.316790  -0.751547  3.916699
Sr    1.738224  -2.599609  3.524296
