37
Energy: -108385.667951 eV PBE+vdW (tier 2 basis)
C    1.269428  -0.519901  0.758376
C    0.771039  0.322729  1.898761
O    1.523679  0.983574  2.624662
H    0.479403  -0.920841  0.113846
H    1.844174  -1.363957  1.166368
H    1.964370  0.074716  0.152960
N    -0.591232  0.314241  2.097865
C    -1.366614  0.877734  3.201856
C    -2.130160  2.164758  2.815952
O    -3.419186  2.179039  3.020876
H    -1.117337  -0.269179  1.454895
H    -2.183506  0.160068  3.371254
C    -0.664873  1.052412  4.578976
C    -0.282960  -0.279556  5.270505
C    1.191121  -0.709094  5.269439
N    2.053323  0.172781  6.071641
C    3.310560  0.557125  5.752710
N    3.684124  0.698461  4.480127
N    4.174573  0.828284  6.740703
H    -1.397132  1.573282  5.213970
H    0.199399  1.718697  4.496451
H    -0.851105  -1.114173  4.831705
H    -0.619453  -0.229104  6.316431
H    1.600537  -0.760436  4.258493
H    1.247300  -1.725527  5.688238
H    1.836420  0.210464  7.064290
H    4.663518  0.818250  4.249069
H    2.999105  0.770516  3.720614
H    4.040751  0.471333  7.679853
H    5.041886  1.321846  6.560310
N    -1.571494  3.239084  2.308063
C    -0.168648  3.533914  1.996639
H    -2.222202  3.994685  2.088784
H    0.056607  4.539164  2.370948
H    -0.030069  3.523930  0.907668
H    0.502138  2.806662  2.460421
Sr    -5.600994  2.244162  3.285836
