37
Energy: -108387.369166 eV PBE+vdW (tier 2 basis)
C    0.123346  -0.846861  -0.534742
C    -0.312329  -0.850756  0.891526
O    0.524864  -0.714560  1.833373
H    -0.697893  -0.984893  -1.245638
H    0.870761  -1.636853  -0.691310
H    0.626224  0.107647  -0.747752
N    -1.622828  -0.997296  1.167147
C    -2.211212  -0.920280  2.514378
C    -1.798626  -2.161227  3.353016
O    -0.795016  -2.026427  4.126095
H    -2.252474  -1.120309  0.377699
H    -1.699968  -0.096117  3.034385
C    -3.717143  -0.580635  2.452992
C    -3.984392  0.895312  2.096929
C    -5.452140  1.229613  1.764783
N    -6.379202  1.255831  2.904510
C    -7.019588  2.348739  3.376839
N    -8.158899  2.197468  4.060304
N    -6.521740  3.574869  3.185706
H    -4.155620  -0.821925  3.432736
H    -4.218512  -1.232224  1.721608
H    -3.403124  1.170820  1.202998
H    -3.628177  1.546403  2.909925
H    -5.849101  0.511099  1.032004
H    -5.497783  2.207933  1.270370
H    -6.770092  0.368116  3.203276
H    -8.553953  2.959550  4.601896
H    -8.720380  1.356496  3.985253
H    -7.084082  4.400261  3.364715
H    -5.564207  3.728425  2.898352
N    -2.413924  -3.332046  3.282644
C    -3.519233  -3.786594  2.432689
H    -2.033222  -4.030136  3.923912
H    -3.445940  -3.361721  1.427280
H    -4.490509  -3.544034  2.880556
H    -3.445039  -4.874790  2.342041
Sr    1.372155  -1.253896  3.893503
