37
Energy: -108386.712954 eV PBE+vdW (tier 2 basis)
C    0.955224  1.700968  0.356105
C    0.425139  0.690029  1.310178
O    1.202284  0.017739  2.051162
H    1.635387  1.167679  -0.328462
H    1.575545  2.446571  0.871596
H    0.185574  2.193647  -0.244056
N    -0.912459  0.438344  1.388248
C    -1.917755  1.490266  1.573824
C    -1.609060  2.150827  2.952046
O    -0.917623  1.495266  3.804835
H    -1.111322  -0.399647  1.936882
H    -1.794078  2.239838  0.780216
C    -3.326829  0.842514  1.442337
C    -4.502952  1.806023  1.197306
C    -5.738719  1.176654  0.527166
N    -6.583052  0.386135  1.430039
C    -7.903966  0.166577  1.245998
N    -8.615035  -0.410387  2.222213
N    -8.507772  0.537343  0.113440
H    -3.507202  0.206687  2.324434
H    -3.238749  0.166859  0.577942
H    -4.179153  2.590371  0.498051
H    -4.811222  2.315541  2.121195
H    -5.420735  0.568160  -0.336475
H    -6.358377  1.998518  0.143892
H    -6.134661  -0.189660  2.134375
H    -9.550267  -0.765308  2.052241
H    -8.282209  -0.440747  3.178484
H    -9.520251  0.538752  0.040450
H    -7.992951  0.692601  -0.744960
N    -2.014382  3.376879  3.242491
C    -2.672895  4.389824  2.412091
H    -1.775184  3.678567  4.188943
H    -2.171046  5.349663  2.578760
H    -3.727520  4.494661  2.692646
H    -2.597791  4.139816  1.351188
Sr    1.009154  0.264540  4.355034
