37
Energy: -108385.910756 eV PBE+vdW (tier 2 basis)
C    -0.281940  -0.889996  0.341070
C    -0.368130  -0.595333  1.811606
O    0.601828  -0.641540  2.576302
H    0.314165  -0.105092  -0.146532
H    -1.254353  -0.948964  -0.160195
H    0.260707  -1.832060  0.195738
N    -1.611585  -0.231826  2.290137
C    -1.782477  0.166169  3.684438
C    -2.993323  -0.578913  4.258964
O    -2.777053  -1.673016  4.926953
H    -2.358805  -0.083716  1.618512
H    -0.916970  -0.286691  4.190811
C    -1.729439  1.686799  3.978201
C    -0.298737  2.267005  4.039380
C    0.284837  2.717313  2.686999
N    1.627630  3.281025  2.814312
C    2.789452  2.648172  2.567960
N    3.922404  3.363148  2.535069
N    2.831163  1.328383  2.354174
H    -2.202919  1.857679  4.957029
H    -2.330253  2.247443  3.248776
H    0.381337  1.544911  4.514283
H    -0.323387  3.144425  4.700878
H    -0.351304  3.495661  2.242616
H    0.329198  1.901876  1.956658
H    1.694711  4.248497  3.114803
H    4.830767  2.914598  2.511998
H    3.913484  4.375080  2.480946
H    2.039388  0.701292  2.512530
H    3.683542  0.902875  2.008986
N    -4.240292  -0.182280  4.104578
C    -4.791634  0.977968  3.388885
H    -4.937957  -0.771226  4.561058
H    -5.784294  0.702316  3.018498
H    -4.166502  1.253538  2.536947
H    -4.891223  1.833467  4.068548
Sr    -2.317786  -3.533486  6.001897
