37
Energy: -108386.371009 eV PBE+vdW (tier 2 basis)
C    2.587207  -0.313998  0.419733
C    1.888306  0.395145  1.537443
O    2.506368  0.793906  2.555227
H    1.939460  -0.556557  -0.429076
H    3.018796  -1.247915  0.807059
H    3.426247  0.303261  0.073099
N    0.553270  0.608111  1.399974
C    -0.404962  1.092056  2.405638
C    -0.145589  2.512725  2.928034
O    -1.166744  3.308931  3.055555
H    0.136172  0.275505  0.535490
H    -1.337688  1.213187  1.840588
C    -0.754292  0.057743  3.537335
C    0.327519  -0.862670  4.131011
C    1.208164  -0.285401  5.251241
N    2.101600  -1.291379  5.826224
C    3.410474  -1.458679  5.557665
N    4.125345  -2.301923  6.313890
N    4.004731  -0.794552  4.560243
H    -1.511366  -0.601478  3.092601
H    -1.276873  0.600836  4.341518
H    0.956263  -1.281681  3.333527
H    -0.213492  -1.725548  4.547547
H    0.579595  0.091518  6.071182
H    1.819709  0.555637  4.907309
H    1.689779  -1.949295  6.480971
H    3.769688  -2.669926  7.188630
H    5.057765  -2.593644  6.043658
H    3.487227  -0.280362  3.844296
H    5.014941  -0.805839  4.479233
N    1.063056  2.892225  3.242468
C    1.441190  4.215551  3.729465
H    1.797396  2.145134  3.080249
H    2.520506  4.225153  3.904022
H    0.932553  4.445406  4.674966
H    1.210144  4.986702  2.981959
Sr    -2.782103  4.791817  3.103659
