37
Energy: -108386.716978 eV PBE+vdW (tier 2 basis)
C    -0.388496  1.321153  1.325815
C    -0.081242  0.065769  2.076226
O    1.063964  -0.468667  2.001911
H    -0.890181  2.058642  1.962618
H    -1.052935  1.114888  0.471465
H    0.541540  1.747386  0.938369
N    -1.027170  -0.534936  2.849380
C    -2.409258  -0.776768  2.406624
C    -2.325959  -1.531710  1.037328
O    -1.219253  -2.031962  0.658898
H    -0.638750  -1.287753  3.416693
H    -2.790142  -1.529820  3.115671
C    -3.357882  0.454339  2.500994
C    -4.780378  0.105686  2.984968
C    -5.733326  1.300310  3.162020
N    -5.454988  2.065097  4.385737
C    -6.002747  3.270437  4.671229
N    -5.669754  3.886806  5.809889
N    -6.837133  3.862641  3.811738
H    -3.402232  0.989483  1.541315
H    -2.896327  1.144298  3.220032
H    -4.727692  -0.461104  3.929206
H    -5.288189  -0.573658  2.282424
H    -6.764503  0.912069  3.184445
H    -5.647403  1.981785  2.302591
H    -5.151896  1.527010  5.193221
H    -6.188386  4.691276  6.146802
H    -4.900256  3.567431  6.386433
H    -7.142217  4.819494  3.959808
H    -7.331660  3.339567  3.099442
N    -3.422675  -1.678019  0.317140
C    -3.503572  -2.441714  -0.936162
H    -4.282054  -1.261831  0.663021
H    -2.876720  -1.978379  -1.707063
H    -4.543076  -2.440649  -1.273756
H    -3.181151  -3.476146  -0.770826
Sr    1.104878  -2.376927  0.672455
