37
Energy: -108386.547503 eV PBE+vdW (tier 2 basis)
C    -0.543433  1.085866  -0.172933
C    0.026862  1.030779  1.204957
O    1.266528  1.383166  1.383917
H    -0.705926  2.136739  -0.457813
H    -1.491158  0.552000  -0.277886
H    0.175909  0.660651  -0.883796
N    -0.685030  0.652454  2.247203
C    -2.110582  0.258614  2.313521
C    -2.564334  0.734715  3.711227
O    -1.879205  0.358745  4.680446
H    -0.227722  0.616775  3.166137
H    -2.652887  0.766929  1.509434
C    -2.251296  -1.277463  2.193232
C    -3.687828  -1.819969  2.306218
C    -4.248565  -2.067635  3.715547
N    -3.575116  -3.162638  4.429524
C    -3.116675  -3.124395  5.697951
N    -3.070062  -4.261685  6.405268
N    -2.691558  -1.981265  6.245006
H    -1.604360  -1.745091  2.950794
H    -1.841024  -1.565373  1.214813
H    -3.730616  -2.768173  1.750909
H    -4.394740  -1.160401  1.780244
H    -5.312832  -2.329536  3.620725
H    -4.210566  -1.176701  4.350145
H    -3.729894  -4.094466  4.053126
H    -2.532965  -4.328156  7.262605
H    -3.633020  -5.067059  6.155418
H    -2.537612  -1.928549  7.245366
H    -2.422886  -1.164630  5.686284
N    -3.662693  1.490997  3.826427
C    -4.526982  2.032399  2.771260
H    -3.881085  1.757556  4.785865
H    -5.335088  2.590617  3.252292
H    -4.984654  1.237256  2.170936
H    -3.983257  2.728146  2.119493
Sr    3.328634  2.120514  1.252680
