37
Energy: -108386.630017 eV PBE+vdW (tier 2 basis)
C    -0.136392  -0.559999  0.116907
C    -0.016728  0.137040  1.427606
O    1.134680  0.175100  2.024980
H    0.126287  0.150015  -0.683380
H    -1.148912  -0.925636  -0.080696
H    0.559940  -1.404053  0.073740
N    -1.054608  0.718244  2.002162
C    -2.353861  1.025493  1.367887
C    -2.057613  1.926182  0.123015
O    -1.073071  2.660025  0.137064
H    -0.850886  1.223407  2.864526
H    -2.827549  0.076473  1.072569
C    -3.234403  1.739985  2.418379
C    -4.676569  2.016754  1.963812
C    -5.511723  2.649453  3.087106
N    -6.866057  2.954288  2.613092
C    -7.949966  3.134489  3.391212
N    -9.160262  3.218851  2.825983
N    -7.830419  3.204341  4.722246
H    -2.744000  2.689724  2.687515
H    -3.255515  1.109931  3.322132
H    -5.161279  1.081439  1.643271
H    -4.667032  2.696703  1.098233
H    -5.017702  3.567334  3.447957
H    -5.595243  1.950437  3.932145
H    -6.972351  3.193313  1.631987
H    -9.323930  2.924578  1.870379
H    -9.962325  3.560029  3.344362
H    -8.650189  3.180903  5.319093
H    -6.951750  3.441914  5.164873
N    -2.945652  1.823188  -0.887382
C    -2.863344  2.624407  -2.109683
H    -3.674299  1.118913  -0.831633
H    -3.828856  3.101079  -2.314071
H    -2.588377  1.996991  -2.966782
H    -2.100620  3.394405  -1.966111
Sr    3.270304  0.234402  2.489470
