37
Energy: -108387.789205 eV PBE+vdW (tier 2 basis)
C    0.041453  -2.503959  1.544892
C    -0.000815  -1.182483  2.237717
O    0.934788  -0.341781  2.090182
H    -0.797984  -3.160206  1.796981
H    0.983805  -3.016578  1.778290
H    0.041278  -2.325376  0.459218
N    -1.065243  -0.899761  3.013126
C    -1.362071  0.400916  3.632209
C    -0.513058  0.603142  4.915799
O    0.723774  0.850336  4.777074
H    -1.761115  -1.633365  3.112532
H    -0.955267  1.162442  2.949092
C    -2.886127  0.670867  3.703696
C    -3.841661  -0.415223  4.244571
C    -5.281109  0.135909  4.319453
N    -6.251830  -0.861702  4.782932
C    -7.486475  -1.088667  4.276774
N    -8.428007  -1.608879  5.069281
N    -7.774752  -0.819633  2.998957
H    -3.196616  0.913680  2.676796
H    -3.019193  1.605664  4.270194
H    -3.545789  -0.777254  5.243612
H    -3.845187  -1.302570  3.592393
H    -5.595180  0.505222  3.335710
H    -5.315400  1.005388  4.995520
H    -6.104202  -1.228116  5.719409
H    -8.357251  -1.576550  6.080430
H    -9.276684  -2.013453  4.686076
H    -8.734099  -0.838983  2.668646
H    -7.055580  -0.710762  2.296029
N    -1.080236  0.544527  6.108065
C    -0.393898  0.748817  7.388397
H    -2.074805  0.344474  6.146488
H    0.543771  1.281740  7.215991
H    -0.184566  -0.217861  7.864243
H    -1.037249  1.342770  8.045973
Sr    2.445578  0.939272  3.231254
