37
Energy: -108386.229288 eV PBE+vdW (tier 2 basis)
C    0.396983  0.819593  0.630194
C    0.237389  0.124306  1.954012
O    1.157150  -0.462050  2.532353
H    1.035273  1.704936  0.765647
H    -0.547744  1.142197  0.178669
H    0.928146  0.156147  -0.062879
N    -1.017285  0.187910  2.528914
C    -1.244733  -0.321579  3.878832
C    -2.556478  -1.109759  3.855976
O    -2.602877  -2.258248  3.264659
H    -1.701231  0.818073  2.117810
H    -0.448248  -1.070396  4.026437
C    -1.128622  0.724098  5.011006
C    0.319231  1.119321  5.384573
C    0.950033  2.255102  4.558419
N    2.299950  2.586455  5.011445
C    3.454046  2.126745  4.493488
N    3.465164  1.157282  3.571553
N    4.609808  2.662256  4.908506
H    -1.571794  0.288312  5.919468
H    -1.716407  1.625834  4.767323
H    0.963646  0.229155  5.348243
H    0.308718  1.442977  6.434752
H    0.347499  3.169674  4.648310
H    1.000673  2.024515  3.488518
H    2.378400  3.211331  5.807751
H    4.327784  0.932884  3.089513
H    2.647483  0.596786  3.324997
H    4.638305  3.521549  5.445103
H    5.502428  2.248153  4.666213
N    -3.633665  -0.611084  4.423655
C    -4.956522  -1.239911  4.474677
H    -3.529529  0.288437  4.890835
H    -5.649350  -0.550408  4.964506
H    -4.917460  -2.167861  5.059569
H    -5.323346  -1.443153  3.461236
Sr    -2.570361  -4.250482  2.343952
