37
Energy: -108387.601533 eV PBE+vdW (tier 2 basis)
C    -1.194037  -0.581999  -0.406150
C    -1.291137  -0.562413  1.084592
O    -0.760954  -1.483450  1.774926
H    -1.674066  0.272631  -0.893889
H    -1.655464  -1.509730  -0.774747
H    -0.136995  -0.617173  -0.703343
N    -1.953444  0.459695  1.655880
C    -2.338591  0.685227  3.069201
C    -1.105504  0.816969  3.989014
O    -0.436930  -0.205164  4.342505
H    -2.331932  1.140117  1.001798
H    -2.827769  1.666050  3.043795
C    -3.384236  -0.330106  3.589724
C    -4.206385  0.206217  4.777123
C    -5.324291  -0.769290  5.193636
N    -6.113599  -0.290863  6.333403
C    -7.444613  -0.066855  6.368424
N    -8.077282  -0.077187  7.545846
N    -8.138386  0.171722  5.249103
H    -2.895246  -1.279236  3.852256
H    -4.054639  -0.549673  2.745786
H    -4.656487  1.175059  4.509810
H    -3.553575  0.394192  5.644553
H    -4.895423  -1.745353  5.468003
H    -6.006579  -0.964301  4.356252
H    -5.651827  -0.296168  7.238211
H    -9.009420  0.311226  7.647931
H    -7.673458  -0.511991  8.368086
H    -9.152919  0.164932  5.256478
H    -7.691506  0.482068  4.396788
N    -0.760304  2.018253  4.430050
C    -1.356560  3.330263  4.134349
H    0.046802  2.019537  5.055512
H    -1.371591  3.526229  3.056058
H    -0.731158  4.093587  4.605895
H    -2.366789  3.412521  4.553288
Sr    0.542290  -2.123541  3.514853
