37
Energy: -108386.880756 eV PBE+vdW (tier 2 basis)
C    -0.499138  -0.559846  2.947669
C    -0.396249  0.489249  1.893972
O    0.548123  1.333296  1.906108
H    -0.410616  -0.053639  3.920908
H    0.348207  -1.258703  2.893767
H    -1.438802  -1.118532  2.925672
N    -1.334908  0.578985  0.909583
C    -1.733813  -0.576592  0.106790
C    -0.565348  -0.846913  -0.906101
O    0.526396  -0.201586  -0.797414
H    -1.238584  1.437517  0.364324
H    -1.760099  -1.452770  0.774187
C    -3.135759  -0.400000  -0.517922
C    -4.242322  -0.323812  0.553933
C    -5.681716  -0.559382  0.064068
N    -6.299294  0.605398  -0.580537
C    -7.627818  0.847426  -0.616070
N    -8.068204  2.034327  -1.050924
N    -8.502122  -0.075901  -0.205621
H    -3.131855  0.485479  -1.173848
H    -3.338094  -1.260686  -1.173495
H    -4.190129  0.626352  1.104368
H    -4.056172  -1.113897  1.297534
H    -6.291614  -0.800252  0.945112
H    -5.712554  -1.433050  -0.609234
H    -5.726194  1.192108  -1.177200
H    -9.046306  2.181483  -1.276999
H    -7.462726  2.845376  -1.093540
H    -9.477896  0.160899  -0.057349
H    -8.261043  -1.057824  -0.149418
N    -0.726387  -1.776035  -1.828672
C    0.298266  -2.176820  -2.802894
H    -1.608695  -2.280069  -1.854417
H    1.134365  -2.673835  -2.295719
H    0.664649  -1.299784  -3.347440
H    -0.154563  -2.875356  -3.511144
Sr    2.118644  1.197028  0.197312
