37
Energy: -108386.315232 eV PBE+vdW (tier 2 basis)
C    -1.426225  0.031828  -0.249470
C    -0.379991  0.075334  0.806348
O    0.787118  0.558623  0.477423
H    -2.399774  -0.290468  0.113809
H    -1.116784  -0.678971  -1.027473
H    -1.506486  1.030473  -0.702844
N    -0.545939  -0.280899  2.072448
C    -1.574410  -1.108193  2.749283
C    -1.446252  -2.551294  2.166556
O    -1.441615  -2.675092  0.942851
H    0.286733  -0.131045  2.641503
H    -1.273556  -1.071968  3.804105
C    -3.030487  -0.590593  2.660505
C    -3.900854  -1.172348  3.789315
C    -5.336178  -0.636757  3.867380
N    -6.209770  -1.212357  2.833448
C    -7.488956  -0.836909  2.626171
N    -8.200191  -1.418885  1.652431
N    -8.039224  0.134726  3.361227
H    -3.462560  -0.845133  1.683966
H    -3.013803  0.506592  2.741009
H    -3.437176  -0.941469  4.759503
H    -3.933607  -2.272094  3.727466
H    -5.338847  0.458192  3.756342
H    -5.732454  -0.878272  4.867188
H    -5.953830  -2.129515  2.479795
H    -9.203384  -1.289362  1.581310
H    -7.770037  -2.031913  0.970831
H    -7.634716  0.432358  4.240291
H    -8.956424  0.504486  3.135682
N    -1.368671  -3.585597  3.028818
C    -1.237982  -3.584274  4.486813
H    -1.332641  -4.490703  2.562430
H    -0.926823  -4.585754  4.798474
H    -2.184392  -3.356951  4.994015
H    -0.464400  -2.884007  4.826294
Sr    2.584618  1.222021  -0.569903
