37
Energy: -108385.629737 eV PBE+vdW (tier 2 basis)
C    -0.436548  0.747768  -0.338154
C    -0.488002  0.224844  1.065198
O    0.410600  0.392532  1.897085
H    -1.283718  0.436118  -0.958602
H    0.498058  0.412816  -0.806742
H    -0.400453  1.845446  -0.310143
N    -1.610432  -0.495812  1.427348
C    -1.742747  -0.913880  2.817809
C    -2.312157  -2.329560  2.850733
O    -3.505224  -2.583324  3.301732
H    -2.409078  -0.509267  0.800483
H    -0.691442  -1.000359  3.145819
C    -2.410245  0.126197  3.741722
C    -1.796962  0.185685  5.152365
C    -0.396730  0.816272  5.249504
N    -0.417623  2.274784  5.048161
C    0.596452  3.009023  4.524267
N    0.785366  4.257594  4.969829
N    1.375629  2.515612  3.562078
H    -3.495130  -0.048696  3.803113
H    -2.300820  1.104874  3.255020
H    -1.721069  -0.824817  5.585676
H    -2.480039  0.734667  5.818247
H    0.290352  0.379934  4.516327
H    0.019130  0.598060  6.245050
H    -1.017862  2.789683  5.687685
H    0.427040  4.565778  5.866624
H    1.366059  4.916106  4.461469
H    2.222634  3.006039  3.296796
H    1.088106  1.724413  2.975612
N    -1.578324  -3.328229  2.398229
C    -0.222156  -3.289039  1.834615
H    -2.024103  -4.245481  2.399750
H    -0.268629  -3.105358  0.753751
H    0.247866  -4.260420  2.015668
H    0.378405  -2.507472  2.309348
Sr    -5.508354  -3.134300  4.021386
