37
Energy: -108386.760428 eV PBE+vdW (tier 2 basis)
C    -0.649236  0.108036  0.464192
C    -0.091168  -0.095039  1.834939
O    1.155056  -0.001248  2.038191
H    -1.567088  0.705420  0.476422
H    -0.885481  -0.860179  -0.006303
H    0.102625  0.606151  -0.156079
N    -0.898086  -0.377393  2.897612
C    -1.932678  -1.425339  2.900684
C    -1.234442  -2.772127  2.500248
O    0.032550  -2.821792  2.389227
H    -0.381361  -0.329025  3.775539
H    -2.201458  -1.540351  3.962642
C    -3.225681  -1.108831  2.111585
C    -3.913656  0.231397  2.447129
C    -4.862563  0.195475  3.656730
N    -5.597223  1.461935  3.742587
C    -6.327910  1.885554  4.794265
N    -6.800877  3.135575  4.804262
N    -6.551467  1.076667  5.837646
H    -3.943369  -1.924695  2.289554
H    -3.017257  -1.140022  1.035642
H    -4.503625  0.509853  1.560788
H    -3.164463  1.024085  2.588649
H    -4.308414  0.054266  4.597372
H    -5.565859  -0.647588  3.542395
H    -5.701884  1.992650  2.882673
H    -6.466760  3.839482  4.155734
H    -7.520988  3.423275  5.458699
H    -6.987976  1.432877  6.681839
H    -6.510777  0.069399  5.744134
N    -1.978482  -3.847294  2.322836
C    -1.454843  -5.185068  2.012782
H    -2.986183  -3.756648  2.417072
H    -0.781525  -5.523475  2.808966
H    -0.919623  -5.171988  1.056170
H    -2.298499  -5.876012  1.939661
Sr    2.237947  -2.043940  2.296153
