37
Energy: -108385.479713 eV PBE+vdW (tier 2 basis)
C    0.999123  1.047057  0.667388
C    0.490398  0.510924  1.976950
O    1.210096  0.370807  2.971705
H    0.211346  1.328270  -0.040567
H    1.628973  0.280183  0.193045
H    1.640961  1.914186  0.861607
N    -0.847209  0.171583  1.997229
C    -1.608919  -0.532041  3.030423
C    -2.620355  0.393872  3.735250
O    -3.873081  0.030038  3.751298
H    -1.334444  0.295791  1.115054
H    -2.250837  -1.244799  2.489703
C    -0.809079  -1.363848  4.071776
C    0.068757  -2.441761  3.424456
C    0.932632  -3.252256  4.402582
N    1.799101  -2.502933  5.343178
C    3.038434  -2.029804  5.062080
N    3.278965  -1.435285  3.889437
N    4.008576  -2.157149  5.974106
H    -1.554921  -1.838628  4.730335
H    -0.197396  -0.708410  4.700614
H    0.712469  -1.995059  2.659014
H    -0.557296  -3.177341  2.895434
H    1.555142  -3.944413  3.818203
H    0.290790  -3.869174  5.043973
H    1.658088  -2.736026  6.321069
H    4.237290  -1.231619  3.623941
H    2.548153  -0.873729  3.437822
H    4.861317  -1.609297  5.918874
H    3.963059  -2.858813  6.705377
N    -2.289969  1.524962  4.316676
C    -0.981274  2.174492  4.460816
H    -3.070610  2.045554  4.718923
H    -0.904624  2.555572  5.485335
H    -0.917590  3.020474  3.764013
H    -0.163872  1.476352  4.265000
Sr    -6.009325  -0.488401  3.716593
