37
Energy: -108386.693675 eV PBE+vdW (tier 2 basis)
C    -0.901967  0.770990  0.090213
C    -1.671853  -0.506872  0.051547
O    -1.672193  -1.219366  -0.994630
H    -1.303867  1.508586  0.790753
H    -0.816767  1.205919  -0.910508
H    0.120812  0.522776  0.419179
N    -2.355921  -0.945770  1.144429
C    -3.315916  -0.110828  1.895131
C    -4.010598  0.854362  0.891138
O    -4.116263  0.500284  -0.328284
H    -2.642954  -1.919529  1.048022
H    -4.138744  -0.810166  2.126095
C    -2.866944  0.373919  3.295225
C    -1.627812  1.266387  3.470458
C    -1.358757  1.486406  4.971383
N    -0.148957  2.282077  5.196022
C    0.153095  2.927413  6.344421
N    -0.613217  2.783197  7.430631
N    1.213379  3.741299  6.378331
H    -3.741718  0.838272  3.781505
H    -2.707746  -0.551601  3.869112
H    -1.748692  2.242762  2.976433
H    -0.752848  0.772025  3.021407
H    -1.272705  0.505672  5.469757
H    -2.205308  2.022044  5.425909
H    0.616306  2.165960  4.538736
H    -0.481708  3.380831  8.240571
H    -1.211557  1.976405  7.559467
H    1.590149  4.080796  7.257226
H    1.662421  4.070545  5.531614
N    -4.544100  1.970843  1.350326
C    -5.367192  2.913144  0.584575
H    -4.436411  2.162623  2.343178
H    -5.224704  2.738108  -0.483482
H    -6.425807  2.779363  0.842154
H    -5.064913  3.935951  0.833486
Sr    -3.628520  -0.841375  -2.199692
