37
Energy: -108386.286451 eV PBE+vdW (tier 2 basis)
C    0.114426  0.605955  0.468864
C    0.059348  -0.400061  1.566623
O    1.197539  -0.776503  2.074541
H    0.584527  1.517403  0.870805
H    -0.854570  0.870459  0.052136
H    0.739099  0.222110  -0.346160
N    -1.047050  -0.815834  2.188236
C    -2.379458  -1.054440  1.597740
C    -2.121874  -2.054518  0.415267
O    -1.053395  -1.951860  -0.193124
H    -0.844048  -1.416071  2.986793
H    -2.949192  -1.526602  2.407718
C    -3.117460  0.229376  1.132738
C    -4.645762  0.148790  0.955808
C    -5.478648  0.182962  2.245027
N    -6.896790  0.337929  1.897590
C    -7.941267  0.194767  2.734282
N    -9.185669  0.197376  2.243848
N    -7.740726  0.015863  4.046707
H    -2.717212  0.534765  0.159181
H    -2.872341  1.033763  1.842288
H    -4.928539  -0.721090  0.347772
H    -4.920027  1.032535  0.358797
H    -5.366602  -0.743676  2.828920
H    -5.144735  1.025748  2.874238
H    -7.102985  0.723517  0.980586
H    -9.992641  0.303638  2.849063
H    -9.368368  0.114272  1.250356
H    -6.880692  0.309389  4.492339
H    -8.514452  -0.212946  4.661502
N    -3.063136  -2.958108  0.087271
C    -4.289389  -3.354401  0.770490
H    -2.809816  -3.508157  -0.733465
H    -4.292720  -4.442005  0.912605
H    -5.177084  -3.082526  0.183838
H    -4.358384  -2.889528  1.758422
Sr    3.314296  -1.289600  2.222908
