37
Energy: -108387.107384 eV PBE+vdW (tier 2 basis)
C    -2.763299  0.246242  -0.203856
C    -1.818545  0.390821  0.948506
O    -0.568588  0.358219  0.745183
H    -2.580712  1.054294  -0.925939
H    -3.820762  0.258800  0.079658
H    -2.541470  -0.695656  -0.724893
N    -2.364369  0.562217  2.166504
C    -1.840940  0.646597  3.552468
C    -0.667675  1.612069  3.787995
O    0.404692  1.590721  3.106340
H    -3.381544  0.579435  2.145341
H    -2.686589  1.091291  4.090880
C    -1.648872  -0.742861  4.229443
C    -0.536506  -1.664530  3.712450
C    -0.682641  -3.132036  4.154092
N    -0.505258  -3.327321  5.598963
C    -0.913286  -4.424389  6.279867
N    -0.758167  -4.465944  7.607348
N    -1.497400  -5.445407  5.645934
H    -2.619308  -1.253018  4.127555
H    -1.526599  -0.557039  5.307305
H    0.455742  -1.284913  4.005291
H    -0.546461  -1.689826  2.613165
H    0.047490  -3.739608  3.595016
H    -1.688880  -3.487255  3.887573
H    0.225918  -2.784205  6.049496
H    -0.873123  -5.330997  8.125424
H    -0.535833  -3.638077  8.147437
H    -1.376813  -5.598846  4.652205
H    -1.940416  -6.195587  6.167253
N    -0.777718  2.464743  4.799745
C    -1.910927  2.717087  5.702814
H    0.054399  3.035970  4.952291
H    -1.629216  3.538149  6.368114
H    -2.136186  1.839967  6.321272
H    -2.802220  3.027872  5.143841
Sr    1.442364  1.348424  1.076504
