37
Energy: -108387.313071 eV PBE+vdW (tier 2 basis)
C    0.662021  1.727719  0.755355
C    0.262976  1.126882  2.059714
O    1.094807  1.001999  3.008230
H    -0.141669  1.735404  0.011874
H    1.525848  1.183956  0.349421
H    0.995089  2.761299  0.931710
N    -1.010563  0.720506  2.224524
C    -1.569231  0.245349  3.500139
C    -0.969114  -1.138692  3.868223
O    -0.012471  -1.149543  4.707431
H    -1.649105  0.861750  1.445295
H    -1.163027  0.900136  4.285715
C    -3.104242  0.418411  3.516252
C    -3.756968  -0.012964  4.842871
C    -5.132125  0.607459  5.136024
N    -6.202380  0.101157  4.264591
C    -7.415259  0.689988  4.131664
N    -8.309259  0.163069  3.288368
N    -7.710496  1.807445  4.801747
H    -3.569270  -0.096813  2.665118
H    -3.280909  1.493775  3.358331
H    -3.117816  0.294607  5.684607
H    -3.821858  -1.110803  4.913241
H    -5.074292  1.697502  5.002205
H    -5.377101  0.408848  6.192044
H    -6.183024  -0.893198  4.055552
H    -8.054060  -0.546305  2.611840
H    -9.280372  0.457209  3.296136
H    -8.557193  2.328256  4.595801
H    -7.210372  2.076204  5.640374
N    -1.381847  -2.278040  3.331179
C    -2.382568  -2.528491  2.290921
H    -0.897270  -3.101509  3.691964
H    -2.128197  -3.472757  1.799272
H    -2.370233  -1.741575  1.531534
H    -3.386937  -2.627430  2.721591
Sr    2.022984  -0.032451  4.824335
