37
Energy: -108387.282166 eV PBE+vdW (tier 2 basis)
C    -1.544571  -0.426254  -0.670551
C    -1.449723  -0.469836  0.819037
O    -0.707363  -1.321173  1.392650
H    -2.187472  0.374086  -1.051115
H    -1.931323  -1.393325  -1.024421
H    -0.539004  -0.314471  -1.098242
N    -2.176096  0.418987  1.522427
C    -2.377877  0.519045  2.987412
C    -1.040452  0.805346  3.710837
O    -0.233404  -0.136289  3.984692
H    -2.733276  1.060037  0.963596
H    -3.008694  1.408527  3.103403
C    -3.132145  -0.692648  3.579458
C    -3.814242  -0.443513  4.944949
C    -5.259441  0.071883  4.827090
N    -5.874863  0.205874  6.150478
C    -7.188299  0.076895  6.433340
N    -7.577356  -0.025707  7.708307
N    -8.097327  0.028564  5.452778
H    -2.437910  -1.536418  3.677496
H    -3.879963  -1.007148  2.837503
H    -3.214519  0.251509  5.556263
H    -3.836393  -1.391246  5.499365
H    -5.852298  -0.653410  4.251437
H    -5.295378  1.035894  4.290629
H    -5.279544  0.502683  6.917725
H    -8.549297  0.093340  7.974768
H    -6.926037  -0.255842  8.450204
H    -9.058982  -0.228772  5.650784
H    -7.912447  0.411839  4.534303
N    -0.747449  2.052480  4.052050
C    -1.503623  3.287562  3.799722
H    0.143338  2.158185  4.539733
H    -1.682063  3.433261  2.727987
H    -0.900737  4.126964  4.157530
H    -2.452615  3.295105  4.349880
Sr    0.808845  -1.933012  2.968493
