37
Energy: -108387.757619 eV PBE+vdW (tier 2 basis)
C    -1.365699  -0.537155  -0.550534
C    -1.448157  -0.592264  0.939914
O    -1.013931  -1.602635  1.570275
H    -1.748796  0.393027  -0.982551
H    -1.933886  -1.383468  -0.963576
H    -0.322156  -0.676096  -0.864412
N    -1.992737  0.459580  1.577283
C    -2.337085  0.640277  3.007460
C    -1.091495  0.555889  3.915436
O    -0.579164  -0.565344  4.227575
H    -2.305278  1.212495  0.969159
H    -2.698318  1.674552  3.053039
C    -3.503192  -0.265424  3.468065
C    -4.201914  0.245336  4.742609
C    -5.519540  -0.502029  5.011872
N    -6.188948  0.017599  6.207510
C    -7.519210  0.005279  6.436597
N    -8.012781  0.698078  7.468270
N    -8.346663  -0.668878  5.630024
H    -3.155473  -1.299737  3.600351
H    -4.223801  -0.282229  2.637217
H    -4.427755  1.317828  4.637301
H    -3.533829  0.140638  5.612961
H    -5.330611  -1.583566  5.117321
H    -6.197336  -0.360011  4.158016
H    -5.603893  0.280063  6.995104
H    -8.959334  0.546398  7.801043
H    -7.472946  1.415069  7.939244
H    -9.351817  -0.546679  5.700344
H    -8.024205  -1.440466  5.059455
N    -0.569068  1.678110  4.389568
C    -0.965633  3.072447  4.138683
H    0.233605  1.540973  5.005550
H    -1.950333  3.291125  4.569363
H    -0.957630  3.301567  3.066877
H    -0.231545  3.719971  4.626491
Sr    0.175557  -2.522321  3.265093
