37
Energy: -108386.440816 eV PBE+vdW (tier 2 basis)
C    -0.150359  -0.374575  0.675627
C    -0.072617  0.247825  2.025420
O    1.097727  0.519433  2.526062
H    -1.167305  -0.628812  0.363496
H    0.458301  -1.289784  0.668076
H    0.288954  0.314987  -0.060142
N    -1.141926  0.539097  2.750026
C    -2.596215  0.433867  2.424641
C    -3.023711  -1.010143  2.011556
O    -3.327572  -1.249685  0.835482
H    -0.936748  0.969272  3.651969
H    -3.086624  0.665710  3.380672
C    -3.039174  1.465687  1.378627
C    -4.575773  1.483537  1.201139
C    -4.973150  1.500982  -0.287305
N    -6.369280  1.148190  -0.530210
C    -6.812673  -0.087189  -0.821858
N    -8.071054  -0.248993  -1.252449
N    -6.012083  -1.152096  -0.688795
H    -2.558433  1.225834  0.419975
H    -2.672957  2.454827  1.683678
H    -5.009726  2.349863  1.717145
H    -5.027431  0.597408  1.668606
H    -4.344298  0.801539  -0.854685
H    -4.806090  2.494650  -0.723212
H    -7.060841  1.890269  -0.495427
H    -8.494391  -1.167320  -1.316420
H    -8.628710  0.534329  -1.572369
H    -6.280571  -2.041235  -1.093356
H    -5.110447  -1.113522  -0.213516
N    -3.065516  -1.942081  2.981478
C    -2.831101  -1.781894  4.415848
H    -3.365849  -2.859871  2.657336
H    -3.041153  -2.737621  4.904407
H    -3.500323  -1.031948  4.858631
H    -1.786671  -1.521655  4.635057
Sr    3.229936  0.843080  2.953393
