37
Energy: -108387.841979 eV PBE+vdW (tier 2 basis)
C    -1.516401  0.595730  0.169374
C    -0.927903  0.232334  1.493464
O    -0.057956  -0.686299  1.579256
H    -2.027643  -0.288940  -0.238250
H    -0.711719  0.845646  -0.535038
H    -2.226754  1.427717  0.212439
N    -1.352502  0.908617  2.575144
C    -1.085110  0.683639  4.015873
C    0.404697  0.888480  4.375232
O    1.294746  0.052177  4.031920
H    -2.040123  1.632715  2.382335
H    -1.644438  1.493242  4.504865
C    -1.669610  -0.651136  4.539409
C    -1.942107  -0.642403  6.055128
C    -2.655771  -1.926996  6.519500
N    -2.898843  -1.962950  7.965009
C    -4.091233  -2.054238  8.591296
N    -4.135909  -2.517643  9.844352
N    -5.225105  -1.685066  7.983448
H    -1.006964  -1.485815  4.268201
H    -2.611585  -0.815764  3.995865
H    -2.563348  0.228654  6.316569
H    -1.000607  -0.532217  6.616257
H    -2.055262  -2.811922  6.258521
H    -3.616139  -2.051366  6.002609
H    -2.086307  -2.105349  8.557899
H    -3.375959  -3.056779  10.244466
H    -4.956123  -2.384941  10.427315
H    -6.127637  -1.915331  8.385836
H    -5.228103  -1.064274  7.185129
N    0.701938  1.967718  5.083854
C    2.044317  2.341332  5.538691
H    -0.050965  2.615719  5.303560
H    1.961485  2.838778  6.510224
H    2.508264  3.034710  4.824746
H    2.660999  1.444354  5.636819
Sr    1.987684  -1.323135  2.312681
