37
Energy: -108387.914152 eV PBE+vdW (tier 2 basis)
C    -1.257141  1.053148  0.970814
C    -0.604090  0.622284  2.242100
O    0.554763  1.031279  2.549661
H    -1.360252  2.148147  0.985532
H    -2.242041  0.603539  0.807345
H    -0.606124  0.811472  0.120053
N    -1.281657  -0.203528  3.062171
C    -0.853529  -0.632851  4.404778
C    0.251905  -1.717196  4.288215
O    1.440928  -1.340726  4.051956
H    -2.186948  -0.531103  2.734302
H    -0.339677  0.226921  4.862139
C    -2.065857  -0.993607  5.287850
C    -2.946439  0.219084  5.655290
C    -3.921430  -0.015178  6.827078
N    -5.111541  -0.823564  6.527443
C    -6.390401  -0.384215  6.549601
N    -7.382116  -1.261006  6.739270
N    -6.678544  0.908105  6.364718
H    -1.667313  -1.432710  6.215386
H    -2.675276  -1.774933  4.800463
H    -3.502484  0.583942  4.778799
H    -2.289950  1.045012  5.970639
H    -4.260502  0.954786  7.211453
H    -3.395547  -0.495513  7.665717
H    -5.006273  -1.832167  6.570953
H    -8.349117  -1.009868  6.560079
H    -7.221259  -2.168015  7.163186
H    -7.604821  1.270212  6.566066
H    -6.003983  1.563172  5.992008
N    -0.062654  -2.992472  4.429777
C    0.876649  -4.115916  4.338340
H    -1.035532  -3.224091  4.611957
H    1.892603  -3.755692  4.515458
H    0.815800  -4.579945  3.345400
H    0.613633  -4.859607  5.097538
Sr    2.670216  0.397799  3.158464
