37
Energy: -108386.194264 eV PBE+vdW (tier 2 basis)
C    -0.794034  -0.351385  -0.239471
C    -0.028835  -0.078117  1.008289
O    1.270609  -0.024366  0.949953
H    -1.852017  -0.084964  -0.172081
H    -0.732917  -1.428054  -0.464329
H    -0.333627  0.187281  -1.075987
N    -0.602678  0.083879  2.189837
C    -2.033015  0.091271  2.627374
C    -2.936849  -0.916861  1.865156
O    -3.828856  -0.525898  1.103450
H    0.055226  0.269981  2.948390
H    -1.971428  -0.286643  3.659847
C    -2.606509  1.521908  2.747236
C    -2.613049  2.473313  1.534004
C    -3.884407  2.549149  0.672044
N    -5.072003  2.968799  1.423920
C    -6.242609  2.304147  1.503747
N    -7.350553  2.975049  1.847701
N    -6.301959  0.990729  1.271314
H    -2.038192  2.004904  3.555187
H    -3.623349  1.410298  3.152435
H    -1.773771  2.264413  0.852369
H    -2.407314  3.484017  1.916072
H    -4.099047  1.590974  0.193241
H    -3.717031  3.282335  -0.130642
H    -5.090469  3.933793  1.741528
H    -8.200385  2.489472  2.111356
H    -7.400287  3.985800  1.795898
H    -5.457564  0.418629  1.192723
H    -7.198009  0.535276  1.144556
N    -2.688665  -2.215224  2.111150
C    -3.491438  -3.301125  1.541800
H    -2.033220  -2.459039  2.847433
H    -3.820908  -3.018774  0.537629
H    -4.375080  -3.500446  2.162299
H    -2.881487  -4.208122  1.490196
Sr    3.418381  -0.059048  0.467025
