37
Energy: -108387.660901 eV PBE+vdW (tier 2 basis)
C    0.438756  -1.325642  1.256463
C    0.022375  -0.295622  2.252107
O    0.706226  0.756069  2.428277
H    -0.210825  -2.206914  1.237638
H    1.470419  -1.641585  1.460919
H    0.442915  -0.864103  0.257762
N    -1.107838  -0.500564  2.956086
C    -1.735727  0.479384  3.859386
C    -0.939981  0.564616  5.188874
O    0.049359  1.358080  5.239988
H    -1.601643  -1.370967  2.778709
H    -1.563371  1.465637  3.403948
C    -3.276049  0.310951  3.901887
C    -3.891119  -1.017625  4.390968
C    -5.326987  -1.281717  3.900748
N    -6.312482  -0.363924  4.486582
C    -7.576889  -0.208600  4.025299
N    -8.372897  0.700421  4.596922
N    -8.018762  -0.925539  2.988006
H    -3.610657  0.493081  2.868897
H    -3.670945  1.151091  4.490020
H    -3.891991  -1.084059  5.491897
H    -3.310378  -1.887198  4.044582
H    -5.583009  -2.325831  4.144134
H    -5.365135  -1.169021  2.807212
H    -6.170543  -0.095276  5.456290
H    -8.011486  1.410631  5.222771
H    -9.371101  0.718120  4.414504
H    -8.908696  -0.709389  2.549555
H    -7.589930  -1.803818  2.722148
N    -1.272680  -0.183148  6.227201
C    -0.560752  -0.188439  7.511850
H    -2.050963  -0.826250  6.123171
H    -1.227973  -0.592271  8.278410
H    -0.274390  0.833172  7.779355
H    0.336696  -0.817753  7.451525
Sr    1.700452  2.229003  3.865909
