37
Energy: -108386.540262 eV PBE+vdW (tier 2 basis)
C    -1.960188  -1.548673  0.308736
C    -1.903643  -0.135482  0.804116
O    -0.940138  0.616558  0.562797
H    -2.812088  -2.122785  0.688433
H    -1.027336  -2.058276  0.581453
H    -1.996120  -1.536636  -0.789530
N    -2.976974  0.317085  1.526101
C    -3.031235  1.596528  2.246480
C    -3.113803  2.795705  1.281222
O    -4.096137  3.643777  1.374045
H    -3.744356  -0.328334  1.681291
H    -3.984004  1.586762  2.791634
C    -1.884077  1.789918  3.281148
C    -1.831255  0.660799  4.322799
C    -0.735850  0.806414  5.390228
N    0.600287  0.452949  4.891862
C    1.623364  0.027869  5.657996
N    1.543828  0.078193  6.991757
N    2.724901  -0.464597  5.076172
H    -2.052059  2.753735  3.786641
H    -0.932399  1.879670  2.740284
H    -1.717238  -0.316458  3.831582
H    -2.788572  0.620107  4.863883
H    -0.972578  0.119601  6.214368
H    -0.732685  1.831564  5.797159
H    0.812020  0.626411  3.914886
H    2.228292  -0.393727  7.573000
H    0.871680  0.667128  7.467194
H    2.727506  -0.766417  4.109386
H    3.577658  -0.613414  5.604471
N    -2.168072  2.927524  0.390371
C    -2.085048  3.983724  -0.611206
H    -1.474421  2.114179  0.387490
H    -1.168343  3.841922  -1.190362
H    -2.041268  4.972125  -0.133729
H    -2.936440  3.935028  -1.305413
Sr    -5.698456  5.111721  1.152550
