37
Energy: -108385.798848 eV PBE+vdW (tier 2 basis)
C    0.425472  -1.266843  0.677189
C    0.122435  -0.145276  1.619016
O    1.088442  0.597228  2.060435
H    0.908380  -0.873747  -0.228913
H    -0.465504  -1.825842  0.371354
H    1.123404  -1.971441  1.152275
N    -1.132574  0.053413  1.985016
C    -1.692137  1.071171  2.896233
C    -2.694542  0.400497  3.885574
O    -3.849351  0.821824  3.961222
H    -1.806586  -0.587027  1.567525
H    -0.847776  1.452161  3.488881
C    -2.307650  2.265049  2.126591
C    -3.281515  1.993128  0.957216
C    -4.791113  1.916064  1.238704
N    -5.366408  3.196884  1.671748
C    -6.177407  3.389422  2.734446
N    -7.027209  4.426203  2.723666
N    -6.115516  2.584743  3.795579
H    -1.457336  2.836019  1.726688
H    -2.778890  2.916631  2.875330
H    -3.012155  1.071183  0.417885
H    -3.121578  2.788603  0.214301
H    -5.025436  1.157933  1.989506
H    -5.295778  1.616002  0.308208
H    -5.390256  3.932907  0.971374
H    -7.498059  4.728734  3.568970
H    -7.302421  4.880345  1.860629
H    -6.841764  2.609651  4.501567
H    -5.335913  1.936993  3.926059
N    -2.259120  -0.620286  4.654033
C    -0.920458  -1.175122  4.807333
H    -2.984162  -0.996810  5.263771
H    -0.833445  -1.598081  5.813431
H    -0.156343  -0.392399  4.715167
H    -0.718442  -1.979037  4.084800
Sr    3.152891  1.372955  2.247624
