37
Energy: -108386.565791 eV PBE+vdW (tier 2 basis)
C    0.331383  -0.356236  1.147535
C    -0.155593  0.505945  2.261829
O    0.721230  1.052400  3.058338
H    1.019332  0.218988  0.512719
H    -0.473762  -0.752149  0.523481
H    0.900700  -1.199587  1.563055
N    -1.426538  0.742583  2.478132
C    -2.648413  0.330441  1.763045
C    -3.629779  1.476073  2.157361
O    -3.477830  2.004520  3.262020
H    -1.721801  1.362333  3.262125
H    -2.462874  0.309951  0.680564
C    -3.118174  -1.045808  2.308678
C    -4.511698  -1.569488  1.916793
C    -4.687812  -1.981899  0.442291
N    -5.734463  -2.990988  0.231107
C    -7.016255  -2.774903  -0.111150
N    -7.739644  -3.772272  -0.628938
N    -7.566991  -1.559496  0.040080
H    -3.096184  -0.973491  3.405489
H    -2.357808  -1.793408  2.032030
H    -5.284645  -0.845229  2.215078
H    -4.684413  -2.459780  2.538262
H    -3.759430  -2.431948  0.063091
H    -4.908559  -1.125475  -0.210396
H    -5.449024  -3.963214  0.298533
H    -8.752642  -3.728159  -0.665444
H    -7.304684  -4.607020  -1.006747
H    -8.480166  -1.359532  -0.353847
H    -7.229375  -0.923169  0.750589
N    -4.599679  1.791231  1.282768
C    -5.555773  2.873632  1.543978
H    -4.526364  1.441495  0.333136
H    -6.405686  2.769363  0.863203
H    -5.091757  3.856293  1.389342
H    -5.903129  2.809758  2.579767
Sr    2.287841  1.957271  4.272088
