37
Energy: -108385.495602 eV PBE+vdW (tier 2 basis)
C    0.368355  -0.197360  -0.035795
C    -0.095756  -0.021009  1.377968
O    0.163473  -0.820658  2.284344
H    0.003489  0.572465  -0.724374
H    0.048433  -1.185138  -0.393023
H    1.466941  -0.202279  -0.052778
N    -0.851736  1.105809  1.650178
C    -1.307840  1.383282  3.004369
C    -2.841007  1.484703  2.999217
O    -3.444194  2.625019  3.167578
H    -0.990497  1.786879  0.909992
H    -1.054983  0.459287  3.550957
C    -0.620252  2.562304  3.721934
C    0.907577  2.694980  3.555548
C    1.831276  1.511955  3.872900
N    1.714348  0.993896  5.246529
C    1.951957  -0.295047  5.594659
N    2.400432  -0.562570  6.828439
N    1.700142  -1.293050  4.746236
H    -0.876777  2.483575  4.789921
H    -1.048303  3.513117  3.364827
H    1.214010  3.561049  4.161799
H    1.140426  2.980242  2.519311
H    2.866394  1.845853  3.701300
H    1.654582  0.683283  3.184530
H    1.893573  1.669593  5.985281
H    2.855606  0.144131  7.394855
H    2.422673  -1.511558  7.186027
H    2.042042  -2.227388  4.941486
H    1.197852  -1.153307  3.866035
N    -3.576870  0.410423  2.798573
C    -3.163958  -0.978167  2.562327
H    -4.583831  0.571566  2.757749
H    -2.144553  -1.155462  2.913432
H    -3.219826  -1.199596  1.488339
H    -3.856896  -1.636446  3.097109
Sr    -4.526099  4.507076  3.506081
