37
Energy: -108387.943095 eV PBE+vdW (tier 2 basis)
C    0.236759  -0.091129  -0.341289
C    0.312268  0.491383  1.029954
O    0.631180  1.705318  1.207901
H    -0.523737  0.461053  -0.913157
H    -0.013207  -1.157034  -0.353724
H    1.192355  0.061858  -0.860599
N    0.022188  -0.299056  2.080378
C    -0.094415  0.137837  3.484035
C    1.321154  0.395913  4.067041
O    1.853553  1.532849  3.883243
H    -0.203302  -1.269727  1.873919
H    -0.573597  1.128809  3.473846
C    -1.004267  -0.843002  4.254571
C    -1.401439  -0.352363  5.659526
C    -2.180471  -1.361458  6.522648
N    -3.593568  -1.496320  6.151215
C    -4.584628  -1.847248  7.000598
N    -5.857654  -1.733027  6.605131
N    -4.307039  -2.284824  8.232459
H    -0.531125  -1.838784  4.318483
H    -1.899150  -0.984941  3.628437
H    -1.977723  0.582375  5.587593
H    -0.495708  -0.107675  6.234129
H    -2.151779  -1.001131  7.559533
H    -1.680956  -2.345147  6.498063
H    -3.841451  -1.484609  5.167619
H    -6.611320  -2.172979  7.123042
H    -6.122542  -1.155078  5.816123
H    -5.040776  -2.377749  8.927815
H    -3.404015  -2.674200  8.474092
N    1.946879  -0.573389  4.712811
C    3.300244  -0.482294  5.272877
H    1.471223  -1.467660  4.801859
H    3.527150  0.560545  5.508227
H    4.036110  -0.869281  4.555830
H    3.345714  -1.082588  6.186886
Sr    1.940092  3.222751  2.298884
