37
Energy: -108387.792381 eV PBE+vdW (tier 2 basis)
C    0.939511  -1.465624  2.116158
C    0.468902  -0.048304  2.057119
O    1.300869  0.897774  1.926408
H    1.623836  -1.572127  2.970376
H    1.525319  -1.694751  1.215571
H    0.131878  -2.198750  2.211509
N    -0.856255  0.175216  2.148510
C    -1.604961  1.450832  2.231524
C    -1.467137  2.305996  0.950471
O    -0.375061  2.876708  0.650295
H    -1.425542  -0.664544  2.204777
H    -2.655121  1.133131  2.286520
C    -1.278978  2.280395  3.498228
C    -1.707148  1.646449  4.839898
C    -3.189995  1.862114  5.202216
N    -3.571932  1.240370  6.474078
C    -3.915129  1.870272  7.617235
N    -4.623904  1.211739  8.539016
N    -3.559989  3.142091  7.838661
H    -1.750545  3.268568  3.379857
H    -0.196914  2.462570  3.527391
H    -1.083375  2.080045  5.634305
H    -1.476839  0.569744  4.845071
H    -3.855055  1.446918  4.429527
H    -3.426958  2.933119  5.258811
H    -3.714743  0.234924  6.469564
H    -5.144757  0.370665  8.315729
H    -4.698456  1.554157  9.491625
H    -3.962855  3.665283  8.609118
H    -2.782530  3.571574  7.354783
N    -2.553734  2.450585  0.207822
C    -2.648888  3.259864  -1.011294
H    -3.392473  1.945634  0.483447
H    -2.520143  2.625544  -1.898054
H    -1.879892  4.035962  -0.996292
H    -3.639249  3.725109  -1.048126
Sr    1.916241  2.755749  0.757145
