37
Energy: -108387.963534 eV PBE+vdW (tier 2 basis)
C    0.107334  1.835984  1.294219
C    0.446789  1.656264  2.736369
O    1.137239  2.518683  3.356813
H    -0.476418  2.762183  1.186583
H    -0.463292  1.003799  0.868964
H    1.027632  1.976423  0.711624
N    -0.008416  0.557901  3.368671
C    0.116163  0.268248  4.808464
C    1.565424  -0.186591  5.127158
O    2.459121  0.703979  5.267369
H    -0.511701  -0.119213  2.799958
H    0.007472  1.227696  5.337437
C    -1.011529  -0.682522  5.265723
C    -2.407820  -0.026103  5.226833
C    -3.604489  -0.972941  5.425983
N    -3.837526  -1.352821  6.824264
C    -5.036278  -1.705349  7.337930
N    -5.174788  -1.818143  8.664180
N    -6.084657  -1.922934  6.538308
H    -0.768945  -1.013674  6.286567
H    -1.016180  -1.588149  4.633423
H    -2.562112  0.441742  4.243417
H    -2.463081  0.791959  5.960861
H    -3.482840  -1.871915  4.797694
H    -4.504241  -0.446815  5.079630
H    -3.037409  -1.496059  7.430731
H    -5.986833  -2.269884  9.071836
H    -4.517105  -1.394696  9.308200
H    -7.020533  -2.012109  6.921192
H    -5.975112  -2.144758  5.556260
N    1.839071  -1.475166  5.230842
C    3.163908  -2.042714  5.506588
H    1.078891  -2.136125  5.092514
H    3.778651  -1.299821  6.020368
H    3.650597  -2.342399  4.569320
H    3.044244  -2.924491  6.144024
Sr    2.999772  2.862532  4.639684
