37
Energy: -108386.554665 eV PBE+vdW (tier 2 basis)
C    0.408053  0.406598  0.814116
C    0.019954  0.087115  2.214325
O    0.939333  0.115371  3.139835
H    -0.327221  0.048541  0.086820
H    1.372241  -0.066610  0.590694
H    0.544183  1.495802  0.723760
N    -1.213839  -0.208241  2.596250
C    -2.498673  -0.368791  1.846135
C    -2.411682  -1.594915  0.888061
O    -1.776865  -1.495554  -0.161197
H    -1.297090  -0.388746  3.596205
H    -3.225910  -0.567774  2.645599
C    -2.943643  0.893820  1.088402
C    -4.376080  0.751858  0.544194
C    -4.816967  2.004953  -0.233052
N    -6.218279  1.965233  -0.662115
C    -6.678493  1.766164  -1.909953
N    -7.937665  2.107272  -2.208781
N    -5.896553  1.233422  -2.858021
H    -2.253250  1.077200  0.254154
H    -2.883262  1.755667  1.769782
H    -5.078544  0.583836  1.375466
H    -4.445850  -0.131064  -0.109268
H    -4.187452  2.168269  -1.118469
H    -4.700071  2.900929  0.393448
H    -6.916931  2.199906  0.036573
H    -8.387943  1.775899  -3.054879
H    -8.472288  2.739225  -1.623585
H    -5.049666  0.729875  -2.630814
H    -6.170351  1.259825  -3.833782
N    -3.074272  -2.695482  1.296143
C    -3.124460  -3.934224  0.519942
H    -3.588016  -2.666821  2.170742
H    -2.710417  -4.764851  1.104036
H    -2.531262  -3.796458  -0.388040
H    -4.160009  -4.172450  0.248648
Sr    2.816192  0.193817  4.260283
