37
Energy: -108385.510074 eV PBE+vdW (tier 2 basis)
C    -0.031579  -1.693695  0.742491
C    0.001896  -0.411253  1.506264
O    1.119137  0.012340  2.020988
H    -0.445972  -1.547033  -0.265439
H    -0.676035  -2.433821  1.241649
H    0.972523  -2.116011  0.651556
N    -1.100824  0.304567  1.661331
C    -2.442109  -0.096880  1.178695
C    -2.726147  0.037637  -0.351646
O    -3.565024  -0.732817  -0.791378
H    -1.006153  1.183612  2.169745
H    -2.490124  -1.182601  1.322785
C    -3.605977  0.489363  2.014552
C    -4.198727  1.843423  1.584579
C    -5.566040  2.050324  2.256652
N    -6.218548  3.281301  1.800535
C    -7.547933  3.498267  1.780961
N    -8.391223  2.632177  2.353225
N    -8.028867  4.584068  1.162428
H    -3.314947  0.501289  3.076241
H    -4.399076  -0.267104  1.933666
H    -4.343664  1.860583  0.494572
H    -3.527043  2.678343  1.843412
H    -5.455621  2.059896  3.353904
H    -6.218412  1.206767  1.988626
H    -5.629309  4.087163  1.616609
H    -9.390886  2.696870  2.193863
H    -8.084423  1.974973  3.059332
H    -8.986581  4.887730  1.300014
H    -7.470058  5.114056  0.504464
N    -2.073189  0.947161  -1.125893
C    -1.234215  2.080071  -0.758853
H    -2.358045  0.885009  -2.102032
H    -0.183638  1.796090  -0.596484
H    -1.611775  2.603975  0.129247
H    -1.252747  2.800791  -1.582781
Sr    3.193056  0.068546  2.742938
