37
Energy: -108386.840144 eV PBE+vdW (tier 2 basis)
C    -3.365530  -0.263699  -1.972854
C    -2.531010  0.506511  -1.008977
O    -2.171454  1.695181  -1.260894
H    -2.823175  -0.267034  -2.932044
H    -4.319423  0.244422  -2.170607
H    -3.545671  -1.300967  -1.676963
N    -2.104681  -0.067895  0.152899
C    -3.040432  -0.715041  1.074111
C    -3.689889  0.427993  1.924161
O    -3.582346  1.637433  1.540991
H    -1.395787  0.500174  0.618463
H    -3.872114  -1.103808  0.464931
C    -2.446595  -1.929345  1.819414
C    -1.176108  -1.715759  2.659451
C    -0.776413  -3.031682  3.357625
N    0.439195  -2.914116  4.170943
C    1.494131  -3.759637  4.176719
N    1.801911  -4.493966  3.102162
N    2.253536  -3.847087  5.273307
H    -2.249702  -2.685359  1.044864
H    -3.238504  -2.375222  2.443259
H    -1.338215  -0.936011  3.421469
H    -0.342305  -1.379992  2.024633
H    -0.626412  -3.826904  2.617138
H    -1.596619  -3.374779  4.008253
H    0.378893  -2.302278  4.979983
H    2.477970  -5.247827  3.164579
H    1.458880  -4.264964  2.178646
H    1.919287  -3.548141  6.182742
H    3.172427  -4.277475  5.245713
N    -4.392449  0.103094  2.993230
C    -5.145844  1.054783  3.821166
H    -4.472366  -0.882627  3.228498
H    -5.513351  0.527934  4.705557
H    -6.001737  1.453616  3.262585
H    -4.495585  1.878015  4.135779
Sr    -3.031822  3.385368  0.079130
