37
Energy: -108385.775412 eV PBE+vdW (tier 2 basis)
C    0.027468  -0.440448  0.316613
C    -0.175771  -0.299726  1.784915
O    0.885275  -0.293886  2.543939
H    -0.895034  -0.532237  -0.254577
H    0.649509  -1.327038  0.131101
H    0.582495  0.432180  -0.057633
N    -1.351115  -0.188937  2.382210
C    -2.781592  -0.039011  1.964096
C    -3.685572  -1.211461  2.443319
O    -4.752411  -0.894374  2.978197
H    -1.265047  -0.125792  3.398687
H    -3.121867  0.785715  2.605365
C    -3.084243  0.386050  0.513434
C    -4.516183  0.959408  0.357545
C    -5.590973  -0.070466  -0.047127
N    -6.939694  0.489872  -0.039147
C    -7.823944  0.410067  0.974015
N    -9.082552  0.823791  0.770501
N    -7.465104  -0.071256  2.166849
H    -2.941402  -0.444462  -0.193111
H    -2.373656  1.176407  0.235408
H    -4.482559  1.739529  -0.414764
H    -4.820359  1.464915  1.285243
H    -5.586726  -0.953287  0.603422
H    -5.399235  -0.435724  -1.065384
H    -7.235720  1.004156  -0.862412
H    -9.737825  0.917354  1.537620
H    -9.441172  1.004959  -0.159534
H    -6.497415  -0.284133  2.418587
H    -8.172504  -0.279150  2.862018
N    -3.338937  -2.499032  2.236913
C    -2.210909  -3.070853  1.510963
H    -4.022085  -3.154523  2.614203
H    -2.460481  -4.104574  1.252305
H    -1.293490  -3.092385  2.116594
H    -2.024836  -2.541038  0.569879
Sr    2.890287  -0.181269  3.443442
