37
Energy: -108386.437366 eV PBE+vdW (tier 2 basis)
C    -1.609457  1.776158  -0.987537
C    -0.883764  0.870139  -0.047360
O    0.215403  0.300118  -0.419868
H    -2.530861  2.188950  -0.562976
H    -1.866841  1.229866  -1.906298
H    -0.957743  2.615839  -1.269453
N    -1.382941  0.668004  1.163711
C    -0.812133  -0.131651  2.262110
C    -1.192234  -1.634498  2.236294
O    -0.388645  -2.430306  2.738144
H    -2.224690  1.201799  1.381736
H    0.278974  -0.116102  2.149948
C    -1.199009  0.545314  3.601410
C    -0.646484  -0.132068  4.872726
C    -1.616549  -1.143394  5.513428
N    -1.041058  -1.841473  6.660548
C    -0.465039  -3.056178  6.636452
N    -0.192838  -3.665296  5.476686
N    -0.167966  -3.661071  7.794547
H    -2.298718  0.616648  3.662415
H    -0.824530  1.577433  3.557724
H    -0.433705  0.653444  5.610055
H    0.314742  -0.620043  4.659321
H    -1.961436  -1.898877  4.795874
H    -2.516523  -0.624309  5.870892
H    -1.074970  -1.368766  7.558311
H    0.075552  -4.641981  5.471444
H    -0.244611  -3.192911  4.572298
H    -0.542491  -3.334391  8.677732
H    0.411831  -4.491403  7.824690
N    -2.385605  -1.980220  1.722350
C    -2.899892  -3.351986  1.734121
H    -3.007782  -1.254704  1.381795
H    -3.504300  -3.520899  0.837354
H    -3.523880  -3.530883  2.619840
H    -2.056322  -4.047906  1.744656
Sr    1.975610  -0.268427  -1.621636
