37
Energy: -108386.517619 eV PBE+vdW (tier 2 basis)
C    1.303598  -0.990720  0.814266
C    0.777891  0.347972  0.416951
O    1.534124  1.113415  -0.307618
H    2.320990  -0.865071  1.209273
H    1.347234  -1.642510  -0.068415
H    0.702382  -1.495510  1.574300
N    -0.377699  0.827575  0.868569
C    -1.506455  -0.028059  1.248507
C    -1.858489  -0.879482  -0.037678
O    -1.124286  -0.802754  -1.024792
H    -0.614386  1.752709  0.510752
H    -1.149967  -0.734925  2.011211
C    -2.668149  0.764909  1.881196
C    -3.408450  1.747946  0.956708
C    -4.827385  2.118418  1.412196
N    -4.853289  2.859815  2.681021
C    -5.957427  3.048756  3.434842
N    -5.849029  3.662594  4.619287
N    -7.148201  2.600841  3.023770
H    -2.286043  1.272225  2.779050
H    -3.383016  0.020952  2.263492
H    -3.528645  1.305321  -0.043573
H    -2.828252  2.674242  0.808981
H    -5.415714  1.198574  1.547370
H    -5.304181  2.711400  0.614891
H    -4.079336  3.490589  2.866419
H    -4.951760  3.800859  5.068550
H    -6.667532  3.988490  5.121978
H    -7.949185  2.604983  3.646765
H    -7.334497  2.398114  2.049250
N    -2.940749  -1.667393  0.050649
C    -3.343014  -2.583363  -1.021748
H    -3.421667  -1.749597  0.939887
H    -2.790232  -3.529722  -0.959101
H    -3.139562  -2.116559  -1.989697
H    -4.414138  -2.786875  -0.932075
Sr    3.010171  1.624814  -1.836559
