37
Energy: -108386.063212 eV PBE+vdW (tier 2 basis)
C    0.877444  0.047447  0.360085
C    0.175101  0.550279  1.587446
O    0.765562  1.006868  2.566942
H    1.503201  0.849841  -0.052453
H    0.203455  -0.313679  -0.424987
H    1.560067  -0.762538  0.650113
N    -1.216048  0.462127  1.587780
C    -1.943201  1.141130  2.644340
C    -3.069499  0.289346  3.213298
O    -3.588417  -0.686935  2.534848
H    -1.651249  0.408881  0.670872
H    -1.192776  1.252123  3.445499
C    -2.446019  2.557099  2.226233
C    -1.315771  3.543310  1.881126
C    -0.505858  4.034972  3.093572
N    0.581502  4.936634  2.717009
C    1.903255  4.687155  2.805841
N    2.759638  5.715064  2.732800
N    2.368963  3.444310  2.960579
H    -3.075902  2.978927  3.023030
H    -3.104940  2.448601  1.351373
H    -1.780012  4.409555  1.387687
H    -0.635236  3.107679  1.135662
H    -0.066195  3.199266  3.651625
H    -1.161845  4.576649  3.791726
H    0.321449  5.876650  2.433712
H    2.456052  6.673750  2.859143
H    3.751789  5.565930  2.588077
H    1.802827  2.606547  2.804703
H    3.339793  3.299486  3.213509
N    -3.548882  0.546742  4.415428
C    -3.107545  1.540820  5.401487
H    -4.348346  -0.018507  4.701387
H    -3.198643  1.096785  6.398503
H    -3.743325  2.434120  5.353464
H    -2.063242  1.816437  5.234772
Sr    -4.319629  -2.550461  1.625141
