37
Energy: -108387.802836 eV PBE+vdW (tier 2 basis)
C    0.568841  -1.559134  -0.525447
C    0.002135  -1.210435  0.808263
O    0.755291  -0.990276  1.804577
H    1.221231  -2.437659  -0.428525
H    1.206650  -0.728950  -0.863362
H    -0.191597  -1.756457  -1.287998
N    -1.334538  -1.123052  0.942690
C    -2.024632  -0.650301  2.154803
C    -1.882817  -1.697568  3.292120
O    -0.970008  -1.493217  4.156342
H    -1.896980  -1.290639  0.111307
H    -1.449092  0.206661  2.535778
C    -3.432986  -0.141649  1.782601
C    -4.242084  0.453979  2.947662
C    -5.564431  1.055600  2.440961
N    -6.341825  1.639127  3.537428
C    -7.310362  2.569679  3.398647
N    -7.821775  3.151264  4.488924
N    -7.740611  2.931806  2.185328
H    -4.012743  -0.935608  1.291593
H    -3.273959  0.638002  1.021099
H    -3.660598  1.240057  3.452633
H    -4.457348  -0.322430  3.700125
H    -6.152782  0.278845  1.922988
H    -5.348310  1.854439  1.716455
H    -6.276411  1.195918  4.448650
H    -8.678312  3.693433  4.444764
H    -7.360310  3.099259  5.389704
H    -8.348212  3.736593  2.069592
H    -7.625109  2.334102  1.376252
N    -2.632842  -2.787258  3.377969
C    -3.670165  -3.304588  2.478888
H    -2.420368  -3.366309  4.191947
H    -4.645473  -2.848216  2.689018
H    -3.754163  -4.382163  2.650378
H    -3.397227  -3.153363  1.430365
Sr    1.311925  -1.074491  4.015484
