37
Energy: -108387.120236 eV PBE+vdW (tier 2 basis)
C    -0.504374  -2.293930  -0.398730
C    -0.530792  -1.519219  0.874730
O    0.471468  -0.837895  1.249574
H    0.359252  -2.972727  -0.398999
H    -0.353778  -1.592425  -1.232833
H    -1.417128  -2.870578  -0.580716
N    -1.647536  -1.546976  1.624093
C    -1.895341  -0.729710  2.826630
C    -0.972836  -1.196933  3.984272
O    0.104969  -0.539952  4.167077
H    -2.425522  -2.100478  1.270903
H    -1.530411  0.285653  2.609182
C    -3.419812  -0.679863  3.069263
C    -3.955517  0.142221  4.259582
C    -4.060611  1.673097  4.022677
N    -5.322997  2.258389  4.490264
C    -5.518340  3.037794  5.572130
N    -6.596572  3.824008  5.628716
N    -4.636872  3.041823  6.582977
H    -3.801605  -1.704227  3.163382
H    -3.861402  -0.285377  2.140199
H    -3.384150  -0.068595  5.176769
H    -4.969368  -0.231776  4.456514
H    -4.004908  1.889263  2.945742
H    -3.236711  2.225756  4.491289
H    -6.123412  2.156840  3.872735
H    -6.914734  4.224327  6.505568
H    -7.133054  4.057811  4.800022
H    -4.701565  3.738157  7.318199
H    -4.046987  2.241068  6.767424
N    -1.234379  -2.244705  4.752652
C    -2.325856  -3.226890  4.707253
H    -0.528610  -2.404018  5.473233
H    -3.225972  -2.848423  5.206627
H    -1.989097  -4.120617  5.241298
H    -2.554474  -3.517698  3.677573
Sr    1.915034  -0.015192  2.804732
