37
Energy: -108386.052601 eV PBE+vdW (tier 2 basis)
C    -0.382983  0.609117  -0.674045
C    0.095812  -0.101095  0.547358
O    1.353824  -0.421512  0.626343
H    -0.065719  1.662521  -0.630739
H    -1.467708  0.579176  -0.801724
H    0.089190  0.163515  -1.558961
N    -0.700278  -0.440543  1.553578
C    -2.134877  -0.123463  1.849627
C    -3.189164  -0.958403  1.071451
O    -4.361488  -0.865252  1.446438
H    -0.222926  -0.942628  2.302763
H    -2.251848  -0.475273  2.884892
C    -2.367987  1.413934  1.839004
C    -3.742027  1.993743  2.230982
C    -4.274041  1.751210  3.654726
N    -5.113342  0.552800  3.722084
C    -6.135889  0.372840  4.566054
N    -7.025604  -0.602414  4.324961
N    -6.286089  1.149708  5.648099
H    -2.151836  1.805799  0.837136
H    -1.604223  1.838060  2.509418
H    -4.510181  1.705734  1.502116
H    -3.624178  3.080517  2.118213
H    -4.884444  2.619738  3.940641
H    -3.442499  1.688131  4.378054
H    -4.987328  -0.113973  2.946372
H    -7.709654  -0.879358  5.018842
H    -7.075914  -1.051342  3.418892
H    -7.133407  1.118909  6.203116
H    -5.544355  1.752639  5.978537
N    -2.811235  -1.741518  0.047300
C    -3.771840  -2.575558  -0.685102
H    -1.827108  -1.902876  -0.122298
H    -3.316090  -2.891456  -1.627792
H    -4.673132  -1.992139  -0.896204
H    -4.051729  -3.460705  -0.099555
Sr    3.536095  -0.672496  0.396581
