37
Energy: -108386.231988 eV PBE+vdW (tier 2 basis)
C    -0.319603  1.078040  1.274254
C    -0.264202  -0.053313  2.241878
O    0.837896  -0.217439  2.913662
H    0.510058  0.995823  0.563339
H    -0.201949  2.015495  1.840296
H    -1.248310  1.122351  0.707006
N    -1.310852  -0.800122  2.590490
C    -2.436159  -1.212996  1.735376
C    -1.780264  -1.891050  0.482526
O    -0.656623  -1.528176  0.127867
H    -1.107928  -1.450461  3.348348
H    -2.942804  -1.985216  2.325305
C    -3.490181  -0.092276  1.424727
C    -3.781627  0.206612  -0.056454
C    -4.757115  1.368352  -0.294368
N    -6.146047  1.010212  0.031208
C    -7.165426  1.890063  0.119266
N    -8.378169  1.460018  0.487373
N    -6.965749  3.189965  -0.123720
H    -3.156615  0.828399  1.922790
H    -4.420615  -0.372280  1.936171
H    -4.160100  -0.687202  -0.575689
H    -2.854785  0.466022  -0.589010
H    -4.683931  1.666662  -1.352741
H    -4.475117  2.234284  0.323501
H    -6.412275  0.040411  -0.112145
H    -8.520161  0.540134  0.886877
H    -9.200840  2.043113  0.378140
H    -6.173852  3.513520  -0.665391
H    -7.688958  3.873087  0.075268
N    -2.491583  -2.843200  -0.147238
C    -3.733378  -3.484135  0.283593
H    -2.011101  -3.252239  -0.946847
H    -4.136095  -4.053620  -0.559427
H    -4.492484  -2.747874  0.575873
H    -3.568527  -4.182214  1.116303
Sr    2.923795  -0.391915  3.528097
