37
Energy: -108386.498660 eV PBE+vdW (tier 2 basis)
C    0.523949  0.382208  1.924979
C    -0.136784  -0.952610  2.029292
O    0.607475  -2.006649  1.881830
H    -0.177957  1.217122  1.917153
H    1.131698  0.434593  1.016129
H    1.189246  0.493410  2.796231
N    -1.366131  -1.125568  2.551404
C    -2.530250  -0.337436  2.115865
C    -2.379519  -0.205840  0.554730
O    -1.303770  -0.536692  0.031270
H    -1.582378  -2.108029  2.712655
H    -3.394377  -0.988794  2.315558
C    -2.800668  0.991652  2.858393
C    -3.014648  0.798001  4.371050
C    -3.832288  1.886076  5.079496
N    -3.133067  3.176032  5.175135
C    -3.724123  4.332315  5.546270
N    -3.008617  5.463916  5.560408
N    -5.021582  4.362604  5.865708
H    -3.714892  1.415423  2.415682
H    -2.012024  1.727813  2.654655
H    -2.051062  0.656776  4.884998
H    -3.572040  -0.135631  4.542026
H    -4.085320  1.519459  6.087878
H    -4.773464  2.050874  4.533908
H    -2.123823  3.143659  5.283805
H    -3.361476  6.306366  6.001286
H    -2.097745  5.524292  5.122311
H    -5.504195  5.244291  6.004502
H    -5.526643  3.524721  6.127088
N    -3.438742  0.248393  -0.118165
C    -3.469135  0.401452  -1.575953
H    -4.303756  0.419193  0.384518
H    -3.840507  -0.513015  -2.056206
H    -4.130082  1.234959  -1.832637
H    -2.458342  0.612732  -1.935296
Sr    1.934646  -3.445898  0.927377
