37
Energy: -108386.458889 eV PBE+vdW (tier 2 basis)
C    0.456655  -1.062552  0.940937
C    -0.022260  0.196080  1.594382
O    0.326616  1.343544  1.094323
H    1.556030  -1.086722  0.944218
H    0.116593  -1.091215  -0.104207
H    0.098067  -1.968838  1.440085
N    -0.783333  0.095787  2.663288
C    -1.400621  1.118371  3.530915
C    -1.243456  0.517291  4.952463
O    -1.742520  -0.599525  5.147870
H    -1.001512  -0.851386  2.991372
H    -0.863454  2.067076  3.403146
C    -2.897068  1.246980  3.151292
C    -3.795665  2.112160  4.053313
C    -4.130093  1.581097  5.462813
N    -4.598699  0.193988  5.512338
C    -5.845278  -0.221656  5.792672
N    -6.041857  -1.488715  6.181594
N    -6.895523  0.601246  5.680685
H    -3.310884  0.229356  3.092268
H    -2.943188  1.652639  2.130605
H    -4.733207  2.258226  3.497039
H    -3.369295  3.119348  4.180596
H    -4.887289  2.230834  5.920074
H    -3.258184  1.645476  6.125997
H    -3.860673  -0.511526  5.494084
H    -6.971171  -1.892584  6.215889
H    -5.279772  -2.059882  6.527122
H    -7.799021  0.351873  6.067248
H    -6.836117  1.482852  5.188815
N    -0.576827  1.241926  5.862201
C    -0.358711  0.803890  7.242699
H    -0.217948  2.152663  5.594334
H    0.687672  0.971454  7.519855
H    -0.587210  -0.263009  7.311278
H    -1.002800  1.362677  7.934320
Sr    1.364226  2.660038  -0.337894
