37
Energy: -108386.515947 eV PBE+vdW (tier 2 basis)
C    0.175662  0.775399  0.468059
C    -0.207876  1.011548  1.889870
O    0.732232  1.275394  2.754138
H    0.588918  1.701682  0.042585
H    -0.656317  0.446758  -0.159565
H    0.967977  0.016176  0.426273
N    -1.452208  0.972881  2.306440
C    -2.714458  0.803943  1.558196
C    -3.704224  1.629433  2.431915
O    -3.556969  1.549604  3.657186
H    -1.674092  1.147851  3.303279
H    -2.599137  1.217276  0.549381
C    -3.100740  -0.698635  1.505053
C    -4.356202  -1.059717  0.684632
C    -5.724326  -0.946888  1.386124
N    -6.015204  -2.014829  2.351667
C    -6.790241  -3.093088  2.126078
N    -7.269000  -3.790295  3.164186
N    -7.085712  -3.480308  0.879986
H    -3.185727  -1.065809  2.539329
H    -2.244129  -1.229697  1.065647
H    -4.228902  -2.093542  0.331795
H    -4.395688  -0.449139  -0.229953
H    -6.524498  -0.946315  0.633769
H    -5.823509  0.002985  1.925837
H    -5.731163  -1.865599  3.313960
H    -7.690269  -4.703858  3.035792
H    -7.313715  -3.394977  4.096136
H    -7.810121  -4.168258  0.705378
H    -6.578520  -3.137878  0.074812
N    -4.668460  2.356547  1.840255
C    -4.838032  2.681050  0.421731
H    -5.238918  2.879655  2.503727
H    -5.828347  3.127365  0.290476
H    -4.796203  1.785924  -0.207971
H    -4.090279  3.407615  0.075748
Sr    2.459184  1.822897  3.968256
