37
Energy: -108386.500041 eV PBE+vdW (tier 2 basis)
C    1.373563  -1.329367  -0.754334
C    0.976692  0.107060  -0.773357
O    1.831483  0.992744  -1.187188
H    1.134986  -1.771010  -1.734708
H    0.843960  -1.911739  0.006525
H    2.450498  -1.422584  -0.579895
N    -0.219249  0.502685  -0.375364
C    -1.360820  -0.381266  -0.073586
C    -1.747876  -1.115355  -1.399830
O    -1.348975  -0.659963  -2.471169
H    -0.419083  1.494827  -0.495273
H    -1.015619  -1.107046  0.675335
C    -2.534540  0.404809  0.556197
C    -3.504731  1.097207  -0.417742
C    -4.668206  1.746216  0.345935
N    -5.665326  2.301305  -0.575799
C    -6.944292  2.583578  -0.264079
N    -7.808009  2.896892  -1.237871
N    -7.363007  2.531930  1.005612
H    -2.120244  1.126215  1.278263
H    -3.100255  -0.314653  1.163860
H    -3.909647  0.359934  -1.126550
H    -2.985736  1.859717  -1.021094
H    -4.287077  2.534255  1.017148
H    -5.166546  0.986676  0.967003
H    -5.345862  2.598420  -1.492304
H    -8.713347  3.303396  -1.029371
H    -7.606786  2.702692  -2.211612
H    -8.350472  2.588792  1.230507
H    -6.716438  2.578849  1.782969
N    -2.511116  -2.223046  -1.294537
C    -3.026021  -2.894559  -0.103424
H    -2.755416  -2.627829  -2.196957
H    -3.152969  -3.958098  -0.329670
H    -4.001141  -2.494702  0.208350
H    -2.322976  -2.823141  0.734769
Sr    3.581802  1.922543  -2.112615
