37
Energy: -108386.009829 eV PBE+vdW (tier 2 basis)
C    2.153342  2.283228  0.247695
C    1.434091  1.606010  1.382986
O    1.962744  1.391643  2.478609
H    2.921390  1.599375  -0.141660
H    2.675629  3.166856  0.633141
H    1.505802  2.579884  -0.584989
N    0.132185  1.230618  1.112890
C    -0.783714  0.413581  1.909159
C    -1.963406  1.230160  2.470378
O    -3.169751  0.774598  2.277856
H    -0.181027  1.425615  0.166929
H    -1.259625  -0.282606  1.201159
C    -0.162577  -0.441423  3.046816
C    0.948403  -1.402941  2.581396
C    1.943373  -1.673231  3.728354
N    3.212354  -2.250454  3.292446
C    4.366012  -1.571259  3.139383
N    4.375649  -0.236561  3.062398
N    5.516668  -2.253971  3.061874
H    -0.988217  -1.009989  3.501578
H    0.227696  0.220651  3.827489
H    1.498934  -0.971820  1.737317
H    0.517407  -2.347399  2.220444
H    1.507599  -2.355361  4.470852
H    2.166592  -0.737561  4.257312
H    3.259489  -3.257570  3.175451
H    5.250562  0.265848  3.159954
H    3.535182  0.324243  2.895262
H    5.586349  -3.216821  3.370340
H    6.375000  -1.808254  2.758747
N    -1.815767  2.351842  3.139769
C    -0.598531  3.079113  3.525333
H    -2.687447  2.796146  3.430512
H    -0.756305  3.484972  4.530449
H    -0.432611  3.911526  2.829197
H    0.275319  2.423496  3.531125
Sr    -5.231573  0.087271  1.948680
