37
Energy: -108386.305724 eV PBE+vdW (tier 2 basis)
C    -0.335642  -0.894392  -0.052669
C    -0.094463  -0.493276  1.359731
O    1.028245  -0.825212  1.927247
H    -0.334602  -1.993254  -0.112059
H    0.493008  -0.533755  -0.677771
H    -1.286793  -0.537144  -0.458654
N    -0.980404  0.180292  2.078921
C    -2.296852  0.768495  1.682695
C    -3.285944  -0.307038  1.135791
O    -3.532156  -0.396092  -0.072230
H    -0.683265  0.385697  3.032815
H    -2.711663  1.113432  2.640308
C    -2.080473  2.005894  0.773020
C    -3.272919  2.542349  -0.043917
C    -4.604980  2.719437  0.702499
N    -5.689543  3.131661  -0.189545
C    -6.457186  2.304982  -0.920868
N    -7.528718  2.796084  -1.556571
N    -6.177441  0.996337  -0.998596
H    -1.286494  1.780266  0.048827
H    -1.682818  2.801799  1.419915
H    -3.427176  1.888834  -0.909768
H    -2.967229  3.518592  -0.446689
H    -4.525748  3.488006  1.482617
H    -4.927622  1.796563  1.207391
H    -5.847849  4.127505  -0.304795
H    -8.024379  2.255062  -2.255593
H    -7.893923  3.718936  -1.350989
H    -5.267162  0.607469  -0.753066
H    -6.832589  0.368148  -1.449114
N    -3.848490  -1.088515  2.077385
C    -4.813180  -2.144947  1.769557
H    -3.668216  -0.892521  3.057052
H    -4.705272  -2.955530  2.497189
H    -4.618043  -2.525920  0.762890
H    -5.842329  -1.764220  1.816688
Sr    3.041245  -1.543335  2.444468
