37
Energy: -108386.980207 eV PBE+vdW (tier 2 basis)
C    0.373062  0.416226  0.257213
C    0.064451  0.031366  1.663236
O    0.987839  -0.276140  2.473230
H    0.923855  1.368004  0.224613
H    -0.508937  0.480871  -0.385912
H    1.058055  -0.342000  -0.150602
N    -1.224596  -0.011464  2.103776
C    -2.158991  1.099615  1.910500
C    -1.607267  2.311194  2.727298
O    -0.643012  2.125603  3.543781
H    -1.298527  -0.432474  3.031536
H    -2.153049  1.382039  0.846933
C    -3.589097  0.685952  2.325048
C    -4.225369  -0.344942  1.375360
C    -5.661466  -0.700856  1.792949
N    -6.257413  -1.647382  0.845374
C    -7.321903  -2.438718  1.091470
N    -7.655766  -3.383924  0.206405
N    -8.024287  -2.305132  2.222492
H    -4.217397  1.585831  2.367695
H    -3.558437  0.296058  3.355909
H    -3.618755  -1.261483  1.341092
H    -4.239049  0.070239  0.354079
H    -6.270964  0.217081  1.852302
H    -5.657416  -1.170190  2.787878
H    -5.957107  -1.590225  -0.123119
H    -7.021452  -3.677179  -0.527654
H    -8.555229  -3.851518  0.247035
H    -8.018128  -1.443899  2.754628
H    -8.727236  -2.990613  2.479022
N    -2.112142  3.521187  2.559845
C    -3.152879  3.984724  1.636624
H    -1.704230  4.238003  3.162684
H    -4.110822  4.097263  2.160432
H    -3.267817  3.297600  0.793633
H    -2.854120  4.962944  1.244325
Sr    1.358012  1.160932  4.269946
