37
Energy: -108386.702504 eV PBE+vdW (tier 2 basis)
C    0.434011  0.057764  0.871542
C    -0.205075  0.031196  2.222055
O    0.499723  -0.090501  3.267085
H    1.517102  0.159553  0.986917
H    0.053273  0.888583  0.266297
H    0.233108  -0.876758  0.324141
N    -1.554372  0.138277  2.362085
C    -2.535284  -0.623279  1.575524
C    -2.181621  -2.139142  1.737948
O    -1.299986  -2.500264  2.580330
H    -1.829942  0.279278  3.333680
H    -3.479695  -0.493371  2.128598
C    -2.791568  -0.073602  0.141330
C    -4.235056  -0.287331  -0.375029
C    -4.765592  0.785690  -1.344752
N    -4.253371  0.671094  -2.714426
C    -4.909245  1.101453  -3.816639
N    -4.438573  0.776609  -5.026234
N    -6.027071  1.824779  -3.709171
H    -2.052227  -0.474655  -0.565569
H    -2.606873  1.007436  0.217687
H    -4.928486  -0.264120  0.479502
H    -4.363471  -1.272074  -0.853066
H    -4.554905  1.787416  -0.933283
H    -5.856545  0.670287  -1.396715
H    -3.274922  0.438753  -2.848148
H    -4.779381  1.236345  -5.864314
H    -3.785375  0.013381  -5.158012
H    -6.617838  1.992316  -4.517677
H    -6.254770  2.342337  -2.868746
N    -2.853979  -3.026311  1.027337
C    -2.698102  -4.482496  1.146731
H    -3.567563  -2.684720  0.389651
H    -3.359709  -4.960960  0.420220
H    -2.974558  -4.814139  2.154797
H    -1.662956  -4.772960  0.934908
Sr    0.368127  -2.205879  4.215895
