37
Energy: -108387.784683 eV PBE+vdW (tier 2 basis)
C    -0.305545  -0.057645  -0.119798
C    -0.265340  -0.316694  1.348705
O    0.829821  -0.300620  1.986302
H    -1.312630  -0.104212  -0.546894
H    0.337080  -0.783547  -0.636939
H    0.122972  0.935974  -0.315056
N    -1.421486  -0.565294  1.993216
C    -1.550422  -0.746446  3.448364
C    -0.905491  -2.091845  3.884424
O    0.296685  -2.044219  4.304608
H    -2.270602  -0.588342  1.433864
H    -0.893761  0.001026  3.918107
C    -2.992979  -0.487385  3.930566
C    -3.376842  1.004204  3.988677
C    -4.850194  1.185511  4.402172
N    -5.280846  2.588286  4.386579
C    -5.910946  3.259220  5.374945
N    -6.667012  4.317358  5.065841
N    -5.781330  2.893019  6.655537
H    -3.093246  -0.931424  4.932411
H    -3.706600  -1.027282  3.290805
H    -3.221728  1.475479  3.005127
H    -2.725267  1.537859  4.696678
H    -5.029052  0.775403  5.403932
H    -5.505524  0.619912  3.720867
H    -5.316457  3.035126  3.474563
H    -7.021026  4.467325  4.127487
H    -6.956277  4.984578  5.773866
H    -6.385521  3.283584  7.370780
H    -5.013814  2.315751  6.972350
N    -1.526672  -3.259406  3.821254
C    -2.856798  -3.617871  3.316108
H    -0.967652  -4.035466  4.180085
H    -3.623669  -3.487363  4.089266
H    -2.831197  -4.674339  3.031626
H    -3.110794  -3.037099  2.424549
Sr    2.283165  -1.146114  3.546026
