37
Energy: -108387.944875 eV PBE+vdW (tier 2 basis)
C    0.478432  -0.779237  -0.148930
C    0.182141  -0.299494  1.232223
O    0.991801  0.455760  1.849392
H    1.452496  -1.286443  -0.162714
H    0.570054  0.095608  -0.809643
H    -0.283899  -1.452685  -0.554082
N    -0.973914  -0.677500  1.809084
C    -1.495398  -0.191107  3.100044
C    -0.697139  -0.842624  4.261220
O    0.386927  -0.297087  4.631223
H    -1.569889  -1.302930  1.271266
H    -1.250047  0.880084  3.163375
C    -3.031157  -0.348979  3.126655
C    -3.711020  0.354220  4.316722
C    -5.222287  0.100620  4.466114
N    -6.048948  0.858166  3.519731
C    -7.323561  1.246581  3.745539
N    -7.906353  2.104927  2.900798
N    -7.996406  0.800759  4.810722
H    -3.309391  -1.417454  3.106121
H    -3.396507  0.065876  2.174064
H    -3.529225  1.438644  4.272555
H    -3.257796  0.007970  5.257495
H    -5.512580  0.418294  5.476388
H    -5.434601  -0.979087  4.382968
H    -5.718065  0.969229  2.567266
H    -7.366380  2.675492  2.260864
H    -8.909065  2.259966  2.916365
H    -8.881024  1.220425  5.078673
H    -7.737212  -0.051939  5.291728
N    -1.145452  -1.955710  4.815765
C    -0.472375  -2.700864  5.885702
H    -2.008785  -2.351613  4.452839
H    -1.230825  -3.150074  6.534333
H    0.150120  -2.017949  6.469247
H    0.150486  -3.498857  5.460721
Sr    2.178838  0.881011  3.751167
