37
Energy: -108387.251182 eV PBE+vdW (tier 2 basis)
C    -0.765742  -2.404047  -0.498319
C    -0.506011  -1.838176  0.855830
O    0.670832  -1.759133  1.320604
H    -1.827755  -2.442164  -0.761679
H    -0.340371  -3.414896  -0.561986
H    -0.234958  -1.791650  -1.242267
N    -1.548469  -1.398183  1.586603
C    -1.420978  -0.687371  2.869038
C    -0.939068  -1.661689  3.977097
O    0.302907  -1.652294  4.255503
H    -2.472048  -1.462870  1.165008
H    -0.568992  0.000972  2.764357
C    -2.672099  0.179590  3.131446
C    -2.600752  1.004084  4.430477
C    -3.531952  2.231563  4.465171
N    -4.969975  1.945222  4.578393
C    -5.778450  2.345346  5.586648
N    -7.088371  2.487820  5.359279
N    -5.292222  2.576322  6.810296
H    -3.584391  -0.432702  3.109272
H    -2.734253  0.865804  2.271633
H    -1.581703  1.404374  4.551057
H    -2.787955  0.367296  5.308528
H    -3.382644  2.838859  3.559554
H    -3.247485  2.877803  5.304347
H    -5.453355  1.695277  3.721176
H    -7.749434  2.579250  6.124143
H    -7.458793  2.612679  4.423562
H    -5.848289  3.054474  7.511547
H    -4.373430  2.261756  7.092983
N    -1.745446  -2.506058  4.604422
C    -3.172542  -2.776710  4.407360
H    -1.276858  -3.071185  5.314260
H    -3.794796  -2.063232  4.961978
H    -3.379485  -3.780682  4.790460
H    -3.434851  -2.763886  3.345292
Sr    2.240184  -1.825563  2.979926
