37
Energy: -108387.897461 eV PBE+vdW (tier 2 basis)
C    -0.179701  -2.225203  1.342791
C    -1.548391  -1.796084  1.752185
O    -2.576889  -2.416437  1.346825
H    0.616569  -1.578026  1.724779
H    -0.117456  -2.267822  0.247193
H    -0.012363  -3.249632  1.707703
N    -1.671333  -0.738146  2.575422
C    -2.924105  -0.277472  3.202432
C    -3.801556  0.445885  2.148305
O    -4.575453  -0.248954  1.422353
H    -0.810349  -0.274871  2.857216
H    -3.499579  -1.178468  3.464823
C    -2.598901  0.479833  4.507961
C    -3.838696  0.812928  5.361373
C    -3.574776  1.045853  6.857470
N    -2.872435  2.305578  7.143124
C    -2.300724  2.599359  8.336265
N    -1.661966  3.764471  8.485804
N    -2.337481  1.725475  9.345990
H    -2.001887  1.383928  4.299963
H    -1.934769  -0.183421  5.083569
H    -4.540073  -0.034383  5.323250
H    -4.394125  1.667660  4.944418
H    -2.964159  0.220808  7.252432
H    -4.546088  1.026671  7.378094
H    -3.145958  3.112610  6.589331
H    -1.380231  4.099123  9.401472
H    -1.423092  4.349597  7.694103
H    -1.789149  1.878837  10.186494
H    -3.027290  0.985177  9.388489
N    -3.707154  1.757903  2.013038
C    -4.440894  2.560244  1.027145
H    -3.041236  2.246296  2.605466
H    -3.857763  2.657030  0.101974
H    -4.615940  3.557082  1.442887
H    -5.399687  2.082252  0.809700
Sr    -4.660919  -2.343682  0.424159
