37
Energy: -108386.580619 eV PBE+vdW (tier 2 basis)
C    -1.391643  -3.153250  1.910600
C    -0.656461  -1.868747  1.720949
O    0.632152  -1.859806  1.904352
H    -0.978902  -3.914341  1.233511
H    -2.467556  -3.081054  1.735874
H    -1.234184  -3.509165  2.938799
N    -1.260533  -0.750808  1.376203
C    -2.675135  -0.527205  1.016980
C    -2.638452  0.681852  0.061825
O    -1.807597  1.584319  0.292429
H    -0.705596  0.109066  1.252113
H    -3.046717  -1.418228  0.494509
C    -3.586739  -0.260212  2.244372
C    -3.273396  0.939853  3.171069
C    -4.104066  2.221780  2.995469
N    -3.601977  3.113481  1.944388
C    -4.017013  4.374703  1.761063
N    -3.379525  5.155475  0.872944
N    -5.060743  4.861939  2.442016
H    -3.570664  -1.178132  2.848964
H    -4.616622  -0.188041  1.863508
H    -2.202921  1.194064  3.166486
H    -3.483129  0.605496  4.195264
H    -4.084350  2.767336  3.951283
H    -5.153480  1.947715  2.792694
H    -2.851983  2.765407  1.337998
H    -2.474484  4.891937  0.504044
H    -3.706156  6.091281  0.662572
H    -5.319380  5.840272  2.382539
H    -5.652144  4.270459  3.011377
N    -3.545256  0.702578  -0.916939
C    -3.691504  1.799082  -1.875401
H    -4.168079  -0.094003  -1.020523
H    -3.854031  1.384915  -2.875925
H    -2.774192  2.394173  -1.874681
H    -4.546771  2.434620  -1.611634
Sr    2.751662  -2.344387  2.187767
