37
Energy: -108387.855208 eV PBE+vdW (tier 2 basis)
C    0.263608  0.679859  0.295789
C    -0.233096  -0.003982  1.525092
O    0.514047  -0.156317  2.537266
H    0.581516  1.698277  0.562140
H    -0.479378  0.734984  -0.506580
H    1.156721  0.159910  -0.077204
N    -1.502084  -0.455227  1.544615
C    -2.160396  -1.059116  2.714262
C    -1.562364  -2.463623  3.007831
O    -0.631418  -2.521531  3.875770
H    -2.054991  -0.325551  0.700926
H    -1.842955  -0.473923  3.590302
C    -3.697428  -0.973219  2.616913
C    -4.261357  0.433777  2.893739
C    -5.798304  0.442835  2.831021
N    -6.330095  1.778712  3.115702
C    -7.551677  2.228127  2.758162
N    -7.847638  3.521899  2.921062
N    -8.452101  1.400253  2.216265
H    -4.114480  -1.683079  3.347045
H    -4.035278  -1.320374  1.629728
H    -3.867600  1.163212  2.170012
H    -3.936710  0.763915  3.893772
H    -6.202526  -0.292377  3.547547
H    -6.131953  0.153094  1.823748
H    -5.822356  2.350732  3.783824
H    -8.804122  3.855851  2.865862
H    -7.129956  4.217466  3.088772
H    -9.307627  1.762424  1.807546
H    -8.411627  0.399285  2.363588
N    -1.952958  -3.572114  2.398293
C    -2.927687  -3.789232  1.323593
H    -1.478726  -4.410203  2.739276
H    -2.656358  -4.717119  0.810626
H    -2.893725  -2.978672  0.589692
H    -3.942318  -3.900887  1.724821
Sr    1.346794  -1.402646  4.275599
