37
Energy: -108386.489930 eV PBE+vdW (tier 2 basis)
C    0.097338  0.671191  0.082058
C    0.135646  0.524701  1.561685
O    1.273584  0.667186  2.179092
H    -0.868398  0.400294  -0.354403
H    0.871674  0.030137  -0.361173
H    0.344270  1.711218  -0.178954
N    -0.933719  0.256639  2.295548
C    -2.379347  0.103605  1.932889
C    -2.600016  -1.089742  0.950476
O    -2.667246  -0.884027  -0.267939
H    -0.744373  0.193528  3.295689
H    -2.849115  -0.144710  2.895254
C    -2.993024  1.412488  1.405543
C    -4.526688  1.512632  1.525872
C    -5.385155  0.526623  0.715406
N    -5.175315  0.571694  -0.732857
C    -6.027455  1.058047  -1.648251
N    -5.868400  0.721202  -2.936595
N    -7.026774  1.880714  -1.305122
H    -2.684604  1.558252  0.361185
H    -2.566579  2.242936  1.985389
H    -4.798175  2.540598  1.244309
H    -4.823459  1.406414  2.581084
H    -6.445855  0.712852  0.927078
H    -5.208943  -0.511017  1.033212
H    -4.346202  0.076907  -1.065200
H    -5.323178  -0.088798  -3.205302
H    -6.365670  1.207367  -3.674015
H    -7.060628  2.337060  -0.403206
H    -7.779249  2.088050  -1.951994
N    -2.709776  -2.299559  1.524107
C    -2.929220  -3.536275  0.771929
H    -2.717758  -2.362493  2.537581
H    -2.326014  -4.339878  1.207505
H    -2.632759  -3.374846  -0.267813
H    -3.986669  -3.829502  0.805594
Sr    3.356926  0.988341  2.794317
