37
Energy: -108387.945005 eV PBE+vdW (tier 2 basis)
C    -0.594670  -2.094691  0.382765
C    -0.432433  -1.058199  1.444585
O    0.524689  -0.229406  1.404875
H    0.326847  -2.686034  0.298412
H    -0.730179  -1.585414  -0.582836
H    -1.440108  -2.769737  0.551391
N    -1.336392  -1.016370  2.442171
C    -1.418388  0.010858  3.495340
C    -0.321865  -0.233891  4.566842
O    0.864269  0.135807  4.306877
H    -2.052723  -1.738075  2.437517
H    -1.128290  0.964677  3.027665
C    -2.862559  0.155902  4.019448
C    -3.835277  0.727737  2.964806
C    -5.153910  1.306362  3.508852
N    -6.168960  0.297080  3.833841
C    -7.503029  0.514298  3.809642
N    -8.338908  -0.524129  3.926181
N    -7.991827  1.747607  3.650874
H    -2.826941  0.842427  4.878847
H    -3.224765  -0.814131  4.403683
H    -4.060084  -0.009129  2.179815
H    -3.335590  1.566696  2.457434
H    -5.578237  1.947508  2.724682
H    -4.949427  1.944279  4.385463
H    -5.872470  -0.569279  4.269888
H    -8.035179  -1.476097  3.758680
H    -9.326809  -0.385997  4.112532
H    -8.976263  1.894778  3.451590
H    -7.444027  2.573930  3.857866
N    -0.637936  -0.815176  5.710247
C    0.297286  -1.107087  6.802877
H    -1.605926  -1.090932  5.852075
H    -0.208776  -0.930094  7.757428
H    1.167095  -0.451014  6.722147
H    0.618536  -2.155710  6.755918
Sr    2.295226  0.642648  2.565582
