37
Energy: -108387.996806 eV PBE+vdW (tier 2 basis)
C    -1.010165  0.158144  -0.102094
C    -1.676800  -0.296488  1.154137
O    -2.689773  -1.056685  1.115051
H    -0.654492  -0.727497  -0.648821
H    -0.167119  0.836101  0.067035
H    -1.744180  0.653244  -0.751874
N    -1.168633  0.112841  2.331467
C    -1.609706  -0.317591  3.670676
C    -2.946680  0.383990  4.035391
O    -4.024004  -0.081146  3.550191
H    -0.387697  0.763330  2.288864
H    -1.870960  -1.384330  3.594293
C    -0.472253  -0.150538  4.697455
C    0.719149  -1.109831  4.502548
C    1.828310  -0.843439  5.539215
N    3.020569  -1.672233  5.329507
C    3.637163  -2.458153  6.238459
N    2.972045  -2.962598  7.284486
N    4.932990  -2.744852  6.080724
H    -0.902534  -0.312990  5.697086
H    -0.105882  0.891586  4.681053
H    1.142002  -0.997101  3.492161
H    0.379026  -2.153131  4.582051
H    1.461546  -1.010948  6.559686
H    2.137874  0.212875  5.497280
H    3.565341  -1.470932  4.495645
H    3.468739  -3.402352  8.052028
H    1.963506  -3.037009  7.291920
H    5.537898  -2.184160  5.490681
H    5.370619  -3.507893  6.587119
N    -2.936063  1.442086  4.825898
C    -4.118650  2.205082  5.241859
H    -2.038036  1.767476  5.174657
H    -3.986506  2.520260  6.281858
H    -5.006694  1.574100  5.159821
H    -4.236057  3.095204  4.610296
Sr    -4.863893  -1.306420  1.786189
