37
Energy: -108387.838853 eV PBE+vdW (tier 2 basis)
C    -1.928962  0.535725  -0.080651
C    -1.647402  0.126376  1.330084
O    -1.207678  -1.034515  1.582379
H    -1.009458  0.450786  -0.676189
H    -2.321042  1.553261  -0.179239
H    -2.649137  -0.172135  -0.514957
N    -1.877204  1.033597  2.298235
C    -1.812981  0.912963  3.772045
C    -0.395170  0.611509  4.297456
O    0.190859  -0.485073  4.031725
H    -2.199204  1.937215  1.962272
H    -2.072432  1.919055  4.122241
C    -2.853831  -0.060242  4.381017
C    -4.302724  0.435466  4.219163
C    -5.312845  -0.445957  4.972876
N    -6.676258  0.065940  4.804737
C    -7.699442  -0.109317  5.666582
N    -8.826014  0.590921  5.498247
N    -7.586993  -0.953923  6.698526
H    -2.614457  -0.158693  5.451560
H    -2.733081  -1.059923  3.939943
H    -4.569236  0.462113  3.150559
H    -4.386936  1.465692  4.598201
H    -5.079260  -0.438517  6.047370
H    -5.248083  -1.488416  4.618221
H    -6.914746  0.475049  3.906317
H    -9.681802  0.338105  5.981320
H    -8.862941  1.410992  4.903616
H    -8.287011  -0.968805  7.433182
H    -6.924487  -1.719297  6.690086
N    0.197918  1.499216  5.081543
C    -0.264183  2.823787  5.522741
H    1.109674  1.200981  5.432078
H    0.556297  3.296160  6.070310
H    -1.122062  2.740446  6.201159
H    -0.509762  3.464732  4.668054
Sr    0.475570  -2.220228  2.568536
