37
Energy: -108386.444469 eV PBE+vdW (tier 2 basis)
C    0.345503  0.637995  1.088911
C    -0.065507  0.376005  2.493908
O    0.824030  0.497198  3.439996
H    -0.411842  0.341132  0.355744
H    1.267518  0.080241  0.875897
H    0.576968  1.708749  0.981605
N    -1.294076  0.031135  2.849207
C    -2.539060  -0.182944  2.048768
C    -2.338666  -1.324523  1.001181
O    -1.959277  -1.038406  -0.134724
H    -1.411516  -0.105512  3.852949
H    -3.267105  -0.503389  2.804596
C    -3.061780  1.093716  1.371934
C    -4.477848  0.892536  0.803679
C    -4.948958  2.118829  0.002784
N    -6.322497  2.001963  -0.494735
C    -6.701419  1.711845  -1.751672
N    -7.958724  1.964215  -2.135072
N    -5.838648  1.178042  -2.626295
H    -2.378579  1.374923  0.559025
H    -3.064484  1.910399  2.109047
H    -5.189374  0.703395  1.622186
H    -4.498441  0.004457  0.154667
H    -4.286501  2.312146  -0.852362
H    -4.912046  3.021933  0.628268
H    -7.068355  2.229469  0.155604
H    -8.340942  1.567965  -2.986588
H    -8.560017  2.590278  -1.611645
H    -6.058849  1.136957  -3.614957
H    -4.976390  0.741668  -2.328032
N    -2.605219  -2.585005  1.402071
C    -3.101323  -3.054542  2.694427
H    -2.470726  -3.281061  0.670760
H    -3.157738  -4.146487  2.660114
H    -4.110507  -2.679612  2.913197
H    -2.422589  -2.791143  3.517358
Sr    2.657420  0.770092  4.605935
