37
Energy: -108385.717531 eV PBE+vdW (tier 2 basis)
C    0.928846  -0.569653  0.380298
C    0.564867  -0.448843  1.831519
O    1.398182  -0.399424  2.737280
H    0.068300  -0.579398  -0.298343
H    1.511871  -1.489510  0.237963
H    1.590355  0.261678  0.102239
N    -0.792740  -0.395748  2.130277
C    -1.191136  -0.125861  3.497649
C    -2.284640  -1.071491  3.979496
O    -3.039649  -1.726292  3.152117
H    -1.413963  -0.118009  1.376410
H    -0.286422  -0.380358  4.079010
C    -1.534571  1.369827  3.795414
C    -0.324492  2.231042  4.216670
C    0.523834  2.812536  3.069518
N    1.675275  3.569995  3.554640
C    2.936030  3.114354  3.687375
N    3.237974  1.829324  3.475700
N    3.901299  3.973772  4.040508
H    -2.278426  1.419817  4.601383
H    -2.037738  1.796890  2.913816
H    0.324737  1.653499  4.891906
H    -0.705544  3.073586  4.811166
H    -0.082244  3.498195  2.461341
H    0.891041  2.037554  2.388225
H    1.506857  4.528047  3.844668
H    4.208231  1.537838  3.446736
H    2.543547  1.106455  3.280538
H    3.746679  4.974996  4.058201
H    4.839202  3.656622  4.256551
N    -2.475810  -1.234971  5.275241
C    -1.725445  -0.661249  6.399784
H    -3.260300  -1.831739  5.536120
H    -1.746358  -1.380950  7.224331
H    -2.188804  0.275206  6.735703
H    -0.684139  -0.479749  6.118909
Sr    -4.185407  -3.122309  1.897344
