37
Energy: -108387.870280 eV PBE+vdW (tier 2 basis)
C    -0.944745  -0.253145  0.406987
C    -0.576682  -0.280735  1.853264
O    0.561403  0.115967  2.241879
H    -0.187983  -0.789259  -0.180456
H    -0.925200  0.792654  0.065339
H    -1.932277  -0.676353  0.195917
N    -1.490346  -0.725143  2.737793
C    -1.380819  -0.656447  4.202895
C    -0.481849  -1.800857  4.742596
O    0.767890  -1.718965  4.538816
H    -2.370057  -1.054571  2.350997
H    -0.784117  0.243159  4.420138
C    -2.757814  -0.412164  4.869560
C    -3.973718  -1.284402  4.487914
C    -5.210652  -0.841737  5.293586
N    -6.408356  -1.590430  4.905699
C    -7.681743  -1.170064  5.078199
N    -8.679345  -1.864098  4.521616
N    -7.946632  -0.058105  5.771773
H    -3.013037  0.634637  4.648059
H    -2.597774  -0.445011  5.958271
H    -3.793270  -2.358220  4.664232
H    -4.213304  -1.184813  3.417552
H    -5.401089  0.224372  5.102602
H    -5.011341  -0.960440  6.372099
H    -6.294869  -2.570841  4.666291
H    -8.514423  -2.546814  3.790773
H    -9.644970  -1.709716  4.793015
H    -8.878162  0.345449  5.766705
H    -7.300142  0.311799  6.457970
N    -1.013037  -2.805602  5.417428
C    -0.271424  -3.925600  6.007010
H    -2.019794  -2.803183  5.548582
H    -0.438462  -4.837294  5.419530
H    -0.622385  -4.087854  7.031996
H    0.793998  -3.687497  6.017928
Sr    2.407526  -0.514676  3.432444
