37
Energy: -108386.809549 eV PBE+vdW (tier 2 basis)
C    0.538549  0.051787  0.160675
C    0.233514  0.064053  1.619237
O    1.158942  -0.018869  2.478747
H    1.116067  0.943264  -0.124716
H    -0.347171  -0.030613  -0.475098
H    1.197558  -0.808124  -0.031752
N    -1.053805  0.149777  2.058469
C    -1.988725  1.169148  1.574915
C    -1.395785  2.559013  1.970150
O    -0.421700  2.607938  2.793659
H    -1.125849  -0.004243  3.066025
H    -2.043232  1.111778  0.477947
C    -3.384067  0.940814  2.205128
C    -4.080294  -0.389879  1.841887
C    -5.001356  -0.319118  0.612193
N    -5.667407  -1.608289  0.403746
C    -6.914994  -1.800484  -0.071542
N    -7.584157  -0.802482  -0.661821
N    -7.493097  -2.997596  0.070350
H    -4.034073  1.789972  1.954738
H    -3.264474  0.988022  3.298553
H    -4.689721  -0.696655  2.702731
H    -3.325951  -1.180176  1.700475
H    -4.440106  -0.031380  -0.293381
H    -5.779903  0.438255  0.782307
H    -5.126466  -2.447625  0.589776
H    -7.103520  -0.023479  -1.094060
H    -8.573179  -0.896334  -0.869747
H    -8.318214  -3.251839  -0.462942
H    -7.147937  -3.683567  0.732302
N    -1.886943  3.674228  1.457468
C    -2.951778  3.860043  0.468473
H    -1.457638  4.530262  1.813456
H    -3.889769  4.145660  0.962052
H    -3.101955  2.951404  -0.121168
H    -2.656005  4.666445  -0.211514
Sr    1.549464  1.858127  3.805426
