37
Energy: -108385.273848 eV PBE+vdW (tier 2 basis)
C    -0.267462  -0.109191  -0.098342
C    -0.315242  -0.073147  1.403400
O    0.436835  -0.741866  2.117960
H    0.776601  -0.048996  -0.427322
H    -0.848761  0.680292  -0.587541
H    -0.654896  -1.081740  -0.435422
N    -1.257632  0.775336  1.948997
C    -1.740089  0.853366  3.328122
C    -1.302160  2.118092  4.085028
O    -2.194462  2.684348  4.850564
H    -1.840138  1.258555  1.271808
H    -2.823929  1.014093  3.224080
C    -1.632948  -0.437329  4.198524
C    -0.307151  -0.808239  4.896656
C    -0.102815  -2.336484  4.850663
N    1.225651  -2.782234  5.265069
C    2.212771  -3.174832  4.434238
N    2.189693  -2.854977  3.137915
N    3.232714  -3.889179  4.930825
H    -2.431791  -0.367963  4.950863
H    -1.948304  -1.247320  3.524971
H    -0.311226  -0.466131  5.941813
H    0.547454  -0.339230  4.402474
H    -0.275432  -2.698243  3.828822
H    -0.836875  -2.845977  5.490233
H    1.384034  -2.935090  6.255666
H    2.823197  -3.315864  2.494847
H    1.563232  -2.146641  2.747277
H    4.075807  -4.048623  4.391186
H    3.159886  -4.376254  5.816484
N    -0.114606  2.674457  3.998777
C    1.079331  2.283455  3.235919
H    -0.012009  3.536484  4.535776
H    1.102967  1.205526  3.063484
H    1.097810  2.817432  2.277293
H    1.956159  2.577578  3.822086
Sr    -3.773350  3.727933  5.970229
