37
Energy: -108387.327422 eV PBE+vdW (tier 2 basis)
C    0.038143  1.168426  0.584125
C    -0.170972  -0.093716  1.358127
O    0.794173  -0.889784  1.556828
H    -0.865677  1.775928  0.470451
H    0.425872  0.910347  -0.411781
H    0.813648  1.773149  1.074238
N    -1.409322  -0.338386  1.827029
C    -1.965720  -1.526011  2.514988
C    -1.302789  -1.790875  3.881589
O    -0.096006  -2.182381  3.966486
H    -2.089090  0.388782  1.621387
H    -3.005143  -1.240442  2.715712
C    -2.009952  -2.806867  1.643195
C    -2.889434  -2.641399  0.390901
C    -2.977996  -3.882183  -0.521314
N    -3.879278  -4.948196  -0.063884
C    -5.053797  -5.289234  -0.639684
N    -5.551790  -6.514250  -0.440187
N    -5.729905  -4.416245  -1.393595
H    -2.396432  -3.614992  2.284245
H    -0.989290  -3.094791  1.351702
H    -2.484090  -1.828357  -0.229852
H    -3.905596  -2.333088  0.683797
H    -1.982790  -4.328937  -0.661660
H    -3.304770  -3.574749  -1.522630
H    -3.504181  -5.629460  0.587874
H    -6.512483  -6.738009  -0.679349
H    -4.968699  -7.286613  -0.137807
H    -6.505333  -4.719291  -1.973852
H    -5.535332  -3.423776  -1.375870
N    -2.025302  -1.644120  4.982601
C    -3.414305  -1.187456  5.141779
H    -1.530276  -1.888859  5.841730
H    -4.123717  -1.922865  4.742867
H    -3.567874  -0.209746  4.670745
H    -3.607103  -1.076782  6.212676
Sr    2.022607  -2.027774  3.103396
