37
Energy: -108386.297805 eV PBE+vdW (tier 2 basis)
C    0.412610  1.106035  0.820109
C    -0.055500  -0.211185  1.354281
O    0.761977  -1.221010  1.363497
H    1.287537  1.449993  1.390002
H    -0.356062  1.884120  0.869267
H    0.714384  0.993957  -0.231435
N    -1.290466  -0.303531  1.796894
C    -2.046934  -1.450584  2.308839
C    -3.503965  -1.154796  1.879402
O    -3.853604  0.038830  1.794063
H    -1.910130  0.514520  1.693654
H    -1.673025  -2.362401  1.827681
C    -1.953468  -1.619479  3.857976
C    -1.901874  -0.362945  4.747177
C    -3.107044  0.583967  4.833433
N    -4.328463  -0.061506  5.344224
C    -5.590420  0.297308  5.008549
N    -6.570866  0.150717  5.908519
N    -5.867253  0.755502  3.785241
H    -1.043614  -2.198191  4.069460
H    -2.790705  -2.264271  4.162292
H    -1.041321  0.262993  4.465211
H    -1.662370  -0.717786  5.761605
H    -3.335818  1.028427  3.861987
H    -2.835109  1.411148  5.507407
H    -4.241055  -0.498988  6.258495
H    -7.547372  0.202869  5.638756
H    -6.377027  0.076904  6.900916
H    -6.757431  1.201480  3.594396
H    -5.213188  0.637320  3.005095
N    -4.332101  -2.182120  1.664893
C    -4.029739  -3.615818  1.665715
H    -5.268980  -1.907244  1.373861
H    -3.437146  -3.903860  0.786841
H    -4.976209  -4.162596  1.624833
H    -3.513379  -3.920475  2.583398
Sr    2.640856  -2.286242  0.908254
