37
Energy: -108387.618492 eV PBE+vdW (tier 2 basis)
C    1.413255  1.010944  0.457398
C    0.796407  -0.130053  1.198631
O    1.495051  -1.135719  1.525261
H    2.279938  1.386819  1.017673
H    0.724400  1.839674  0.264028
H    1.797910  0.635567  -0.502388
N    -0.511977  -0.046952  1.500031
C    -1.431328  -1.053649  2.081508
C    -1.019182  -1.453895  3.514426
O    -0.027946  -2.222589  3.722408
H    -0.965592  0.809815  1.193034
H    -2.381739  -0.512490  2.157923
C    -1.674008  -2.269193  1.154265
C    -3.000079  -2.996875  1.446234
C    -3.277680  -4.121738  0.429899
N    -4.517664  -4.855142  0.704265
C    -5.585191  -4.989557  -0.111283
N    -6.417720  -6.019886  0.068352
N    -5.827888  -4.108179  -1.088675
H    -0.826485  -2.967082  1.213237
H    -1.684592  -1.880378  0.125400
H    -3.832782  -2.276694  1.421676
H    -2.988826  -3.426487  2.460710
H    -2.450791  -4.848463  0.431332
H    -3.327592  -3.724113  -0.591975
H    -4.509168  -5.472753  1.510786
H    -7.340299  -6.033113  -0.354570
H    -6.145294  -6.845178  0.590800
H    -6.521689  -4.303524  -1.802760
H    -5.426111  -3.180185  -1.086238
N    -1.731484  -1.002894  4.537031
C    -2.886567  -0.092252  4.544308
H    -1.412926  -1.334574  5.448694
H    -3.136079  0.119838  5.587803
H    -3.762111  -0.555135  4.073117
H    -2.646744  0.859049  4.055520
Sr    2.163573  -2.606963  3.114139
