37
Energy: -108387.237366 eV PBE+vdW (tier 2 basis)
C    -0.202640  -2.572257  0.661250
C    -0.833055  -1.441858  1.412641
O    -1.430263  -0.514673  0.787698
H    -0.964114  -3.079093  0.052707
H    0.289305  -3.312926  1.300271
H    0.534228  -2.158729  -0.041972
N    -0.738753  -1.464716  2.754984
C    -1.109679  -0.469391  3.784070
C    -2.616825  -0.159587  3.857544
O    -3.282463  0.218935  2.843573
H    -0.258223  -2.280867  3.124343
H    -0.858976  -0.979046  4.722478
C    -0.257740  0.830132  3.755861
C    1.217956  0.555521  4.119034
C    2.029398  1.748355  4.658336
N    2.602765  2.613143  3.620352
C    3.725902  3.348712  3.770257
N    4.292537  3.493876  4.971308
N    4.283036  3.923817  2.697059
H    -0.696555  1.514223  4.499347
H    -0.362102  1.321184  2.777573
H    1.756478  0.096087  3.277429
H    1.237055  -0.189945  4.928974
H    2.871698  1.339988  5.232820
H    1.409846  2.339981  5.353438
H    2.062311  2.791451  2.781190
H    5.226286  3.881429  5.062820
H    3.778532  3.344509  5.831102
H    4.086149  3.600846  1.757369
H    5.002476  4.632643  2.795057
N    -3.215553  -0.247372  5.036627
C    -2.671941  -0.665624  6.337086
H    -4.200488  0.021597  5.024068
H    -3.490577  -0.645058  7.061939
H    -1.893434  0.024268  6.684648
H    -2.285657  -1.691340  6.295045
Sr    -3.503651  0.427054  0.581057
