37
Energy: -108386.698282 eV PBE+vdW (tier 2 basis)
C    0.292899  -0.611791  0.101324
C    0.137668  -0.163459  1.518755
O    1.164454  0.198263  2.170521
H    -0.565569  -0.355303  -0.524046
H    0.448207  -1.701017  0.052746
H    1.193862  -0.137275  -0.304542
N    -1.073511  -0.076812  2.140390
C    -2.073380  -1.153818  2.263133
C    -1.456915  -2.190285  3.254169
O    -0.187122  -2.298536  3.332039
H    -0.994422  0.464516  3.003499
H    -2.937654  -0.682204  2.751372
C    -2.555706  -1.734767  0.907161
C    -3.922730  -2.444155  0.917803
C    -4.404244  -2.712082  -0.520405
N    -5.702562  -3.391598  -0.528724
C    -6.619058  -3.326852  -1.518466
N    -7.840305  -3.831004  -1.313266
N    -6.326123  -2.742835  -2.685591
H    -1.796434  -2.408776  0.488253
H    -2.626112  -0.868351  0.233897
H    -4.674803  -1.823800  1.427495
H    -3.856765  -3.400369  1.458581
H    -3.654315  -3.310142  -1.065080
H    -4.522694  -1.754568  -1.047650
H    -5.864370  -4.100876  0.179746
H    -8.479647  -3.994862  -2.084045
H    -8.185195  -4.036166  -0.382571
H    -7.055579  -2.546226  -3.363427
H    -5.371547  -2.648205  -3.009432
N    -2.223192  -2.926870  4.045055
C    -3.667366  -2.890007  4.292359
H    -1.701918  -3.585280  4.627175
H    -3.832023  -2.852569  5.375607
H    -4.145156  -3.795231  3.899370
H    -4.124555  -2.006979  3.841006
Sr    1.952764  -1.374293  3.668982
