37
Energy: -108387.358572 eV PBE+vdW (tier 2 basis)
C    -2.095110  0.566342  1.349619
C    -1.184689  0.173809  2.469415
O    -0.473917  -0.872016  2.378669
H    -1.504912  0.713960  0.434505
H    -2.674832  1.474340  1.545326
H    -2.784360  -0.265381  1.146825
N    -1.151473  0.970302  3.552636
C    -0.449485  0.814589  4.847146
C    1.089190  0.762560  4.720219
O    1.691810  -0.196506  4.148094
H    -1.743696  1.794184  3.490053
H    -0.676609  1.754338  5.369445
C    -1.007441  -0.325363  5.740745
C    -2.401913  0.014774  6.309182
C    -2.830738  -0.775049  7.564677
N    -3.424370  -2.099681  7.338175
C    -4.712420  -2.431422  7.579795
N    -5.029499  -3.710696  7.810387
N    -5.675320  -1.504165  7.570513
H    -0.298738  -0.451619  6.574438
H    -1.014136  -1.272286  5.182358
H    -3.173356  -0.076219  5.530297
H    -2.397450  1.072456  6.617200
H    -3.559373  -0.179838  8.129176
H    -1.974404  -0.907187  8.242210
H    -2.787968  -2.884638  7.246398
H    -4.340888  -4.380678  8.134363
H    -5.994777  -4.024100  7.795883
H    -6.597574  -1.704876  7.943115
H    -5.533250  -0.583626  7.175854
N    1.757696  1.751309  5.293874
C    3.218544  1.861445  5.357054
H    1.226293  2.511457  5.711769
H    3.592542  2.450899  4.509668
H    3.663589  0.863245  5.338880
H    3.490908  2.367627  6.288420
Sr    1.639126  -1.724290  2.446614
