37
Energy: -108386.597161 eV PBE+vdW (tier 2 basis)
C    -2.091184  -1.638115  0.889244
C    -0.712000  -1.207926  1.267022
O    0.204403  -2.119081  1.424824
H    -2.375890  -2.520231  1.475892
H    -2.101577  -1.930057  -0.172694
H    -2.849627  -0.864974  1.035661
N    -0.394614  0.059868  1.425815
C    -1.221738  1.248239  1.137852
C    -0.191124  2.343471  0.774470
O    0.907368  2.329870  1.364708
H    0.574850  0.323757  1.658489
H    -1.850277  1.012557  0.270456
C    -2.139441  1.705137  2.317824
C    -1.626256  2.811335  3.255253
C    -0.544079  2.400655  4.268066
N    -0.058798  3.532932  5.056166
C    1.003608  4.303966  4.761640
N    1.382668  5.251259  5.630231
N    1.690660  4.130421  3.626343
H    -2.431725  0.815499  2.896305
H    -3.065890  2.074961  1.858066
H    -2.496043  3.185711  3.814383
H    -1.271903  3.669553  2.664802
H    0.319953  1.932945  3.779336
H    -0.944782  1.663730  4.977757
H    -0.624598  3.820655  5.848571
H    2.081328  5.943841  5.387521
H    0.988196  5.311600  6.561623
H    2.571113  4.613510  3.492654
H    1.380079  3.518454  2.868131
N    -0.575937  3.253112  -0.121116
C    0.240789  4.394698  -0.538482
H    -1.495068  3.159176  -0.544835
H    0.156667  4.519599  -1.623053
H    1.283907  4.199983  -0.275607
H    -0.099797  5.315540  -0.047748
Sr    1.391169  -3.962856  1.384239
