37
Energy: -108387.990946 eV PBE+vdW (tier 2 basis)
C    1.319397  0.968883  0.842563
C    1.015641  1.190625  2.286066
O    1.226724  2.315217  2.832916
H    1.132288  -0.056007  0.505849
H    2.366713  1.230521  0.640744
H    0.702266  1.658213  0.247223
N    0.500264  0.171792  2.997371
C    -0.003983  0.244797  4.382907
C    1.192754  0.326054  5.365851
O    1.700457  1.462045  5.614665
H    0.368372  -0.708424  2.503554
H    -0.519091  1.211739  4.489394
C    -1.023928  -0.891722  4.599315
C    -1.849231  -0.805163  5.896104
C    -2.856440  -1.969196  5.988009
N    -3.631746  -1.965298  7.233222
C    -4.976514  -2.013447  7.353646
N    -5.513850  -2.500302  8.476444
N    -5.776925  -1.570853  6.377026
H    -0.523221  -1.873898  4.530805
H    -1.708805  -0.857977  3.737477
H    -2.389366  0.152602  5.935940
H    -1.190415  -0.829603  6.778179
H    -2.327415  -2.932931  5.919560
H    -3.555095  -1.948641  5.142197
H    -3.117036  -2.175271  8.083838
H    -6.488656  -2.338479  8.708568
H    -4.987989  -3.093421  9.109017
H    -6.771776  -1.769373  6.390791
H    -5.448031  -0.937341  5.660635
N    1.672948  -0.784452  5.898635
C    2.830352  -0.857095  6.797550
H    1.237389  -1.664030  5.633569
H    2.889003  0.057868  7.393242
H    3.756073  -0.981682  6.220524
H    2.707795  -1.718745  7.460420
Sr    2.136074  3.482997  4.563185
