37
Energy: -108386.292295 eV PBE+vdW (tier 2 basis)
C    1.188566  1.330733  1.681051
C    0.758931  0.289340  0.702366
O    1.640889  -0.476443  0.136069
H    0.501412  1.415492  2.531665
H    1.215805  2.315059  1.185752
H    2.192999  1.112534  2.054421
N    -0.518060  0.142090  0.384978
C    -1.657849  0.960006  0.864064
C    -2.128994  0.664874  2.314944
O    -2.393524  1.653381  3.013785
H    -0.734539  -0.589809  -0.293250
H    -1.304277  1.996986  0.919388
C    -2.805769  0.870385  -0.167435
C    -4.156777  1.510351  0.210040
C    -4.246834  3.045950  0.289180
N    -3.923697  3.573021  1.617789
C    -4.466159  4.670429  2.161679
N    -4.330690  4.882923  3.479590
N    -5.143018  5.554422  1.416109
H    -3.006164  -0.192340  -0.378530
H    -2.443384  1.310860  -1.109245
H    -4.557500  1.070835  1.135508
H    -4.853924  1.199963  -0.579933
H    -5.282880  3.328296  0.055328
H    -3.603768  3.507261  -0.479704
H    -3.317420  2.997750  2.220243
H    -4.563501  5.774915  3.899581
H    -4.023568  4.142770  4.098775
H    -5.083844  5.557678  0.406277
H    -5.684240  6.296290  1.845093
N    -2.278849  -0.592364  2.768633
C    -2.121441  -1.870329  2.080731
H    -2.608075  -0.627342  3.732841
H    -2.663626  -2.632082  2.649526
H    -1.069231  -2.183146  2.023799
H    -2.562271  -1.850514  1.076893
Sr    3.460288  -1.457684  -0.633228
