37
Energy: -108386.627156 eV PBE+vdW (tier 2 basis)
C    -0.528550  1.351416  0.294674
C    -0.044629  0.549041  1.456160
O    1.156961  0.762339  1.907375
H    -0.751031  2.376769  0.628143
H    -1.425428  0.943528  -0.178216
H    0.263861  1.416110  -0.461090
N    -0.798214  -0.354892  2.048885
C    -2.200952  -0.733898  1.766282
C    -2.780720  -1.119224  3.144643
O    -2.160784  -1.968541  3.808605
H    -0.400067  -0.886263  2.832212
H    -2.720036  0.134068  1.340637
C    -2.256409  -1.937912  0.798193
C    -3.673359  -2.450516  0.482187
C    -4.295122  -3.464162  1.455571
N    -3.604745  -4.761997  1.467255
C    -3.206585  -5.445103  2.559923
N    -3.118832  -6.780867  2.493071
N    -2.879334  -4.811633  3.690788
H    -1.637542  -2.747386  1.214230
H    -1.772200  -1.628960  -0.139076
H    -3.651103  -2.906613  -0.518077
H    -4.378355  -1.609670  0.388852
H    -5.338317  -3.637559  1.152527
H    -4.334776  -3.093939  2.484902
H    -3.687727  -5.313274  0.616946
H    -2.620490  -7.312764  3.197714
H    -3.615255  -7.312020  1.786422
H    -2.650504  -3.812749  3.721616
H    -2.773444  -5.338438  4.550049
N    -3.924208  -0.530422  3.511313
C    -4.625934  -0.814547  4.764677
H    -4.337465  0.158743  2.889673
H    -4.909553  0.127695  5.245982
H    -3.957180  -1.374103  5.423993
H    -5.534086  -1.401383  4.575207
Sr    3.171612  1.494075  2.375826
