37
Energy: -108387.585164 eV PBE+vdW (tier 2 basis)
C    0.205113  -0.765366  -0.164843
C    -0.298229  -0.837091  1.237082
O    0.497114  -0.796811  2.222728
H    0.938902  -1.565339  -0.333284
H    0.741293  0.185763  -0.297854
H    -0.584981  -0.838068  -0.919391
N    -1.626045  -0.938419  1.442385
C    -2.274934  -0.911943  2.763047
C    -1.975915  -2.226021  3.535407
O    -0.996049  -2.203546  4.349288
H    -2.220912  -0.988841  0.618805
H    -1.741430  -0.155778  3.358445
C    -3.752375  -0.471116  2.656181
C    -3.892289  1.043176  2.395605
C    -5.297263  1.531667  2.002757
N    -6.225048  1.646408  3.134160
C    -7.281907  2.486313  3.181915
N    -7.928901  2.662815  4.340038
N    -7.673583  3.153833  2.092462
H    -4.251956  -0.758822  3.593460
H    -4.258231  -1.032750  1.857015
H    -3.237380  1.326554  1.557924
H    -3.536448  1.616781  3.264880
H    -5.719889  0.874426  1.223587
H    -5.190952  2.534676  1.567889
H    -6.168327  0.963438  3.881739
H    -8.834308  3.119750  4.372459
H    -7.510240  2.416106  5.229060
H    -8.345098  3.911951  2.160590
H    -7.429001  2.848970  1.158212
N    -2.661483  -3.346868  3.370237
C    -3.760977  -3.673320  2.455816
H    -2.349770  -4.107606  3.976576
H    -4.730620  -3.387472  2.881277
H    -3.758500  -4.757215  2.304490
H    -3.618205  -3.199313  1.480224
Sr    1.212821  -1.517921  4.277632
