37
Energy: -108387.356220 eV PBE+vdW (tier 2 basis)
C    -4.425703  -1.226229  0.824114
C    -3.107026  -1.273689  1.519519
O    -2.042738  -1.543217  0.887568
H    -4.378074  -0.465292  0.031479
H    -5.265083  -0.997623  1.488926
H    -4.612902  -2.187222  0.325780
N    -3.063022  -1.014438  2.841455
C    -1.825691  -0.912662  3.630791
C    -1.182469  -2.315092  3.819694
O    -0.282316  -2.648558  2.982664
H    -3.946074  -0.819269  3.305904
H    -1.092304  -0.401323  2.989357
C    -2.006028  -0.042994  4.894597
C    -2.096353  1.462658  4.567343
C    -1.868482  2.423653  5.747983
N    -3.026810  2.577704  6.636589
C    -3.285964  3.678741  7.376767
N    -4.465469  3.787539  7.999519
N    -2.388354  4.663371  7.475938
H    -1.131278  -0.223158  5.538011
H    -2.881570  -0.379776  5.468615
H    -3.049252  1.709949  4.076146
H    -1.308224  1.706606  3.838933
H    -1.653373  3.414692  5.326507
H    -0.981676  2.106371  6.322500
H    -3.578831  1.757227  6.861786
H    -5.266303  3.229535  7.727979
H    -4.620121  4.491069  8.714216
H    -2.643864  5.561534  7.873888
H    -1.403931  4.513926  7.291114
N    -1.530733  -3.164286  4.773826
C    -2.567940  -3.074597  5.806160
H    -0.981891  -4.025931  4.771610
H    -3.466095  -2.582963  5.420609
H    -2.196254  -2.553319  6.696880
H    -2.842272  -4.094323  6.093773
Sr    -0.017981  -2.605707  0.686781
