37
Energy: -108386.093365 eV PBE+vdW (tier 2 basis)
C    -2.356797  -0.904871  1.371523
C    -1.581143  -0.720730  2.636829
O    -1.031167  -1.748346  3.204220
H    -2.777846  0.029094  0.983982
H    -3.185450  -1.606927  1.543704
H    -1.707676  -1.334085  0.594834
N    -1.483172  0.494136  3.149628
C    -0.782254  0.941226  4.369558
C    -1.715028  1.862862  5.228170
O    -1.344032  3.000115  5.526254
H    -1.941007  1.226737  2.608101
H    -0.563558  0.037042  4.954613
C    0.540398  1.656992  4.039953
C    0.441435  2.868131  3.077797
C    1.330183  4.054381  3.471126
N    0.807728  4.699180  4.677591
C    1.217696  5.876975  5.165397
N    0.542704  6.442257  6.176879
N    2.287291  6.499292  4.653100
H    1.239631  0.915409  3.629082
H    0.959214  1.963579  5.008021
H    -0.590724  3.242745  3.005551
H    0.733764  2.565165  2.064113
H    1.343471  4.777467  2.641458
H    2.365453  3.708186  3.633948
H    0.029211  4.218215  5.142046
H    0.885154  7.271681  6.646749
H    -0.345581  6.069313  6.487496
H    2.546788  7.432175  4.951858
H    2.899277  6.048962  3.985788
N    -2.904010  1.373476  5.637266
C    -3.460773  0.034753  5.499460
H    -3.444946  2.042947  6.183459
H    -4.152120  -0.141092  6.329971
H    -2.673385  -0.727759  5.562630
H    -4.021734  -0.087393  4.561520
Sr    -0.376136  -3.846991  3.449277
