37
Energy: -108387.887385 eV PBE+vdW (tier 2 basis)
C    1.661369  1.297943  0.998412
C    1.060980  0.170877  1.776269
O    1.803706  -0.629179  2.420815
H    2.234267  1.944827  1.677328
H    0.927195  1.909452  0.463753
H    2.381122  0.885421  0.277458
N    -0.278722  0.048892  1.764362
C    -1.150771  -0.998056  2.344058
C    -1.062247  -1.082372  3.884367
O    -0.021530  -1.502737  4.476029
H    -0.767189  0.768277  1.237733
H    -2.164691  -0.642900  2.113279
C    -0.998175  -2.388208  1.676506
C    -1.595055  -2.433760  0.256716
C    -1.642731  -3.860154  -0.322270
N    -2.431996  -3.921580  -1.559618
C    -2.124293  -4.570881  -2.702910
N    -3.109894  -4.957078  -3.518841
N    -0.853331  -4.822870  -3.039930
H    -1.521403  -3.116597  2.315549
H    0.061029  -2.683025  1.667780
H    -1.037858  -1.775766  -0.426163
H    -2.625052  -2.042935  0.296052
H    -2.093719  -4.548941  0.410235
H    -0.634466  -4.241483  -0.523491
H    -3.407810  -3.649679  -1.473709
H    -2.926563  -5.216757  -4.482853
H    -4.070144  -5.035085  -3.202146
H    -0.636512  -5.440357  -3.815064
H    -0.083363  -4.299129  -2.645793
N    -2.149655  -0.741478  4.558507
C    -2.298933  -0.807610  6.015663
H    -2.946122  -0.385206  4.035587
H    -1.648681  -1.589377  6.416579
H    -3.341957  -1.042130  6.250278
H    -2.041177  0.158811  6.468512
Sr    2.265369  -1.596168  4.433962
