37
Energy: -108387.760621 eV PBE+vdW (tier 2 basis)
C    -1.492028  -1.465095  -0.420736
C    -1.451333  -0.982652  0.992278
O    -0.664465  -1.516295  1.830660
H    -1.769675  -2.529312  -0.418057
H    -0.486169  -1.403837  -0.858006
H    -2.193450  -0.916290  -1.057445
N    -2.271342  0.027303  1.333973
C    -2.566159  0.615393  2.661984
C    -1.313122  1.246215  3.305731
O    -0.422323  0.525036  3.856512
H    -2.854862  0.378087  0.578424
H    -3.255413  1.435584  2.428833
C    -3.322398  -0.356108  3.598382
C    -4.067404  0.358564  4.742105
C    -5.044813  -0.584152  5.465371
N    -5.764362  0.115975  6.533004
C    -6.999054  -0.189084  6.985522
N    -7.620512  0.656505  7.814315
N    -7.614309  -1.310655  6.593806
H    -2.636525  -1.118250  3.994423
H    -4.047352  -0.887961  2.964779
H    -4.640433  1.207651  4.338542
H    -3.347674  0.771216  5.467623
H    -4.504669  -1.454919  5.873476
H    -5.788380  -0.955919  4.745931
H    -5.244347  0.794878  7.080936
H    -8.440103  0.372483  8.340892
H    -7.312761  1.615189  7.930704
H    -8.597139  -1.460419  6.798359
H    -7.097319  -2.110507  6.250350
N    -1.185803  2.565554  3.297773
C    -2.060901  3.585343  2.699071
H    -0.346298  2.909992  3.765890
H    -1.574603  4.556755  2.825496
H    -3.033090  3.624274  3.205267
H    -2.195892  3.413148  1.625016
Sr    0.883484  -1.338687  3.475818
