37
Energy: -108385.733245 eV PBE+vdW (tier 2 basis)
C    -1.720244  1.552645  3.783555
C    -0.684331  0.711162  3.121023
O    0.556210  1.098271  3.145422
H    -1.480765  1.633447  4.854230
H    -2.735921  1.158519  3.695944
H    -1.691400  2.568317  3.364782
N    -0.985463  -0.426492  2.515338
C    -2.327126  -1.035542  2.320205
C    -2.969745  -1.596439  3.618441
O    -4.133720  -1.242599  3.849943
H    -0.198763  -0.939475  2.113661
H    -3.006300  -0.218050  2.056213
C    -2.271112  -2.023325  1.122314
C    -3.187993  -3.264232  1.123836
C    -4.709160  -3.119549  1.283875
N    -5.341484  -2.154812  0.372532
C    -6.304386  -1.277981  0.733431
N    -7.190258  -0.868452  -0.185340
N    -6.351738  -0.783474  1.973649
H    -1.245774  -2.417039  1.033762
H    -2.442017  -1.435264  0.210279
H    -2.871080  -3.968815  1.907306
H    -2.979391  -3.783778  0.176823
H    -4.977083  -2.843470  2.306304
H    -5.154984  -4.110085  1.108286
H    -5.321480  -2.393353  -0.615745
H    -7.806074  -0.082550  -0.009114
H    -7.365420  -1.402777  -1.028813
H    -7.191061  -0.320741  2.303637
H    -5.597008  -0.935429  2.652152
N    -2.295506  -2.434217  4.425938
C    -0.969506  -3.019118  4.257466
H    -2.829475  -2.720982  5.245768
H    -0.921197  -3.941040  4.845689
H    -0.173740  -2.351120  4.617461
H    -0.778449  -3.296024  3.213969
Sr    2.459046  2.188256  3.367521
