37
Energy: -108386.309993 eV PBE+vdW (tier 2 basis)
C    0.153907  -0.890229  -0.863477
C    0.460386  -0.333259  0.483837
O    1.577539  -0.650864  1.064698
H    0.574126  -0.213972  -1.625062
H    -0.920661  -0.977672  -1.054872
H    0.614356  -1.876428  -0.981367
N    -0.375422  0.480848  1.102043
C    -1.620354  1.056028  0.549899
C    -1.252737  1.917004  -0.693568
O    -0.137710  2.432234  -0.761984
H    -0.050457  0.854262  1.993303
H    -2.275461  0.218870  0.270980
C    -2.349635  1.883505  1.634240
C    -1.697063  3.233495  2.022182
C    -2.323791  4.489585  1.402216
N    -3.625370  4.797018  2.016184
C    -4.463634  5.767371  1.599107
N    -5.645219  5.927340  2.206446
N    -4.137054  6.544299  0.559638
H    -2.458598  1.242005  2.520968
H    -3.376100  2.045467  1.277360
H    -0.636831  3.252018  1.731197
H    -1.704000  3.344516  3.116824
H    -2.469970  4.355662  0.320070
H    -1.628369  5.331689  1.549071
H    -3.772633  4.460885  2.963558
H    -6.215324  6.750671  2.046281
H    -6.004026  5.245681  2.864484
H    -4.805498  7.201222  0.171588
H    -3.176457  6.642836  0.255162
N    -2.216636  2.080682  -1.628298
C    -3.514269  1.411490  -1.730456
H    -1.919781  2.651183  -2.417661
H    -4.012256  1.771323  -2.635391
H    -4.168926  1.642770  -0.880310
H    -3.413432  0.320990  -1.823554
Sr    3.579155  -1.406675  1.534494
