37
Energy: -108386.794763 eV PBE+vdW (tier 2 basis)
C    0.192456  2.024287  -0.056387
C    0.037355  0.915755  0.926003
O    1.033426  0.473424  1.573058
H    0.994372  1.729694  -0.751378
H    0.544180  2.942407  0.435280
H    -0.710484  2.233529  -0.636374
N    -1.174910  0.329921  1.131353
C    -2.392865  1.092610  1.398577
C    -2.236876  1.687825  2.840938
O    -1.218199  1.392956  3.543767
H    -1.103145  -0.527784  1.681090
H    -2.419493  1.945342  0.702767
C    -3.638528  0.202835  1.137400
C    -4.978216  0.954241  1.003271
C    -6.048675  0.252144  0.150454
N    -6.617574  -0.941747  0.790279
C    -7.385533  -1.851481  0.144249
N    -7.838704  -2.917644  0.812444
N    -7.661776  -1.712989  -1.155392
H    -3.702191  -0.582400  1.905774
H    -3.421602  -0.307509  0.187626
H    -4.811260  1.918840  0.497539
H    -5.407655  1.191741  1.989964
H    -5.604626  -0.052998  -0.808384
H    -6.844120  0.985064  -0.062323
H    -6.751817  -0.900199  1.796672
H    -8.555346  -3.520674  0.422141
H    -7.483617  -3.165666  1.728148
H    -8.114413  -2.459561  -1.673379
H    -7.588081  -0.820023  -1.627453
N    -3.161302  2.520637  3.286620
C    -3.132995  3.180198  4.599497
H    -3.922235  2.770430  2.660896
H    -4.110545  3.635650  4.778941
H    -2.367248  3.965993  4.618073
H    -2.927540  2.445723  5.384902
Sr    1.025953  0.767568  3.874312
