37
Energy: -108387.766961 eV PBE+vdW (tier 2 basis)
C    -2.753804  -3.794253  2.713386
C    -3.254695  -2.407256  2.481391
O    -4.303111  -2.198086  1.800840
H    -1.821002  -3.836366  3.285281
H    -2.608692  -4.301362  1.750071
H    -3.529241  -4.359722  3.251121
N    -2.570597  -1.382002  3.023228
C    -2.965863  0.039689  3.017201
C    -2.723022  0.644246  1.607961
O    -3.584062  0.431195  0.699386
H    -1.712354  -1.619193  3.515827
H    -4.059160  0.070708  3.147143
C    -2.285896  0.775202  4.191018
C    -2.746264  0.306838  5.596717
C    -3.758521  1.221291  6.315110
N    -3.187684  2.445275  6.893150
C    -2.593932  2.548720  8.103576
N    -2.094910  3.726369  8.490363
N    -2.469642  1.480230  8.899198
H    -2.470075  1.853034  4.072678
H    -1.194022  0.646378  4.112879
H    -1.865830  0.181591  6.240847
H    -3.202489  -0.692434  5.530662
H    -4.280628  0.650552  7.097527
H    -4.552831  1.549454  5.631721
H    -3.442595  3.323372  6.454988
H    -1.775580  3.880234  9.441132
H    -2.055545  4.524674  7.867356
H    -1.986985  1.550827  9.789231
H    -3.031629  0.649787  8.761984
N    -1.630387  1.351269  1.379985
C    -1.268310  1.958759  0.093842
H    -0.972879  1.473163  2.145982
H    -2.175530  2.183067  -0.472823
H    -0.630435  1.276439  -0.483036
H    -0.717136  2.884463  0.285643
Sr    -5.178662  -1.087152  0.003432
