37
Energy: -108386.719728 eV PBE+vdW (tier 2 basis)
C    0.560567  -0.239666  0.030794
C    0.048753  -1.463157  0.713162
O    0.496029  -2.605594  0.402667
H    -0.146227  0.595613  0.027737
H    0.886474  -0.466634  -0.989121
H    1.456069  0.087902  0.585671
N    -0.876359  -1.371742  1.708139
C    -2.131726  -0.604361  1.589646
C    -2.743479  -0.908628  0.183459
O    -2.374947  -1.957478  -0.437859
H    -0.979662  -2.251807  2.212052
H    -2.817952  -1.115065  2.286153
C    -2.078595  0.868604  2.060580
C    -1.535799  0.985598  3.499991
C    -1.869143  2.280919  4.254436
N    -1.100354  3.446255  3.792545
C    -1.358240  4.718487  4.179329
N    -2.375909  4.988396  5.001736
N    -0.606699  5.715058  3.698852
H    -3.109604  1.257845  2.053932
H    -1.504435  1.493510  1.363031
H    -0.449230  0.810208  3.516134
H    -1.966870  0.178002  4.111029
H    -1.674265  2.100591  5.324410
H    -2.939096  2.511595  4.142672
H    -0.142527  3.269491  3.502574
H    -2.657151  5.946433  5.184747
H    -2.787003  4.278282  5.595437
H    0.032149  5.577785  2.924922
H    -0.650434  6.648430  4.094316
N    -3.674074  -0.101057  -0.288894
C    -4.440976  -0.291854  -1.524825
H    -3.900464  0.724677  0.259850
H    -4.114939  0.431079  -2.283233
H    -5.503932  -0.131843  -1.312120
H    -4.292501  -1.308107  -1.894495
Sr    -1.007296  -3.801155  -0.913740
