37
Energy: -108388.005079 eV PBE+vdW (tier 2 basis)
C    -1.342235  -0.081624  0.436353
C    -0.757287  0.028308  1.805580
O    0.183859  0.841384  2.047961
H    -1.759355  0.896617  0.155554
H    -2.125872  -0.841713  0.351915
H    -0.547694  -0.303014  -0.288748
N    -1.261932  -0.750643  2.780495
C    -0.901972  -0.704732  4.209271
C    0.481055  -1.378284  4.425355
O    1.526347  -0.708086  4.159558
H    -1.979232  -1.417399  2.505275
H    -0.734974  0.353339  4.463335
C    -2.049873  -1.255184  5.078514
C    -3.318534  -0.378980  5.102855
C    -4.424210  -1.017872  5.966166
N    -5.684572  -0.267626  5.930310
C    -6.403227  0.170629  6.986582
N    -7.716124  0.375299  6.842208
N    -5.822999  0.414608  8.167548
H    -1.666367  -1.358764  6.104694
H    -2.318119  -2.272506  4.741480
H    -3.704128  -0.232920  4.081898
H    -3.077250  0.622342  5.489677
H    -4.102572  -1.111362  7.010999
H    -4.629375  -2.042784  5.618434
H    -6.182480  -0.271036  5.044446
H    -8.242738  0.922093  7.515948
H    -8.244289  -0.046566  6.086213
H    -6.383437  0.572605  8.998318
H    -4.827473  0.571119  8.252366
N    0.541294  -2.621717  4.866573
C    1.773522  -3.382001  5.104909
H    -0.334295  -3.103758  5.053657
H    2.606264  -2.690072  5.250373
H    1.982555  -4.040393  4.251774
H    1.642235  -3.993270  6.003596
Sr    2.305486  1.046962  2.882557
