37
Energy: -108386.611929 eV PBE+vdW (tier 2 basis)
C    -0.196506  -0.111715  -0.333882
C    -0.113088  -0.078044  1.155957
O    1.063823  -0.125509  1.710749
H    0.307649  0.774249  -0.746781
H    -1.217101  -0.140019  -0.722192
H    0.338473  -0.996285  -0.706082
N    -1.179385  0.003776  1.922930
C    -2.591048  0.181676  1.527405
C    -3.224030  0.912082  2.731974
O    -2.800223  0.624773  3.870233
H    -1.073087  0.036493  2.948221
H    -2.622924  0.807549  0.628369
C    -3.313134  -1.163858  1.237308
C    -3.606317  -2.077303  2.445147
C    -4.984612  -1.814007  3.083242
N    -5.216142  -2.570100  4.312745
C    -5.116896  -2.088844  5.564582
N    -5.638893  -2.793950  6.577710
N    -4.508226  -0.921768  5.808469
H    -2.701180  -1.708162  0.504763
H    -4.247959  -0.924076  0.708289
H    -2.821647  -1.988065  3.209917
H    -3.578894  -3.120551  2.102553
H    -5.778516  -2.092449  2.376216
H    -5.139678  -0.752080  3.310374
H    -5.542385  -3.526860  4.217295
H    -5.433326  -2.564235  7.543056
H    -6.311010  -3.535831  6.418547
H    -4.604323  -0.484464  6.717464
H    -3.914496  -0.444897  5.125503
N    -4.225183  1.769024  2.505483
C    -4.766616  2.219667  1.217960
H    -4.590653  2.216410  3.344803
H    -5.654744  2.825594  1.418370
H    -5.077836  1.375616  0.591550
H    -4.047276  2.846039  0.674209
Sr    3.205730  -0.088664  2.170270
