37
Energy: -108387.946523 eV PBE+vdW (tier 2 basis)
C    -0.962023  0.543408  0.567602
C    -0.430138  0.345329  1.948069
O    0.704157  0.800585  2.280770
H    -1.936756  0.073745  0.399580
H    -0.243654  0.153305  -0.165744
H    -1.047692  1.623737  0.378900
N    -1.191055  -0.320117  2.838266
C    -0.892764  -0.500831  4.269676
C    0.194761  -1.593474  4.451444
O    1.407020  -1.273744  4.252307
H    -2.067899  -0.701872  2.492704
H    -0.401547  0.425026  4.607542
C    -2.187061  -0.685422  5.088795
C    -3.049056  0.592537  5.150719
C    -4.152507  0.607383  6.220241
N    -5.314225  -0.224281  5.872833
C    -6.303740  -0.541377  6.742522
N    -7.315295  -1.312711  6.330166
N    -6.257656  -0.125219  8.011145
H    -1.888128  -0.959279  6.111729
H    -2.777064  -1.531413  4.696360
H    -3.487089  0.828221  4.167760
H    -2.396739  1.445950  5.389100
H    -4.466349  1.654245  6.363607
H    -3.745770  0.244213  7.175642
H    -5.585846  -0.232393  4.893348
H    -8.156643  -1.423162  6.886572
H    -7.284559  -1.809856  5.447997
H    -6.919697  -0.473627  8.697369
H    -5.689135  0.663234  8.295588
N    -0.157187  -2.818152  4.799958
C    0.764493  -3.942277  4.999208
H    -1.146418  -3.007099  4.938645
H    0.798959  -4.568469  4.098269
H    0.409100  -4.545406  5.840769
H    1.763541  -3.558916  5.219573
Sr    2.744663  0.272180  3.174971
