37
Energy: -108387.872799 eV PBE+vdW (tier 2 basis)
C    -1.816222  2.103990  0.404067
C    -1.955965  0.838358  1.180688
O    -2.671946  -0.115915  0.752237
H    -1.204439  2.861983  0.903970
H    -2.810345  2.521244  0.195079
H    -1.363582  1.865940  -0.570082
N    -1.293773  0.723188  2.347144
C    -1.187398  -0.502399  3.160084
C    -2.522561  -0.754876  3.907547
O    -3.447283  -1.377611  3.302432
H    -0.745712  1.528105  2.642341
H    -1.103865  -1.345883  2.457701
C    0.108373  -0.451551  3.998877
C    0.427159  -1.766095  4.741730
C    1.912536  -2.012937  5.060639
N    2.443752  -1.195740  6.157860
C    3.472351  -1.560177  6.957932
N    4.179522  -2.665105  6.705703
N    3.765020  -0.812219  8.027838
H    0.082280  0.408651  4.690791
H    0.917782  -0.234232  3.284248
H    0.130592  -2.611269  4.101910
H    -0.165144  -1.862100  5.663093
H    2.516689  -1.871966  4.148270
H    2.009475  -3.063696  5.364432
H    2.196297  -0.212265  6.189795
H    4.826430  -3.036602  7.394294
H    4.210506  -3.084949  5.784586
H    3.105169  -0.145728  8.411098
H    4.637128  -0.933409  8.532401
N    -2.676481  -0.300235  5.139457
C    -3.897839  -0.432172  5.942024
H    -1.904546  0.214714  5.553916
H    -4.430103  -1.340759  5.648513
H    -4.547968  0.440380  5.796157
H    -3.620526  -0.496524  6.998500
Sr    -4.300360  -1.658137  1.161726
