37
Energy: -108388.078969 eV PBE+vdW (tier 2 basis)
C    0.320012  0.157841  -0.100086
C    0.381121  -0.276386  1.325694
O    1.436356  -0.787579  1.808376
H    1.074270  0.943380  -0.256767
H    -0.660027  0.541766  -0.401559
H    0.597561  -0.679538  -0.754113
N    -0.708032  -0.103419  2.096248
C    -0.787125  -0.320624  3.554301
C    -0.825430  -1.842111  3.850802
O    0.271875  -2.474734  3.927602
H    -1.526190  0.299630  1.644511
H    0.165452  0.024186  3.984922
C    -1.931691  0.545674  4.119003
C    -1.989117  0.652358  5.653716
C    -3.092752  1.630295  6.094973
N    -3.132809  1.767795  7.553181
C    -3.658131  2.814523  8.225233
N    -3.465863  2.908684  9.545243
N    -4.342097  3.766236  7.581001
H    -2.903785  0.204065  3.721733
H    -1.784611  1.553677  3.700798
H    -1.021516  1.007521  6.038833
H    -2.172985  -0.336348  6.103833
H    -4.070195  1.287928  5.714077
H    -2.893275  2.623776  5.667321
H    -2.903084  0.950030  8.109540
H    -2.754686  2.366426  10.021916
H    -4.007590  3.552024  10.112884
H    -4.598125  4.628564  8.051150
H    -4.774562  3.597675  6.681118
N    -1.991611  -2.449168  3.990281
C    -2.170983  -3.887675  4.218386
H    -2.833713  -1.888799  3.887972
H    -1.328280  -4.274120  4.798071
H    -2.235975  -4.421784  3.261356
H    -3.100259  -4.042652  4.774498
Sr    2.396854  -2.476116  2.994951
