37
Energy: -108387.945439 eV PBE+vdW (tier 2 basis)
C    2.531518  2.858551  2.965322
C    1.436690  2.392235  2.064296
O    1.688701  1.682405  1.045204
H    2.184229  3.486259  3.792567
H    3.279697  3.412763  2.382827
H    3.044539  1.976410  3.375953
N    0.170440  2.735748  2.366200
C    -1.048444  2.274749  1.676524
C    -1.197401  3.021879  0.324022
O    -0.517662  2.615100  -0.667993
H    0.044894  3.348151  3.168993
H    -0.878435  1.224650  1.392788
C    -2.261756  2.345956  2.628273
C    -2.195155  1.334000  3.790199
C    -3.249033  1.537773  4.896896
N    -4.624614  1.149536  4.556121
C    -5.319784  0.134419  5.117057
N    -6.656379  0.169823  5.106122
N    -4.690856  -0.909556  5.666717
H    -3.167638  2.166607  2.030418
H    -2.347789  3.367293  3.041388
H    -1.216331  1.404196  4.288875
H    -2.264786  0.310259  3.392083
H    -3.271151  2.591738  5.212419
H    -2.950462  0.971374  5.787777
H    -5.189327  1.833092  4.062224
H    -7.207153  -0.654989  5.321942
H    -7.168029  1.036356  4.981213
H    -5.191311  -1.571815  6.250331
H    -3.716161  -1.108626  5.483400
N    -2.007932  4.061721  0.237344
C    -2.229004  4.869810  -0.967133
H    -2.512812  4.341850  1.074192
H    -1.957014  4.287764  -1.850674
H    -1.624335  5.785058  -0.925095
H    -3.287607  5.143813  -1.019998
Sr    1.427654  1.498648  -1.219795
