37
Energy: -108387.234302 eV PBE+vdW (tier 2 basis)
C    0.662878  -1.338894  0.248271
C    0.432191  -0.937540  1.669380
O    1.278980  -1.230335  2.563773
H    1.615647  -0.917095  -0.100409
H    -0.134096  -1.030986  -0.436537
H    0.770504  -2.432411  0.205428
N    -0.699272  -0.261500  1.951875
C    -1.260886  0.164175  3.255059
C    -0.357928  1.194306  3.966320
O    0.744728  0.843026  4.491129
H    -1.281651  -0.056869  1.144647
H    -2.188899  0.680372  2.981901
C    -1.623074  -1.009455  4.198662
C    -2.651796  -2.002269  3.616080
C    -4.143056  -1.673189  3.791940
N    -4.616632  -2.007844  5.143490
C    -5.876919  -1.800693  5.589467
N    -6.188794  -2.119653  6.849599
N    -6.795958  -1.242987  4.793740
H    -1.986818  -0.578081  5.143959
H    -0.705187  -1.557195  4.448413
H    -2.463501  -2.998730  4.043622
H    -2.471920  -2.134755  2.539862
H    -4.705282  -2.252493  3.041394
H    -4.344245  -0.605877  3.607659
H    -4.084870  -2.712899  5.645791
H    -7.152903  -2.151289  7.164651
H    -5.479685  -2.361597  7.531748
H    -7.708985  -0.987185  5.156562
H    -6.703485  -1.256517  3.785276
N    -0.758375  2.454446  4.054769
C    -1.965027  3.094463  3.511904
H    -0.124673  3.058294  4.580997
H    -1.862261  4.174169  3.653632
H    -2.864489  2.766042  4.047418
H    -2.065895  2.906601  2.436948
Sr    2.593322  -0.506958  4.280764
