37
Energy: -108387.550695 eV PBE+vdW (tier 2 basis)
C    0.619542  1.209504  1.071156
C    -0.108312  0.537824  2.190225
O    -0.265294  -0.719115  2.190154
H    0.092290  0.991769  0.130811
H    1.624035  0.775582  0.973951
H    0.709472  2.294585  1.186842
N    -0.584396  1.314401  3.182487
C    -1.436402  0.966300  4.343549
C    -0.728182  0.006853  5.328063
O    -0.512490  -1.206589  5.028931
H    -0.360349  2.301679  3.093391
H    -1.563809  1.923694  4.867866
C    -2.841217  0.443478  3.951404
C    -3.687100  1.432024  3.118655
C    -4.463718  2.525047  3.878612
N    -5.773656  2.063529  4.354073
C    -6.890065  2.818047  4.438246
N    -8.075389  2.220880  4.606987
N    -6.825208  4.149992  4.339939
H    -3.355881  0.160444  4.883100
H    -2.723306  -0.485299  3.377988
H    -4.402639  0.862147  2.509626
H    -3.038557  1.936180  2.387953
H    -4.645649  3.358158  3.187139
H    -3.874078  2.924132  4.722056
H    -5.856175  1.108951  4.687973
H    -8.214850  1.238826  4.399320
H    -8.896322  2.749706  4.883129
H    -7.668273  4.703148  4.223289
H    -5.970272  4.661078  4.521396
N    -0.393320  0.501034  6.509992
C    0.243940  -0.251145  7.595596
H    -0.562237  1.489396  6.680579
H    1.331638  -0.103758  7.571633
H    0.011917  -1.313752  7.490102
H    -0.142713  0.115755  8.551792
Sr    -0.009978  -2.674482  3.330997
