37
Energy: -108387.644549 eV PBE+vdW (tier 2 basis)
C    -1.688494  1.647389  0.776468
C    -1.919626  0.295327  1.363258
O    -2.716834  -0.524716  0.818909
H    -1.261509  1.521707  -0.229751
H    -1.017207  2.275954  1.370759
H    -2.648713  2.164355  0.647944
N    -1.250549  -0.042672  2.482795
C    -1.237881  -1.381412  3.096564
C    -2.564158  -1.633874  3.860606
O    -3.562615  -2.050318  3.196911
H    -0.640915  0.667580  2.878808
H    -1.290862  -2.097516  2.263150
C    0.113220  -1.669038  3.801263
C    0.583189  -0.767063  4.964384
C    2.108994  -0.749722  5.191183
N    2.636767  -1.986053  5.776674
C    3.722867  -2.056960  6.581870
N    4.502125  -0.989978  6.779786
N    3.998114  -3.208295  7.203632
H    0.864507  -1.626247  2.997135
H    0.075912  -2.720631  4.121769
H    0.109017  -1.048151  5.917978
H    0.312630  0.285842  4.785899
H    2.330439  0.063957  5.894106
H    2.621618  -0.521955  4.241281
H    2.319716  -2.871830  5.395697
H    5.202416  -0.988733  7.515004
H    4.540575  -0.222446  6.119932
H    3.304180  -3.939600  7.306838
H    4.899433  -3.368115  7.642030
N    -2.649707  -1.408126  5.160033
C    -3.866207  -1.598803  5.960367
H    -1.828341  -1.049809  5.636986
H    -4.538173  -0.737990  5.849086
H    -3.580102  -1.694737  7.011404
H    -4.381323  -2.508895  5.638366
Sr    -4.460501  -1.982423  1.060877
