37
Energy: -108386.779126 eV PBE+vdW (tier 2 basis)
C    -0.055325  -0.041294  0.382207
C    -0.538231  -0.126661  1.787856
O    0.141623  -0.719783  2.677452
H    0.932768  0.435348  0.327633
H    -0.752653  0.452153  -0.300464
H    0.091301  -1.076894  0.034213
N    -1.747401  0.397192  2.142314
C    -2.113824  1.780663  1.835981
C    -1.421477  2.672921  2.920577
O    -0.545040  2.168055  3.692246
H    -2.026378  0.096631  3.076825
H    -1.612515  2.045856  0.891936
C    -3.631832  1.968556  1.599487
C    -4.564102  1.643680  2.778729
C    -6.033402  1.397789  2.392523
N    -6.729676  2.604289  1.924507
C    -7.880741  2.589822  1.209764
N    -8.402887  3.746730  0.788955
N    -8.476427  1.436791  0.892623
H    -3.873081  1.315917  0.747417
H    -3.810417  2.990540  1.231411
H    -4.505457  2.420064  3.558366
H    -4.250597  0.707859  3.266238
H    -6.553535  0.974018  3.266663
H    -6.070473  0.653449  1.584091
H    -6.559141  3.459507  2.446510
H    -9.347597  3.797296  0.421784
H    -7.874104  4.610649  0.806395
H    -9.245446  1.414545  0.230126
H    -8.307821  0.585550  1.414733
N    -1.728401  3.956388  2.971985
C    -1.093727  4.933064  3.868115
H    -2.403694  4.310425  2.300041
H    -1.637885  5.877931  3.791734
H    -0.049440  5.099017  3.575657
H    -1.134352  4.576658  4.902899
Sr    0.975755  0.539453  4.440592
