37
Energy: -108386.336774 eV PBE+vdW (tier 2 basis)
C    -0.305881  0.399380  0.824739
C    -0.500330  -0.038915  2.237443
O    0.560557  -0.132848  2.982419
H    0.440101  -0.236037  0.335463
H    0.075253  1.432859  0.845718
H    -1.215187  0.382767  0.225653
N    -1.693625  -0.093438  2.852803
C    -2.892824  -0.711364  2.264302
C    -2.392835  -2.106126  1.729291
O    -1.192355  -2.229485  1.453949
H    -1.604671  -0.261584  3.854411
H    -3.578557  -0.855636  3.111469
C    -3.621012  0.128302  1.176770
C    -5.132388  -0.164615  1.040164
C    -6.089503  0.661186  1.912337
N    -6.313972  1.995420  1.335262
C    -7.100325  2.947036  1.879806
N    -7.722609  2.728815  3.043652
N    -7.226000  4.130358  1.268166
H    -3.155345  -0.057668  0.201524
H    -3.462243  1.192057  1.406518
H    -5.342976  -1.223645  1.239528
H    -5.424823  -0.038198  -0.013236
H    -5.695111  0.781801  2.933866
H    -7.046629  0.118833  1.980622
H    -6.119095  2.095361  0.343240
H    -8.235610  3.471351  3.506847
H    -7.859800  1.793066  3.404433
H    -6.648836  4.386420  0.476010
H    -7.936095  4.797924  1.548706
N    -3.307720  -3.069476  1.576533
C    -3.000794  -4.395288  1.030483
H    -4.244342  -2.919313  1.934449
H    -2.748726  -5.099958  1.833405
H    -2.153522  -4.311776  0.344583
H    -3.874425  -4.768328  0.486876
Sr    2.576145  -0.704469  3.584651
