37
Energy: -108386.803073 eV PBE+vdW (tier 2 basis)
C    0.342258  0.198324  0.038619
C    0.004138  -0.070980  1.461995
O    0.902342  -0.367632  2.304346
H    1.140231  0.947240  -0.046201
H    -0.515765  0.478320  -0.578411
H    0.762271  -0.736672  -0.369118
N    -1.290335  -0.039387  1.888487
C    -2.194046  1.090881  1.643404
C    -1.535597  2.333141  2.313716
O    -0.684266  2.147745  3.247986
H    -1.394632  -0.432230  2.825430
H    -2.272221  1.256044  0.560671
C    -3.585928  0.706563  2.215713
C    -4.794285  1.562212  1.801212
C    -6.104753  0.900945  2.268085
N    -7.273760  1.687059  1.865157
C    -8.514701  1.197828  1.654693
N    -9.443778  1.986052  1.103841
N    -8.812876  -0.068603  1.964809
H    -3.516391  0.667065  3.315043
H    -3.751619  -0.326611  1.874276
H    -4.829144  1.672792  0.707284
H    -4.723158  2.570906  2.236199
H    -6.090386  0.767010  3.362829
H    -6.192942  -0.092997  1.806603
H    -7.198249  2.698513  1.915003
H    -9.200193  2.843715  0.622020
H    -10.427136  1.736780  1.124833
H    -9.686697  -0.484395  1.658676
H    -8.282773  -0.587801  2.653782
N    -1.818651  3.564343  1.918314
C    -2.630785  4.041333  0.795782
H    -1.343674  4.293346  2.454311
H    -3.519310  4.565837  1.166834
H    -2.937709  3.215369  0.150849
H    -2.032843  4.745094  0.204726
Sr    1.234030  1.083628  4.092383
