37
Energy: -108386.467986 eV PBE+vdW (tier 2 basis)
C    -3.336065  2.033918  2.966339
C    -2.010394  1.560631  2.473835
O    -1.022096  2.390021  2.344902
H    -3.262527  3.049857  3.362599
H    -3.737404  1.372869  3.746017
H    -4.065736  2.035711  2.140885
N    -1.829642  0.286962  2.151486
C    -2.849259  -0.792295  2.150847
C    -3.277276  -1.287560  3.557985
O    -4.455038  -1.635822  3.703540
H    -0.904696  0.035757  1.797748
H    -3.767282  -0.379326  1.711900
C    -2.314692  -1.944076  1.267469
C    -3.109932  -3.263574  1.228074
C    -4.492663  -3.267392  0.551142
N    -5.580302  -2.947986  1.480140
C    -6.828208  -3.425417  1.392718
N    -7.646873  -3.317915  2.450705
N    -7.272115  -4.009123  0.271141
H    -1.300941  -2.198034  1.620927
H    -2.204662  -1.557478  0.242094
H    -3.191673  -3.705897  2.231476
H    -2.481579  -3.960486  0.657084
H    -4.666802  -4.278390  0.156714
H    -4.500751  -2.577306  -0.309806
H    -5.329942  -2.417456  2.327797
H    -8.639138  -3.506854  2.374895
H    -7.284923  -3.092347  3.369029
H    -8.154998  -4.506454  0.252672
H    -6.778100  -3.922885  -0.607323
N    -2.351277  -1.342471  4.528250
C    -2.625748  -1.888059  5.862015
H    -1.387077  -1.126409  4.299165
H    -1.966459  -1.405920  6.590070
H    -2.456397  -2.972365  5.884343
H    -3.668704  -1.686508  6.122155
Sr    0.323295  4.134673  2.193922
