37
Energy: -108386.296011 eV PBE+vdW (tier 2 basis)
C    0.520858  1.055405  0.476326
C    0.106336  0.304650  1.694886
O    1.055923  -0.085467  2.495406
H    1.038941  1.970102  0.805371
H    -0.300618  1.339219  -0.177480
H    1.223111  0.447727  -0.106146
N    -1.149078  0.153601  2.125993
C    -2.359163  -0.065256  1.308381
C    -2.021659  -1.318031  0.424323
O    -0.850970  -1.455457  0.058617
H    -1.196008  -0.288049  3.043643
H    -3.141205  -0.289148  2.044231
C    -2.793166  1.155776  0.452923
C    -4.258047  1.207196  -0.023721
C    -5.292037  1.628398  1.030616
N    -6.609582  1.777114  0.400669
C    -7.590764  2.614811  0.784196
N    -8.616257  2.851655  -0.041949
N    -7.540198  3.225887  1.974508
H    -2.178984  1.189046  -0.454415
H    -2.561910  2.066478  1.025374
H    -4.548846  0.248481  -0.477715
H    -4.294178  1.945736  -0.837273
H    -5.006671  2.600802  1.457943
H    -5.351047  0.900390  1.857564
H    -6.814459  1.178268  -0.393497
H    -9.469603  3.289721  0.287857
H    -8.569493  2.627746  -1.029386
H    -8.187565  3.973077  2.201546
H    -6.980155  2.861652  2.734533
N    -2.999274  -2.172696  0.073071
C    -4.376372  -2.296300  0.538253
H    -2.670439  -2.909815  -0.550647
H    -4.545225  -3.309621  0.923264
H    -5.085909  -2.119298  -0.281027
H    -4.584415  -1.591972  1.348922
Sr    2.996974  -0.810082  3.182496
