37
Energy: -108386.220817 eV PBE+vdW (tier 2 basis)
C    0.335506  0.655544  0.314570
C    0.091738  0.497399  1.780568
O    1.079076  0.613555  2.609648
H    1.096217  -0.064528  -0.019074
H    0.721045  1.665408  0.111747
H    -0.565644  0.508813  -0.290593
N    -1.139661  0.238394  2.200816
C    -1.627509  0.112022  3.582125
C    -2.052906  -1.329695  3.998047
O    -2.624859  -1.454340  5.081901
H    -1.848986  0.217064  1.468393
H    -0.773042  0.349724  4.229953
C    -2.736898  1.145862  3.886408
C    -4.088845  1.041445  3.155072
C    -5.000405  -0.153929  3.494484
N    -5.262061  -0.332433  4.921935
C    -6.423188  -0.119196  5.560893
N    -6.614113  -0.664413  6.769810
N    -7.392002  0.630639  5.019157
H    -2.318467  2.143526  3.691827
H    -2.899466  1.095092  4.971275
H    -3.962120  1.051603  2.059306
H    -4.626384  1.974801  3.378452
H    -4.570128  -1.096973  3.129196
H    -5.954667  -0.045221  2.963342
H    -4.508829  -0.796485  5.434488
H    -7.378851  -0.371435  7.367212
H    -6.031100  -1.421677  7.105503
H    -8.325703  0.642903  5.413807
H    -7.219283  1.246126  4.235665
N    -1.740956  -2.354567  3.183796
C    -2.077146  -3.746461  3.499691
H    -1.301546  -2.166938  2.290433
H    -1.336347  -4.408004  3.040446
H    -3.073000  -4.008144  3.118677
H    -2.064780  -3.880175  4.585204
Sr    3.103902  0.977729  3.418020
