37
Energy: -108385.685397 eV PBE+vdW (tier 2 basis)
C    -0.834702  -0.725482  0.510009
C    -1.047741  -0.930675  1.968313
O    -0.382126  -1.872606  2.573818
H    -1.301679  0.183118  0.123332
H    -1.255228  -1.582984  -0.037337
H    0.242657  -0.700225  0.301734
N    -1.898887  -0.214759  2.683439
C    -2.813076  0.912242  2.328485
C    -3.505923  0.767147  0.946470
O    -3.257601  1.559233  0.032891
H    -1.926756  -0.468426  3.672113
H    -3.617623  0.808556  3.072779
C    -2.193730  2.302735  2.598683
C    -0.882218  2.771005  1.942072
C    -0.889540  3.233744  0.471037
N    -2.001988  4.108756  0.105345
C    -1.951917  5.428123  -0.133597
N    -2.940976  6.009480  -0.825595
N    -0.933539  6.177212  0.311035
H    -2.039749  2.356680  3.686790
H    -2.995585  3.027737  2.395187
H    -0.096731  2.003775  2.038902
H    -0.531115  3.605656  2.567422
H    -0.947411  2.376949  -0.209231
H    0.056444  3.744882  0.247373
H    -2.854057  3.605814  -0.140652
H    -3.050274  7.017141  -0.847399
H    -3.582167  5.464922  -1.389995
H    -0.804596  7.128793  -0.013746
H    -0.302522  5.849204  1.029637
N    -4.405128  -0.230843  0.812463
C    -4.966873  -1.101744  1.844357
H    -4.873495  -0.226844  -0.092755
H    -5.674906  -1.784363  1.365534
H    -5.517126  -0.533949  2.607915
H    -4.195026  -1.714331  2.328463
Sr    0.854725  -3.572550  3.222786
