37
Energy: -108386.426531 eV PBE+vdW (tier 2 basis)
C    -1.081094  -1.583946  0.322829
C    -0.717813  -1.484658  1.765251
O    -0.003679  -2.410508  2.330192
H    -0.730479  -0.700047  -0.230024
H    -2.173901  -1.617590  0.196344
H    -0.648061  -2.480090  -0.128044
N    -1.120912  -0.449028  2.487416
C    -1.992972  0.660276  2.024222
C    -1.301568  1.635122  1.026058
O    -1.992568  2.132396  0.142371
H    -0.849761  -0.449118  3.472024
H    -2.815357  0.212550  1.450110
C    -2.574687  1.394221  3.256904
C    -3.908101  2.141715  3.046542
C    -3.845423  3.450099  2.242794
N    -5.118285  4.167590  2.346570
C    -5.684395  4.920930  1.386858
N    -6.915607  5.412964  1.577872
N    -5.044572  5.170467  0.238883
H    -1.816795  2.076822  3.673562
H    -2.772324  0.634633  4.029192
H    -4.285906  2.368899  4.055569
H    -4.646372  1.467700  2.587361
H    -3.651628  3.227856  1.187128
H    -3.025087  4.088529  2.611417
H    -5.538269  4.230697  3.269690
H    -7.293100  6.139392  0.980275
H    -7.506548  5.090021  2.334512
H    -5.525794  5.599334  -0.543191
H    -4.051636  5.006471  0.135913
N    0.014286  1.885528  1.207940
C    0.747736  2.855185  0.390615
H    0.474845  1.527586  2.037567
H    1.795311  2.547516  0.314120
H    0.700841  3.861227  0.828157
H    0.301752  2.883375  -0.607802
Sr    1.101661  -4.243792  2.839402
