37
Energy: -108385.555530 eV PBE+vdW (tier 2 basis)
C    -0.100915  -0.462713  -0.145608
C    -0.213510  0.173748  1.205279
O    0.740065  0.288170  1.987178
H    0.590561  0.128681  -0.761559
H    -1.056363  -0.556659  -0.672766
H    0.349550  -1.457613  -0.032688
N    -1.457404  0.641982  1.577853
C    -1.611941  1.322331  2.859205
C    -2.909467  0.836055  3.509441
O    -3.944456  1.609522  3.642212
H    -2.197185  0.666346  0.882805
H    -0.796689  0.899123  3.470985
C    -1.401926  2.854153  2.821431
C    -0.567959  3.411705  4.004334
C    0.900883  3.748803  3.700173
N    1.700650  2.577728  3.347543
C    3.044510  2.541119  3.298328
N    3.788313  3.575212  3.706097
N    3.634655  1.428759  2.840844
H    -2.376202  3.362019  2.774266
H    -0.913724  3.092840  1.866919
H    -0.611753  2.724875  4.864666
H    -1.013263  4.353564  4.350544
H    1.317781  4.209938  4.607930
H    0.944094  4.503032  2.895300
H    1.237320  1.779253  2.895119
H    4.800773  3.526750  3.710447
H    3.375356  4.439534  4.029231
H    3.075543  0.653716  2.499902
H    4.642106  1.346356  2.776882
N    -2.986601  -0.409862  3.935887
C    -1.967780  -1.466671  3.880447
H    -3.888542  -0.693628  4.318671
H    -2.152929  -2.159202  4.707234
H    -0.961679  -1.049573  3.983497
H    -2.041267  -2.011091  2.930395
Sr    -5.746343  2.848203  3.916753
