37
Energy: -108386.648103 eV PBE+vdW (tier 2 basis)
C    -0.269460  -1.173151  0.646741
C    -0.106245  -0.045934  1.608871
O    1.098863  0.386407  1.864544
H    0.111348  -0.870868  -0.339245
H    -1.306139  -1.500969  0.535785
H    0.336473  -2.026656  0.980226
N    -1.115171  0.534794  2.209010
C    -2.572332  0.388858  2.045110
C    -3.050100  1.837522  2.391156
O    -2.349251  2.468729  3.194909
H    -0.965311  1.349301  2.847045
H    -2.803628  0.105508  1.011790
C    -3.121950  -0.651409  3.056635
C    -4.650641  -0.816828  3.065502
C    -5.094890  -1.859180  4.102890
N    -6.558479  -1.952510  4.148252
C    -7.265743  -2.986305  4.642278
N    -8.591323  -3.024878  4.461404
N    -6.652528  -3.986341  5.286899
H    -2.776926  -0.351115  4.057867
H    -2.644743  -1.618065  2.832060
H    -5.015234  -1.119892  2.072835
H    -5.122868  0.147570  3.309156
H    -4.699148  -1.586807  5.095916
H    -4.697677  -2.849535  3.835890
H    -7.083600  -1.109524  3.936506
H    -9.178019  -3.661140  4.990005
H    -9.054341  -2.431969  3.782552
H    -7.153878  -4.835914  5.523095
H    -5.737469  -3.867347  5.702831
N    -4.168809  2.334976  1.843882
C    -5.035596  1.794638  0.801113
H    -4.380722  3.279068  2.167711
H    -6.033729  1.568069  1.197998
H    -4.614571  0.881886  0.370734
H    -5.143324  2.530563  -0.004640
Sr    3.130290  1.127557  2.096414
