37
Energy: -108386.865265 eV PBE+vdW (tier 2 basis)
C    -0.589452  -1.174198  0.228211
C    0.317027  -0.544460  1.227237
O    1.576089  -0.628323  1.113407
H    -0.364772  -0.831796  -0.790648
H    -1.653314  -1.046888  0.447322
H    -0.366773  -2.254161  0.238367
N    -0.193540  0.102390  2.315890
C    -1.187455  1.168746  2.176132
C    -0.389979  2.480005  1.872582
O    0.816384  2.403515  1.472463
H    0.529921  0.303885  3.007024
H    -1.739112  0.970213  1.243095
C    -2.245899  1.193348  3.299303
C    -1.767203  1.364570  4.750822
C    -2.962062  1.242761  5.714168
N    -2.548056  1.362850  7.114712
C    -3.375240  1.640533  8.145990
N    -2.857971  1.874883  9.356710
N    -4.697474  1.713579  7.959501
H    -2.790587  0.241966  3.207010
H    -2.994406  1.964953  3.055884
H    -1.274453  2.337876  4.897813
H    -1.033077  0.580242  4.997467
H    -3.466576  0.276398  5.543549
H    -3.687184  2.043410  5.505811
H    -1.629452  1.009264  7.364294
H    -1.872930  2.072918  9.488357
H    -3.441135  1.883390  10.187007
H    -5.304846  2.071275  8.689914
H    -5.153019  1.256692  7.178905
N    -1.009917  3.640017  1.980489
C    -0.425328  4.939644  1.623599
H    -1.982631  3.632697  2.275294
H    -0.280579  5.008867  0.538311
H    0.535270  5.073782  2.132336
H    -1.113803  5.726917  1.941264
Sr    2.766852  1.329883  0.734933
