37
Energy: -108388.035850 eV PBE+vdW (tier 2 basis)
C    -0.902384  0.543143  -0.650561
C    -1.294334  1.437485  0.477136
O    -1.362052  2.694002  0.321505
H    -0.834856  -0.513387  -0.371321
H    0.060159  0.870494  -1.065583
H    -1.645550  0.652244  -1.454641
N    -1.587814  0.879832  1.665828
C    -2.147909  1.576563  2.840666
C    -1.038638  2.418835  3.521863
O    -0.798573  3.582312  3.075725
H    -1.500617  -0.132304  1.727781
H    -2.869131  2.317596  2.463142
C    -2.900590  0.547740  3.709155
C    -3.771079  1.136758  4.834020
C    -4.621502  0.041167  5.501218
N    -5.478389  0.600030  6.550545
C    -6.068373  -0.109903  7.536252
N    -6.691605  0.537005  8.526726
N    -6.008517  -1.445961  7.544917
H    -2.196656  -0.196890  4.120554
H    -3.548588  -0.014914  3.019032
H    -4.439629  1.902712  4.408825
H    -3.154353  1.634572  5.596941
H    -3.966040  -0.712408  5.962670
H    -5.232642  -0.464601  4.734255
H    -5.813141  1.550462  6.424310
H    -6.548593  1.526604  8.692316
H    -7.313474  0.051958  9.165118
H    -6.314955  -1.972834  8.356542
H    -5.837549  -1.978441  6.700784
N    -0.353560  1.902040  4.527433
C    0.754952  2.566900  5.222294
H    -0.578747  0.954022  4.817420
H    0.789138  2.207852  6.255164
H    0.594306  3.648318  5.215512
H    1.708898  2.332367  4.732013
Sr    -0.791617  4.763630  1.078446
