37
Energy: -108387.314648 eV PBE+vdW (tier 2 basis)
C    1.472373  -0.617688  0.832253
C    1.111134  -0.405220  2.266335
O    1.955909  0.082091  3.075598
H    0.658423  -1.026956  0.225177
H    2.332482  -1.301428  0.785821
H    1.803063  0.333552  0.393488
N    -0.130968  -0.745522  2.656627
C    -0.732420  -0.771026  4.011025
C    -0.788769  0.639497  4.647626
O    0.247776  1.198117  5.116561
H    -0.726729  -1.108242  1.916841
H    -1.771376  -1.078694  3.826707
C    -0.080092  -1.822396  4.938674
C    -0.892721  -2.130623  6.215887
C    -1.966428  -3.226915  6.112347
N    -1.370322  -4.570822  6.122704
C    -2.059552  -5.721003  5.942298
N    -1.402171  -6.884797  5.928701
N    -3.380911  -5.697372  5.737573
H    0.923533  -1.476380  5.218517
H    0.070867  -2.735687  4.345487
H    -1.393565  -1.221709  6.581222
H    -0.199072  -2.400545  7.026074
H    -2.558444  -3.120639  5.189649
H    -2.653826  -3.110088  6.966038
H    -0.479149  -4.665414  6.601915
H    -1.893557  -7.770904  5.986126
H    -0.391068  -6.928515  5.878167
H    -3.880995  -6.543083  5.482135
H    -3.949919  -4.911669  6.028405
N    -1.975883  1.224901  4.705912
C    -2.235007  2.548902  5.281831
H    -2.767745  0.745069  4.285213
H    -3.268439  2.578611  5.639900
H    -2.100490  3.329893  4.521858
H    -1.552877  2.726042  6.118068
Sr    2.485297  1.580595  4.697050
