37
Energy: -108387.886902 eV PBE+vdW (tier 2 basis)
C    1.189956  -1.384004  2.633415
C    0.587063  -0.042902  2.360822
O    1.322311  0.987334  2.290095
H    0.458306  -2.196530  2.691273
H    1.750159  -1.334803  3.577754
H    1.921038  -1.620853  1.847881
N    -0.746253  0.019023  2.192719
C    -1.635792  1.188142  2.005646
C    -1.341360  1.981800  0.713208
O    -0.277875  2.658295  0.567510
H    -1.223710  -0.877014  2.242849
H    -2.627388  0.734889  1.869097
C    -1.731662  2.115445  3.243197
C    -2.532268  1.485260  4.398926
C    -2.824415  2.487439  5.531237
N    -3.793389  1.956661  6.498924
C    -3.721165  2.002350  7.846369
N    -4.848899  1.954844  8.561810
N    -2.542667  2.082563  8.476736
H    -2.230445  3.042082  2.918472
H    -0.722912  2.402323  3.573363
H    -2.011638  0.606164  4.806200
H    -3.494827  1.122255  4.002924
H    -3.233521  3.420239  5.110838
H    -1.907104  2.766431  6.063407
H    -4.715182  1.742165  6.127840
H    -5.753115  2.162524  8.152285
H    -4.837512  1.736099  9.552938
H    -2.500385  2.271937  9.472437
H    -1.679443  1.805300  8.028963
N    -2.283723  1.965064  -0.216871
C    -2.239775  2.701016  -1.484362
H    -3.102476  1.382525  -0.058342
H    -1.869059  2.050908  -2.287621
H    -1.586853  3.571042  -1.380299
H    -3.253550  3.030371  -1.734001
Sr    1.956529  2.791616  1.048360
