37
Energy: -108387.581987 eV PBE+vdW (tier 2 basis)
C    0.580065  -0.448560  1.207207
C    0.098138  0.438156  2.306038
O    0.750399  1.470076  2.644064
H    -0.050507  -1.328481  1.042905
H    1.607298  -0.774384  1.418106
H    0.620989  0.139518  0.278295
N    -1.055676  0.123356  2.925910
C    -1.758076  0.964542  3.909688
C    -1.059509  0.874019  5.291155
O    -0.027487  1.586830  5.484588
H    -1.516908  -0.728342  2.617972
H    -1.572596  2.005761  3.605966
C    -3.294344  0.775670  3.818887
C    -3.922146  -0.621262  4.022411
C    -5.307950  -0.781397  3.358797
N    -6.396041  -0.020065  3.985097
C    -7.551019  -0.535636  4.468609
N    -8.636983  0.240846  4.529257
N    -7.616500  -1.797963  4.903320
H    -3.557488  1.128852  2.809197
H    -3.744579  1.497181  4.516176
H    -4.023934  -0.870715  5.090727
H    -3.295851  -1.413334  3.581030
H    -5.589632  -1.840877  3.354581
H    -5.247504  -0.482895  2.300667
H    -6.424935  0.976609  3.792202
H    -8.727880  1.080618  3.968004
H    -9.448674  -0.028955  5.076143
H    -8.511123  -2.238342  5.092374
H    -6.789379  -2.337819  5.121856
N    -1.528768  0.073493  6.232070
C    -0.934013  -0.089293  7.564116
H    -2.344719  -0.489156  6.012481
H    -0.532825  0.868667  7.907078
H    -0.129099  -0.835194  7.536521
H    -1.711136  -0.426683  8.255734
Sr    1.683391  2.665164  4.352771
