37
Energy: -108387.249790 eV PBE+vdW (tier 2 basis)
C    -1.417685  -0.354145  -0.327642
C    -1.426748  -0.445960  1.162846
O    -0.804376  -1.377688  1.754504
H    -0.379441  -0.310323  -0.684193
H    -1.968787  0.505313  -0.723007
H    -1.852585  -1.277160  -0.738239
N    -2.112820  0.488421  1.847238
C    -2.401281  0.568876  3.299124
C    -1.094541  0.688768  4.118678
O    -0.416896  -0.341665  4.421742
H    -2.575251  1.189912  1.274470
H    -2.937835  1.519305  3.404169
C    -3.321839  -0.570338  3.794085
C    -4.064709  -0.298461  5.121766
C    -5.369073  0.506731  4.952433
N    -6.091997  0.714874  6.210757
C    -7.297506  0.209319  6.548558
N    -8.006850  0.801415  7.513995
N    -7.791402  -0.871730  5.932787
H    -2.731257  -1.489450  3.897853
H    -4.048175  -0.769712  2.992518
H    -3.405341  0.209498  5.843874
H    -4.308428  -1.265916  5.582536
H    -6.045193  0.003631  4.248371
H    -5.172817  1.500399  4.520885
H    -5.716948  1.410783  6.848214
H    -8.792016  0.333056  7.954958
H    -7.820789  1.753400  7.809833
H    -8.761357  -1.141918  6.058841
H    -7.197534  -1.526640  5.441465
N    -0.690883  1.888886  4.512824
C    -1.284606  3.205539  4.239505
H    0.167513  1.884452  5.065669
H    -0.613387  3.966087  4.648553
H    -2.258610  3.315276  4.732138
H    -1.379284  3.383976  3.162136
Sr    0.527731  -2.189810  3.403755
