37
Energy: -108386.641715 eV PBE+vdW (tier 2 basis)
C    -1.145159  -2.218694  0.930710
C    -0.493380  -1.038030  1.568432
O    0.738308  -1.159728  1.984031
H    -0.585885  -2.504420  0.028325
H    -2.187971  -2.045130  0.654188
H    -1.103492  -3.072642  1.620902
N    -1.100185  0.112596  1.728396
C    -2.358195  0.609450  1.146772
C    -2.052980  2.134879  1.011328
O    -1.126186  2.590496  1.700635
H    -0.590692  0.949833  2.102937
H    -2.497144  0.153880  0.158375
C    -3.621955  0.337007  2.001236
C    -3.784116  1.187693  3.271440
C    -5.146164  0.936438  3.933460
N    -5.340645  1.829637  5.081066
C    -6.304952  1.704302  6.012320
N    -6.298948  2.508323  7.082640
N    -7.250440  0.765369  5.891280
H    -3.641659  -0.734045  2.254179
H    -4.485078  0.503153  1.339935
H    -3.707413  2.255253  3.010694
H    -2.979067  0.978257  3.991112
H    -5.211622  -0.103355  4.287722
H    -5.947270  1.093968  3.190806
H    -4.820936  2.701904  5.082647
H    -7.103155  2.576726  7.696458
H    -5.495761  3.079566  7.316276
H    -7.897175  0.577273  6.649600
H    -7.452758  0.324866  5.002763
N    -2.805956  2.883147  0.196332
C    -3.885755  2.480340  -0.703052
H    -2.548625  3.869532  0.197187
H    -4.871289  2.600862  -0.233431
H    -3.764546  1.442131  -1.030063
H    -3.851737  3.111766  -1.596973
Sr    2.861456  -1.475777  2.338483
