37
Energy: -108386.244819 eV PBE+vdW (tier 2 basis)
C    0.519820  0.742669  0.554296
C    0.147959  -0.224764  1.632832
O    1.073977  -0.955160  2.179387
H    1.263036  1.457970  0.934196
H    -0.338534  1.305867  0.174293
H    0.971560  0.201611  -0.289676
N    -1.113482  -0.309320  1.995518
C    -1.760027  -1.214145  2.952429
C    -3.172499  -1.428694  2.357464
O    -3.645445  -0.509994  1.657420
H    -1.821594  0.219041  1.462789
H    -1.187838  -2.149618  2.978458
C    -1.834375  -0.630939  4.399046
C    -3.043372  0.222443  4.833766
C    -3.188908  1.672259  4.313138
N    -4.139721  1.802256  3.206856
C    -5.071407  2.759034  3.076833
N    -6.060338  2.591563  2.186761
N    -5.039228  3.874236  3.818696
H    -0.900723  -0.077486  4.581567
H    -1.802792  -1.494571  5.077826
H    -2.960119  0.290482  5.927159
H    -3.984990  -0.319407  4.660955
H    -2.208218  2.085939  4.024762
H    -3.559735  2.286961  5.142826
H    -4.128158  1.052615  2.505218
H    -6.242414  1.689134  1.765065
H    -6.660788  3.360324  1.911675
H    -5.829199  4.509454  3.840300
H    -4.204669  4.167962  4.308811
N    -3.838985  -2.545809  2.651279
C    -3.388420  -3.695623  3.439241
H    -4.771374  -2.594833  2.242386
H    -4.171739  -4.457762  3.403998
H    -3.227414  -3.429543  4.491385
H    -2.477140  -4.138892  3.017688
Sr    3.080490  -1.824401  2.458817
