37
Energy: -108385.911266 eV PBE+vdW (tier 2 basis)
C    -0.270363  2.156273  2.547695
C    -0.176606  0.681584  2.338257
O    0.975535  0.083074  2.407796
H    -0.635606  2.658347  1.638518
H    0.706850  2.572549  2.804972
H    -0.985495  2.405370  3.345004
N    -1.261750  -0.031910  2.078382
C    -2.631166  0.515534  1.949655
C    -3.292191  0.952902  3.294880
O    -3.865772  2.034892  3.295917
H    -1.130933  -1.037697  1.967793
H    -2.535561  1.464264  1.406823
C    -3.555517  -0.406051  1.122266
C    -4.783043  0.373501  0.611230
C    -5.763165  -0.433642  -0.259617
N    -6.736373  -1.258056  0.470679
C    -8.015931  -0.916909  0.718645
N    -8.406734  0.361440  0.670497
N    -8.906132  -1.869315  1.026234
H    -3.864343  -1.277069  1.720755
H    -2.990110  -0.787017  0.256572
H    -4.426712  1.213347  -0.004088
H    -5.319164  0.829182  1.456477
H    -5.223486  -1.104040  -0.942754
H    -6.327036  0.253353  -0.904491
H    -6.493833  -2.225877  0.652600
H    -9.390888  0.606069  0.662490
H    -7.745339  1.127019  0.672865
H    -9.818806  -1.634690  1.401187
H    -8.747413  -2.841915  0.789842
N    -3.247362  0.135544  4.379160
C    -2.675813  -1.194479  4.537217
H    -3.718528  0.536840  5.187974
H    -3.133421  -1.664896  5.413431
H    -1.588537  -1.170080  4.707208
H    -2.895722  -1.843586  3.679466
Sr    3.128391  -0.332641  2.542004
