37
Energy: -108386.355128 eV PBE+vdW (tier 2 basis)
C    -1.318451  -0.949179  -0.106688
C    -1.389580  -1.137756  1.376859
O    -1.576547  -2.244130  1.909124
H    -1.123023  0.083594  -0.415133
H    -2.259252  -1.292055  -0.557207
H    -0.529383  -1.601320  -0.504573
N    -1.243255  -0.020899  2.169258
C    -1.109006  -0.142659  3.618915
C    -2.505931  -0.357155  4.254149
O    -3.102887  0.523533  4.996796
H    -1.154587  0.892537  1.734804
H    -0.591460  -1.101166  3.790934
C    -0.291271  0.999669  4.231670
C    1.150098  1.138308  3.699130
C    2.105327  -0.009291  4.062955
N    3.468751  0.335361  3.645311
C    4.482436  -0.529318  3.447774
N    5.611837  -0.101076  2.873533
N    4.356314  -1.816980  3.793716
H    -0.266179  0.857113  5.322695
H    -0.806004  1.957234  4.059043
H    1.551041  2.073560  4.119112
H    1.148484  1.268467  2.607182
H    1.819261  -0.938554  3.547965
H    2.073137  -0.194929  5.150486
H    3.707285  1.322468  3.617814
H    6.462025  -0.653668  2.903777
H    5.661868  0.787407  2.388128
H    3.689148  -2.113145  4.494918
H    5.057829  -2.496945  3.519879
N    -3.064467  -1.507650  3.969889
C    -4.389882  -1.930623  4.397356
H    -2.515790  -2.075501  3.257019
H    -4.573554  -2.942507  4.024191
H    -5.169783  -1.273306  3.982515
H    -4.454269  -1.962694  5.495200
Sr    -4.601352  1.574058  6.198606
