37
Energy: -108386.494691 eV PBE+vdW (tier 2 basis)
C    -0.528819  0.776548  0.403529
C    -0.156282  0.748367  1.843174
O    0.422768  1.795506  2.361208
H    -0.774885  -0.215364  0.011418
H    0.312924  1.177433  -0.176113
H    -1.378628  1.463790  0.269761
N    -0.386112  -0.279624  2.646846
C    -1.046238  -1.606442  2.424863
C    -0.219459  -2.469755  1.429263
O    -0.348334  -2.295799  0.216765
H    -0.069644  -0.129329  3.604389
H    -1.014091  -2.065291  3.422839
C    -2.521366  -1.468265  2.007554
C    -3.340431  -2.775010  2.078477
C    -3.291483  -3.652175  0.818180
N    -4.292048  -4.720990  0.924916
C    -4.360382  -5.809685  0.138983
N    -5.232082  -6.783463  0.428363
N    -3.542219  -5.937639  -0.913687
H    -2.582250  -1.051839  0.993310
H    -2.985439  -0.738998  2.685520
H    -4.387313  -2.477968  2.243645
H    -3.050609  -3.369724  2.958548
H    -2.303530  -4.113940  0.687169
H    -3.490218  -3.028185  -0.069095
H    -5.081888  -4.556905  1.542078
H    -5.448564  -7.515064  -0.239293
H    -5.709716  -6.823596  1.321083
H    -3.502499  -6.804476  -1.438123
H    -3.075402  -5.136570  -1.319741
N    0.593391  -3.383187  1.998721
C    1.458289  -4.279189  1.232017
H    0.603187  -3.471811  3.009681
H    1.376104  -4.016863  0.173813
H    1.155001  -5.323519  1.376600
H    2.499699  -4.166549  1.555918
Sr    1.372713  3.733062  2.734657
