37
Energy: -108386.642249 eV PBE+vdW (tier 2 basis)
C    0.092522  0.259215  0.534242
C    -0.336370  -0.291627  1.852794
O    0.565319  -0.851941  2.612696
H    0.594116  -0.529497  -0.043197
H    0.827913  1.061044  0.693482
H    -0.732299  0.656982  -0.062025
N    -1.573686  -0.236025  2.281885
C    -2.719678  0.535568  1.773187
C    -3.504982  0.824045  3.092049
O    -3.252250  0.103413  4.070957
H    -1.830576  -0.552932  3.248984
H    -2.351275  1.469889  1.331393
C    -3.585233  -0.205029  0.721618
C    -4.515453  -1.305414  1.257604
C    -5.376302  -1.896065  0.131555
N    -6.343594  -2.863860  0.660839
C    -7.475466  -3.256038  0.046930
N    -8.374373  -3.983989  0.721215
N    -7.719134  -2.905760  -1.221403
H    -2.913680  -0.612954  -0.049231
H    -4.187861  0.563642  0.216102
H    -5.180026  -0.892004  2.030738
H    -3.928941  -2.105427  1.736410
H    -4.732968  -2.374087  -0.626273
H    -5.939080  -1.090191  -0.363044
H    -6.095320  -3.358064  1.512024
H    -9.131122  -4.461532  0.244072
H    -8.354926  -4.052566  1.731812
H    -8.630177  -3.063509  -1.638605
H    -6.977157  -2.617094  -1.846507
N    -4.420875  1.799735  3.107983
C    -4.792558  2.740492  2.052758
H    -4.899637  1.893840  4.002990
H    -5.653490  2.380708  1.473279
H    -3.952911  2.929885  1.375453
H    -5.063644  3.695862  2.513737
Sr    2.254091  -1.477376  3.833433
