37
Energy: -108387.784338 eV PBE+vdW (tier 2 basis)
C    0.529184  0.479034  0.305696
C    -0.114017  -0.155989  1.492496
O    0.547676  -0.392923  2.546951
H    0.927763  1.459794  0.603490
H    -0.149476  0.611410  -0.543260
H    1.389408  -0.125443  -0.012940
N    -1.422205  -0.469655  1.427115
C    -2.216358  -1.007492  2.543665
C    -1.792823  -2.471150  2.851242
O    -0.924635  -2.637330  3.769268
H    -1.901896  -0.280938  0.550396
H    -1.895126  -0.467250  3.446719
C    -3.725169  -0.754489  2.344246
C    -4.160348  0.699450  2.612806
C    -5.658621  0.896725  2.310068
N    -6.095660  2.289355  2.460241
C    -7.149871  2.741774  3.172747
N    -7.714529  3.905233  2.834492
N    -7.629286  2.055046  4.216395
H    -4.267879  -1.430729  3.021751
H    -4.024174  -1.046236  1.326653
H    -3.575819  1.393351  1.988078
H    -3.954382  0.972035  3.658691
H    -6.276245  0.263517  2.959178
H    -5.879079  0.580046  1.278267
H    -5.715024  2.951839  1.790320
H    -8.337807  4.393873  3.469192
H    -7.585091  4.317382  1.917067
H    -8.517123  2.305391  4.638515
H    -7.080697  1.351046  4.691884
N    -2.266375  -3.525928  2.206157
C    -3.194225  -3.629159  1.074212
H    -1.905428  -4.412931  2.561685
H    -3.026057  -2.826400  0.350287
H    -4.237205  -3.625981  1.413544
H    -2.999451  -4.580920  0.570378
Sr    1.136048  -1.745361  4.303308
