37
Energy: -108386.427372 eV PBE+vdW (tier 2 basis)
C    0.190532  1.464697  0.211771
C    0.238167  0.174944  0.962704
O    1.317984  -0.539346  0.857361
H    -0.787034  1.946890  0.236140
H    0.469445  1.304904  -0.834561
H    0.927354  2.143793  0.670062
N    -0.611515  -0.127923  1.966284
C    -2.073863  -0.063842  1.807123
C    -2.349729  -0.663693  0.385064
O    -1.398122  -0.723663  -0.414406
H    -0.304588  -0.944470  2.493091
H    -2.466831  -0.754901  2.566889
C    -2.752589  1.302332  2.060031
C    -2.473415  1.853917  3.470249
C    -3.510207  2.841101  4.021420
N    -3.502118  4.142319  3.336537
C    -4.460872  5.081713  3.484400
N    -4.384515  6.219034  2.782170
N    -5.500314  4.872300  4.298164
H    -3.833063  1.137532  1.942683
H    -2.484224  2.029213  1.282737
H    -1.466602  2.296608  3.523907
H    -2.459473  1.020918  4.189545
H    -3.310326  2.980709  5.096516
H    -4.517575  2.410806  3.918077
H    -2.603638  4.479086  3.003504
H    -4.977486  7.013099  2.997582
H    -3.745358  6.323709  2.003838
H    -5.471181  4.176019  5.032833
H    -6.293180  5.505341  4.304490
N    -3.575553  -1.101943  0.081524
C    -4.771534  -1.190218  0.917980
H    -3.664325  -1.441773  -0.875120
H    -5.418073  -0.311281  0.792772
H    -4.509042  -1.307925  1.974870
H    -5.339009  -2.077989  0.619606
Sr    2.887106  -1.728376  -0.073962
