37
Energy: -108386.660995 eV PBE+vdW (tier 2 basis)
C    -0.268234  0.775544  1.064462
C    0.093343  -0.390052  1.925077
O    1.315431  -0.697437  2.066939
H    0.512756  1.535092  1.203984
H    -1.239993  1.210376  1.302503
H    -0.246553  0.499872  -0.001025
N    -0.829765  -1.106614  2.636117
C    -1.993529  -1.832166  2.087022
C    -1.401624  -3.109417  1.413461
O    -0.249976  -3.042352  0.867282
H    -0.359301  -1.661132  3.354595
H    -2.583917  -2.136622  2.962077
C    -2.890209  -0.994713  1.140777
C    -4.279911  -1.576717  0.807347
C    -5.406293  -1.331590  1.825892
N    -5.947459  0.029834  1.702471
C    -6.861147  0.579217  2.535689
N    -7.245929  1.844441  2.343537
N    -7.347112  -0.117741  3.568569
H    -2.356737  -0.824758  0.196925
H    -3.017170  -0.011667  1.615471
H    -4.223583  -2.655045  0.616800
H    -4.594211  -1.159137  -0.161270
H    -5.051190  -1.466572  2.859833
H    -6.201422  -2.073152  1.644066
H    -5.887161  0.453498  0.780431
H    -8.056119  2.228816  2.818712
H    -6.762505  2.460087  1.699823
H    -7.938022  0.329398  4.262478
H    -7.329281  -1.130006  3.581681
N    -2.050309  -4.264952  1.427949
C    -3.285680  -4.672127  2.103975
H    -1.570401  -5.013490  0.923737
H    -3.076948  -5.564489  2.706458
H    -4.056166  -4.924780  1.365103
H    -3.653360  -3.883999  2.764530
Sr    2.051902  -2.579860  0.937558
