37
Energy: -108387.915096 eV PBE+vdW (tier 2 basis)
C    0.297920  0.768273  0.452505
C    0.106466  0.525291  1.912059
O    1.010667  0.825906  2.748147
H    0.438242  1.848130  0.295348
H    -0.539106  0.425397  -0.164450
H    1.220888  0.279030  0.113758
N    -1.056586  -0.010874  2.325481
C    -1.487508  -0.180890  3.726397
C    -0.717226  -1.366753  4.366903
O    0.433990  -1.149125  4.854445
H    -1.730798  -0.249076  1.601518
H    -1.142126  0.705652  4.280086
C    -3.029255  -0.231846  3.779619
C    -3.625710  -0.144911  5.195867
C    -5.151140  -0.360213  5.265069
N    -5.977102  0.726017  4.720251
C    -6.819778  1.511232  5.428827
N    -7.844026  2.102983  4.806001
N    -6.633756  1.716458  6.736825
H    -3.398134  -1.138714  3.267438
H    -3.388249  0.615894  3.175509
H    -3.367124  0.824964  5.647399
H    -3.180551  -0.916576  5.842755
H    -5.447139  -0.520165  6.309200
H    -5.429226  -1.283550  4.734766
H    -6.134266  0.726629  3.717460
H    -8.197345  1.766390  3.917067
H    -8.365180  2.854887  5.245670
H    -7.356985  2.143823  7.305948
H    -5.756735  1.507079  7.195161
N    -1.260559  -2.571733  4.368983
C    -0.629895  -3.785806  4.899523
H    -2.176331  -2.679323  3.940690
H    -0.110932  -4.327262  4.097769
H    -1.406643  -4.432407  5.319458
H    0.082657  -3.514049  5.682382
Sr    2.308586  0.166235  4.503166
