37
Energy: -108386.412243 eV PBE+vdW (tier 2 basis)
C    -0.249986  0.147316  -0.330983
C    -0.237980  0.289999  1.161088
O    0.788739  0.352187  1.838917
H    -1.253977  0.118102  -0.768288
H    0.283723  -0.774796  -0.599442
H    0.313149  0.976304  -0.779735
N    -1.481000  0.324368  1.791403
C    -1.550498  0.638343  3.210981
C    -2.484033  -0.342546  3.921821
O    -2.921780  -0.118669  5.117691
H    -2.277768  0.571399  1.206314
H    -0.537139  0.392498  3.587330
C    -1.839991  2.129977  3.508250
C    -0.831084  3.106607  2.873230
C    0.561793  3.124730  3.528823
N    1.494697  4.006925  2.828057
C    2.628235  3.647622  2.190380
N    3.527448  4.596709  1.894876
N    2.865271  2.379205  1.847738
H    -1.857928  2.275246  4.599402
H    -2.846471  2.381209  3.140557
H    -1.266621  4.114414  2.934233
H    -0.725944  2.898246  1.798937
H    1.005570  2.123303  3.559416
H    0.485870  3.473446  4.570393
H    1.319836  5.005238  2.893492
H    4.282641  4.421527  1.241666
H    3.509854  5.507683  2.338296
H    2.140154  1.655257  1.830548
H    3.792128  2.107265  1.540027
N    -2.794412  -1.457410  3.296553
C    -3.598329  -2.553276  3.830670
H    -2.390392  -1.548113  2.361071
H    -3.664745  -3.339846  3.073689
H    -4.618334  -2.212246  4.054413
H    -3.125937  -2.981016  4.725684
Sr    -3.860411  -0.075983  7.105027
