37
Energy: -108385.972036 eV PBE+vdW (tier 2 basis)
C    0.834571  -1.372726  2.215370
C    0.058309  -0.121963  2.439229
O    0.673976  0.920540  2.918468
H    1.039657  -1.842943  3.190019
H    1.801580  -1.123521  1.761682
H    0.318259  -2.105830  1.590632
N    -1.239399  -0.018114  2.201745
C    -2.246120  -0.977286  1.655064
C    -2.042454  -2.440320  2.122186
O    -1.696805  -3.316893  1.319657
H    -1.624974  0.905574  2.403677
H    -3.180604  -0.641150  2.129882
C    -2.471081  -0.802795  0.135416
C    -1.303797  -0.936084  -0.862560
C    -1.068936  -2.298123  -1.536955
N    -2.222045  -2.769515  -2.311662
C    -2.844525  -3.958043  -2.173666
N    -3.570870  -4.435282  -3.193761
N    -2.766478  -4.643751  -1.030917
H    -2.908211  0.198886  0.014163
H    -3.284150  -1.493863  -0.133062
H    -0.347452  -0.631657  -0.409492
H    -1.475257  -0.195175  -1.657290
H    -0.216459  -2.202138  -2.225456
H    -0.806985  -3.065770  -0.805281
H    -2.437966  -2.255471  -3.161102
H    -3.461349  -4.083727  -4.137813
H    -4.209866  -5.212003  -3.067438
H    -3.067952  -5.610337  -0.993779
H    -2.387278  -4.226136  -0.177565
N    -2.288034  -2.712170  3.418388
C    -2.863370  -1.844458  4.446152
H    -2.192842  -3.700677  3.648061
H    -2.926102  -2.415155  5.377125
H    -3.880496  -1.519904  4.185990
H    -2.235032  -0.965119  4.638445
Sr    2.048426  2.426901  3.750510
