37
Energy: -108386.501365 eV PBE+vdW (tier 2 basis)
C    -0.043374  0.092119  -0.538938
C    0.344263  -0.284907  0.847943
O    1.596527  -0.571064  1.065500
H    0.547495  0.973849  -0.831357
H    -1.102089  0.319186  -0.650714
H    0.200859  -0.730677  -1.221274
N    -0.456256  -0.223316  1.907775
C    -1.919564  -0.392140  1.974626
C    -2.219291  -1.807000  1.368006
O    -1.507824  -2.223811  0.454660
H    0.019404  -0.437958  2.783422
H    -2.134066  -0.390126  3.052783
C    -2.764962  0.741385  1.331415
C    -4.131656  0.900018  2.023172
C    -4.953768  2.128679  1.612230
N    -5.583296  1.977845  0.291437
C    -6.264373  2.958272  -0.338572
N    -6.795382  2.724478  -1.545133
N    -6.382272  4.168600  0.216369
H    -2.902107  0.556213  0.257468
H    -2.200793  1.680452  1.431632
H    -3.975425  0.995207  3.108314
H    -4.746889  -0.003783  1.886339
H    -4.311127  3.021742  1.590570
H    -5.729256  2.286255  2.379641
H    -5.796531  1.030363  -0.006060
H    -6.575392  1.888370  -2.072289
H    -7.453713  3.370419  -1.966701
H    -6.783336  4.943519  -0.301023
H    -6.216563  4.321175  1.203463
N    -3.278446  -2.453190  1.885487
C    -3.715265  -3.770793  1.416015
H    -3.713230  -2.088275  2.726671
H    -3.268873  -4.569961  2.021923
H    -3.404418  -3.897097  0.375406
H    -4.805755  -3.837299  1.485621
Sr    3.657089  -1.270546  0.921680
