37
Energy: -108386.603158 eV PBE+vdW (tier 2 basis)
C    -0.716359  -1.190888  0.264781
C    -0.263279  -0.287332  1.361471
O    0.980625  -0.357857  1.750688
H    -0.128839  -0.990465  -0.642464
H    -1.777304  -1.086054  0.024571
H    -0.522754  -2.234127  0.550628
N    -1.055649  0.573934  1.952113
C    -2.403883  1.043501  1.590779
C    -2.364114  2.513690  2.117299
O    -1.503569  2.788734  2.967745
H    -0.684239  1.251492  2.662221
H    -2.511915  1.023138  0.499171
C    -3.557351  0.227484  2.228752
C    -3.641009  0.289686  3.761328
C    -4.776649  -0.539822  4.377924
N    -6.094380  0.086126  4.189438
C    -7.275161  -0.533955  4.397703
N    -8.416842  0.122457  4.158097
N    -7.314854  -1.806539  4.806545
H    -3.454961  -0.819552  1.903590
H    -4.491995  0.589970  1.776587
H    -3.720787  1.332005  4.109522
H    -2.707969  -0.088443  4.203400
H    -4.572830  -0.665110  5.453550
H    -4.805542  -1.538952  3.918057
H    -6.119475  1.101517  4.219509
H    -9.310405  -0.238562  4.474048
H    -8.431601  1.003621  3.659180
H    -6.520474  -2.246472  5.253769
H    -8.190138  -2.319040  4.829117
N    -3.262596  3.398260  1.664570
C    -4.264507  3.249167  0.611749
H    -3.169392  4.321350  2.087351
H    -4.317203  4.180697  0.038063
H    -5.260988  3.043569  1.025844
H    -3.993955  2.448873  -0.084636
Sr    3.127669  -0.416228  2.106305
