37
Energy: -108386.609349 eV PBE+vdW (tier 2 basis)
C    -0.635555  -1.044000  0.077067
C    -0.453808  -0.133480  1.250053
O    0.736548  0.299970  1.541070
H    -1.678360  -1.341423  -0.073309
H    -0.038297  -1.956306  0.218629
H    -0.284073  -0.546277  -0.837980
N    -1.511223  0.198412  1.957513
C    -1.634412  1.017871  3.169458
C    -2.834754  0.381703  3.914841
O    -3.753124  -0.096094  3.222827
H    -2.419077  -0.228495  1.719702
H    -0.704897  0.935817  3.747829
C    -1.907330  2.512506  2.837028
C    -3.255383  2.839818  2.159651
C    -4.398952  3.143436  3.149368
N    -5.695944  3.311796  2.497473
C    -6.670153  2.385989  2.418436
N    -6.438942  1.110586  2.747905
N    -7.888846  2.758332  2.004407
H    -1.085343  2.853000  2.191910
H    -1.803718  3.080452  3.774387
H    -3.562775  2.031287  1.481039
H    -3.111837  3.723985  1.523709
H    -4.183856  4.074146  3.692562
H    -4.506486  2.363665  3.912879
H    -5.898147  4.219901  2.091288
H    -7.214959  0.465547  2.841226
H    -5.501021  0.728876  2.891056
H    -8.599959  2.074669  1.771996
H    -8.164325  3.732852  1.965564
N    -2.824327  0.434169  5.248811
C    -3.907751  -0.075125  6.094161
H    -2.020436  0.845046  5.714119
H    -4.477087  -0.820462  5.531923
H    -4.574581  0.738587  6.408325
H    -3.477533  -0.543679  6.984966
Sr    2.929175  0.450420  1.378055
