37
Energy: -108386.532911 eV PBE+vdW (tier 2 basis)
C    -1.313540  -1.705770  0.605264
C    -0.326084  -0.902367  1.384394
O    0.793518  -1.457008  1.745549
H    -1.003160  -1.742263  -0.450733
H    -2.330158  -1.305562  0.647559
H    -1.328069  -2.735727  0.980120
N    -0.545635  0.358494  1.703589
C    -1.711903  1.211240  1.380143
C    -1.127988  2.633427  1.179587
O    -0.582297  3.166506  2.161143
H    0.166233  0.839780  2.262869
H    -2.178615  0.829537  0.466547
C    -2.707215  1.239271  2.559372
C    -3.836538  2.287218  2.388722
C    -4.052205  3.191425  3.606501
N    -2.912931  4.091973  3.818332
C    -2.941383  5.202769  4.568450
N    -1.878175  6.021252  4.571325
N    -4.016626  5.511359  5.302966
H    -2.125266  1.445342  3.469227
H    -3.132308  0.234465  2.685777
H    -4.787027  1.776705  2.190861
H    -3.658398  2.928177  1.511866
H    -4.226728  2.575612  4.505027
H    -4.954702  3.795359  3.431695
H    -2.018275  3.841615  3.385916
H    -1.808164  6.798012  5.217713
H    -1.115141  5.890483  3.919217
H    -4.093921  6.406303  5.772442
H    -4.771394  4.853866  5.449561
N    -1.250870  3.223968  -0.016533
C    -1.876158  2.710213  -1.239459
H    -0.849811  4.160022  -0.057711
H    -1.368442  1.809754  -1.608005
H    -2.944936  2.506114  -1.096468
H    -1.786581  3.478911  -2.012224
Sr    2.534597  -2.746514  2.101461
