37
Energy: -108387.813202 eV PBE+vdW (tier 2 basis)
C    -0.960132  -2.183712  -0.756513
C    -0.648080  -1.630205  0.591751
O    0.544558  -1.369875  0.935072
H    -0.374870  -3.098214  -0.923059
H    -0.634586  -1.458523  -1.517144
H    -2.022463  -2.402334  -0.906119
N    -1.661121  -1.398821  1.447553
C    -1.521058  -0.722911  2.748570
C    -0.765725  -1.640350  3.747196
O    0.482318  -1.432664  3.892625
H    -2.601757  -1.607899  1.120486
H    -0.818394  0.110739  2.600418
C    -2.879793  -0.123429  3.167455
C    -2.863431  0.680062  4.479448
C    -4.230145  1.340923  4.731824
N    -4.223938  2.128528  5.967344
C    -5.072923  3.138182  6.255495
N    -6.110942  3.407438  5.456416
N    -4.851808  3.891599  7.337959
H    -3.648198  -0.907415  3.217406
H    -3.175196  0.543609  2.342378
H    -2.089617  1.461332  4.437686
H    -2.612614  0.022272  5.327790
H    -5.016647  0.568043  4.772544
H    -4.466874  2.019323  3.899217
H    -3.660163  1.786362  6.739505
H    -6.655325  4.254766  5.582034
H    -6.497305  2.712367  4.829636
H    -5.564421  4.515976  7.700999
H    -3.960539  3.886764  7.820168
N    -1.345745  -2.629055  4.412612
C    -2.720239  -3.138417  4.358895
H    -0.710484  -3.128700  5.036800
H    -3.387980  -2.557532  5.007190
H    -2.707996  -4.171143  4.720638
H    -3.099944  -3.147930  3.332879
Sr    2.272575  -1.258157  2.420845
