37
Energy: -108387.259870 eV PBE+vdW (tier 2 basis)
C    -0.879668  -2.455753  -0.447431
C    -0.586254  -1.793377  0.855143
O    0.605851  -1.612484  1.246642
H    -1.948953  -2.590623  -0.640236
H    -0.378390  -3.432386  -0.484689
H    -0.445582  -1.847990  -1.255370
N    -1.615307  -1.375146  1.617015
C    -1.468726  -0.579438  2.846607
C    -0.866132  -1.451645  3.980448
O    0.385871  -1.349579  4.185597
H    -2.553499  -1.523786  1.252920
H    -0.670990  0.153684  2.654711
C    -2.760170  0.220592  3.126546
C    -2.679055  1.126903  4.369180
C    -3.692914  2.287452  4.386278
N    -5.097581  1.911350  4.607472
C    -5.876891  2.335435  5.629186
N    -7.203655  2.375222  5.468702
N    -5.343015  2.691387  6.801924
H    -3.629130  -0.449227  3.189594
H    -2.911700  0.847203  2.232989
H    -1.686388  1.602753  4.406846
H    -2.772657  0.534943  5.292388
H    -3.640589  2.842914  3.437555
H    -3.407651  3.005001  5.164932
H    -5.608510  1.565942  3.800866
H    -7.827884  2.482492  6.261940
H    -7.631306  2.402395  4.549651
H    -5.893361  3.182708  7.498593
H    -4.392394  2.455700  7.054596
N    -1.581259  -2.303097  4.701830
C    -2.996471  -2.672523  4.604252
H    -1.039077  -2.793287  5.414925
H    -3.632994  -1.962798  5.147317
H    -3.117572  -3.659350  5.061446
H    -3.315083  -2.746690  3.560203
Sr    2.261083  -1.483895  2.816432
