37
Energy: -108387.749113 eV PBE+vdW (tier 2 basis)
C    1.311875  -2.687301  4.288633
C    0.558302  -1.439691  3.968198
O    0.998401  -0.612332  3.114483
H    1.395580  -3.289414  3.371657
H    0.845534  -3.294626  5.071292
H    2.336509  -2.433207  4.591445
N    -0.609039  -1.217800  4.600122
C    -1.566386  -0.129179  4.324516
C    -1.009289  1.209524  4.881046
O    -0.177583  1.861753  4.177964
H    -0.888353  -1.908797  5.293220
H    -1.593507  0.012237  3.232631
C    -2.962948  -0.553597  4.824035
C    -4.123930  0.387162  4.420183
C    -4.949228  -0.060777  3.196830
N    -5.865896  -1.180657  3.446775
C    -7.117078  -1.088941  3.951303
N    -7.816877  -2.205314  4.172465
N    -7.644816  0.100589  4.263568
H    -2.941297  -0.679469  5.918801
H    -3.149414  -1.566788  4.436170
H    -3.744182  1.397556  4.204975
H    -4.802328  0.510202  5.275109
H    -4.296858  -0.380770  2.373583
H    -5.508902  0.796552  2.794679
H    -5.629368  -2.072019  3.025176
H    -7.403337  -3.126062  4.080753
H    -8.805995  -2.175336  4.397436
H    -8.566915  0.162454  4.683134
H    -7.271158  0.960698  3.882513
N    -1.394299  1.628592  6.073661
C    -0.920965  2.849692  6.735624
H    -2.048622  1.048212  6.592034
H    -1.726265  3.244604  7.362431
H    -0.646306  3.591383  5.981111
H    -0.052645  2.627519  7.369678
Sr    1.545584  1.555345  2.662769
