37
Energy: -108385.670404 eV PBE+vdW (tier 2 basis)
C    0.029125  -0.153196  0.286420
C    -0.127151  -0.439554  1.746378
O    0.796934  -0.862783  2.464312
H    0.336137  -1.075392  -0.225758
H    0.850086  0.563381  0.148052
H    -0.876477  0.239518  -0.188369
N    -1.363557  -0.217865  2.311394
C    -1.524674  -0.384655  3.751241
C    -2.050698  -1.804120  4.027080
O    -3.271180  -2.064355  4.363253
H    -2.118416  0.156895  1.744832
H    -0.491523  -0.413666  4.129494
C    -2.243999  0.761276  4.459792
C    -1.672791  2.161465  4.135432
C    -0.152285  2.349302  4.049914
N    0.575978  2.029600  5.292929
C    1.874964  1.640622  5.339154
N    2.401504  0.873119  4.380597
N    2.623963  2.002534  6.387780
H    -2.172106  0.568215  5.540718
H    -3.317172  0.773726  4.213930
H    -2.088770  2.868425  4.868208
H    -2.061526  2.503584  3.165525
H    0.039372  3.399997  3.782278
H    0.275853  1.748385  3.242188
H    0.263214  2.538962  6.116438
H    1.837210  0.357810  3.701713
H    3.405095  0.733182  4.335798
H    2.377081  2.794728  6.970870
H    3.526335  1.573706  6.565415
N    -1.167503  -2.766513  3.861935
C    -1.417390  -4.202097  3.975688
H    -0.235312  -2.456199  3.556033
H    -1.764395  -4.454606  4.986251
H    -0.478979  -4.733467  3.795151
H    -2.149579  -4.531193  3.225859
Sr    -5.290826  -2.723266  4.935088
