37
Energy: -108386.461728 eV PBE+vdW (tier 2 basis)
C    -0.343538  1.250783  1.165662
C    -0.610042  -0.025754  1.905217
O    0.267860  -0.897582  2.077042
H    0.420274  1.822015  1.711423
H    -1.228607  1.880231  1.024271
H    0.091605  1.015559  0.185297
N    -1.869298  -0.209425  2.399110
C    -2.355699  -1.433973  3.050328
C    -1.773056  -1.592138  4.468842
O    -2.558556  -1.740759  5.491390
H    -2.543235  0.537781  2.265323
H    -3.434764  -1.282410  3.180739
C    -2.151531  -2.759999  2.260916
C    -2.691696  -2.805839  0.818952
C    -1.811135  -2.205819  -0.294266
N    -0.451763  -2.750518  -0.373456
C    0.015119  -3.596267  -1.310264
N    -0.816266  -4.312730  -2.075390
N    1.338215  -3.730476  -1.472090
H    -2.677541  -3.533422  2.840561
H    -1.092689  -3.045823  2.276327
H    -3.676243  -2.317042  0.755532
H    -2.874749  -3.865130  0.586092
H    -1.716663  -1.118879  -0.187111
H    -2.305922  -2.354515  -1.262993
H    0.233067  -2.340232  0.259203
H    -0.480658  -4.798107  -2.900126
H    -1.799797  -4.406811  -1.859476
H    1.988586  -3.039310  -1.117811
H    1.727770  -4.481287  -2.031433
N    -0.469929  -1.594757  4.592147
C    0.272988  -1.728381  5.841709
H    0.045034  -1.447130  3.687241
H    1.341868  -1.689833  5.614965
H    0.056410  -2.691782  6.322380
H    0.037930  -0.901986  6.526383
Sr    -3.713290  -1.916625  7.346350
