37
Energy: -108386.648206 eV PBE+vdW (tier 2 basis)
C    -1.199299  -1.192476  1.740524
C    -0.168275  -0.193337  1.338277
O    1.082400  -0.566831  1.304705
H    -1.211365  -2.018164  1.014629
H    -2.206085  -0.772552  1.808108
H    -0.929878  -1.621637  2.715073
N    -0.457414  1.041733  1.012328
C    -1.746315  1.728801  0.818582
C    -1.352007  2.786054  -0.265020
O    -0.175730  3.176329  -0.246869
H    0.286729  1.706328  0.698249
H    -2.496808  1.015582  0.457777
C    -2.195902  2.407419  2.139440
C    -3.513045  3.196062  2.057327
C    -3.865913  3.838569  3.407771
N    -5.146830  4.548473  3.327370
C    -5.534066  5.569784  4.115126
N    -6.650200  6.245439  3.816254
N    -4.802539  5.931082  5.175883
H    -1.381238  3.074072  2.461520
H    -2.283931  1.620838  2.905037
H    -4.331412  2.524939  1.750067
H    -3.439223  3.990627  1.301722
H    -3.089290  4.567222  3.681870
H    -3.906479  3.068558  4.196431
H    -5.864379  4.144585  2.732866
H    -7.085148  6.869211  4.487272
H    -7.092493  6.170149  2.907826
H    -4.999643  6.792748  5.673441
H    -4.143155  5.296315  5.607790
N    -2.261669  3.240031  -1.139235
C    -3.631222  2.805963  -1.395753
H    -1.881780  3.943053  -1.773741
H    -3.741678  2.543152  -2.454728
H    -4.345736  3.605727  -1.161466
H    -3.884199  1.924096  -0.800784
Sr    3.107095  -1.342129  1.137366
