37
Energy: -108387.851824 eV PBE+vdW (tier 2 basis)
C    -1.733370  -1.109299  -0.543926
C    -1.136061  -0.942664  0.812742
O    0.104640  -0.730288  0.959932
H    -1.231714  -1.936641  -1.064617
H    -1.533768  -0.201794  -1.131903
H    -2.811907  -1.297398  -0.529795
N    -1.943414  -1.016640  1.888652
C    -1.513686  -0.784024  3.277048
C    -0.600478  -1.945280  3.761602
O    0.657318  -1.766680  3.665182
H    -2.927545  -1.210191  1.719685
H    -0.823935  0.072863  3.253532
C    -2.698946  -0.416180  4.193410
C    -3.211753  1.024762  4.004982
C    -4.380869  1.328947  4.957469
N    -4.868143  2.699364  4.777548
C    -5.566528  3.409135  5.688924
N    -6.005481  2.832828  6.813466
N    -5.794124  4.709105  5.472862
H    -2.364865  -0.549673  5.233317
H    -3.526048  -1.125993  4.047457
H    -3.541074  1.176768  2.964217
H    -2.398170  1.741227  4.193436
H    -4.043761  1.222787  5.999114
H    -5.197636  0.606257  4.789449
H    -4.829234  3.091542  3.841679
H    -6.391532  3.393742  7.566115
H    -6.138792  1.831621  6.883295
H    -6.480582  5.222116  6.016056
H    -5.278067  5.234089  4.776348
N    -1.060253  -3.091932  4.238333
C    -2.431085  -3.593409  4.385673
H    -0.322099  -3.729206  4.542703
H    -2.387146  -4.686948  4.389748
H    -3.056763  -3.286885  3.542290
H    -2.875108  -3.262560  5.332406
Sr    2.113976  -1.082468  2.010570
