37
Energy: -108387.789046 eV PBE+vdW (tier 2 basis)
C    -0.006065  -0.038222  -0.158804
C    -0.063757  -0.420733  1.281922
O    0.993096  -0.535282  1.971771
H    0.620879  -0.756833  -0.704349
H    0.489784  0.939543  -0.244644
H    -0.988840  0.015322  -0.638519
N    -1.268042  -0.637760  1.844491
C    -1.491103  -0.924113  3.270919
C    -0.967976  -2.344168  3.625469
O    0.211522  -2.420285  4.102033
H    -2.083752  -0.555335  1.242699
H    -0.810883  -0.267456  3.833673
C    -2.936848  -0.597691  3.699518
C    -3.220621  0.908761  3.859548
C    -4.700067  1.161968  4.208581
N    -5.036716  2.588786  4.274679
C    -5.689311  3.227385  5.269972
N    -6.356639  4.352568  4.995432
N    -5.668298  2.762495  6.524627
H    -3.123284  -1.109739  4.655505
H    -3.649046  -1.032429  2.982779
H    -2.977182  1.442995  2.927428
H    -2.576668  1.337100  4.642126
H    -4.961362  0.695342  5.166487
H    -5.350896  0.692128  3.454050
H    -4.986627  3.100412  3.398095
H    -6.637063  4.592678  4.050960
H    -6.651972  4.984704  5.732536
H    -6.291523  3.142380  7.229195
H    -4.959149  2.116058  6.843989
N    -1.667615  -3.453019  3.441515
C    -2.990848  -3.671608  2.846696
H    -1.185072  -4.293992  3.763054
H    -3.156391  -3.005631  1.994805
H    -3.786758  -3.545954  3.590800
H    -3.023851  -4.701530  2.478061
Sr    2.294944  -1.613845  3.521907
