37
Energy: -108386.804226 eV PBE+vdW (tier 2 basis)
C    -0.332280  -0.173219  -0.918426
C    -0.109225  -0.245575  0.553215
O    1.041788  -0.477186  1.025745
H    0.227363  0.664839  -1.358355
H    -1.385356  -0.102180  -1.203652
H    0.095558  -1.085639  -1.360962
N    -1.146480  -0.081346  1.421952
C    -2.072037  1.052090  1.345211
C    -1.229909  2.349147  1.563631
O    -0.030446  2.247426  1.988246
H    -0.881595  -0.309489  2.382036
H    -2.507197  1.088889  0.335963
C    -3.180435  0.898745  2.415347
C    -4.116087  -0.318679  2.249760
C    -5.313121  -0.083389  1.308825
N    -6.184880  -1.254828  1.179026
C    -7.419102  -1.411227  1.700998
N    -7.842499  -0.644865  2.714108
N    -8.231987  -2.341024  1.190371
H    -3.768801  1.825942  2.453800
H    -2.686107  0.833548  3.397162
H    -4.495452  -0.585883  3.246259
H    -3.544407  -1.194437  1.907358
H    -4.976955  0.178104  0.294081
H    -5.925159  0.761223  1.654271
H    -5.872646  -1.995373  0.558451
H    -7.196795  -0.174762  3.334698
H    -8.819779  -0.642134  2.987181
H    -9.059134  -2.651204  1.690045
H    -8.074876  -2.745590  0.273864
N    -1.744036  3.539375  1.305829
C    -3.058996  3.895888  0.765581
H    -1.125849  4.324043  1.520113
H    -3.724399  4.237867  1.568787
H    -3.511848  3.049323  0.242269
H    -2.928796  4.714059  0.048743
Sr    2.075408  1.251526  2.200288
