37
Energy: -108387.990529 eV PBE+vdW (tier 2 basis)
C    -1.778224  1.968271  0.267666
C    -1.876241  0.773184  1.154958
O    -2.547455  -0.245115  0.807442
H    -1.210135  2.795770  0.705060
H    -2.785649  2.318797  0.006582
H    -1.296936  1.663814  -0.673751
N    -1.225381  0.792791  2.332109
C    -1.076609  -0.342366  3.264120
C    -2.415511  -0.579128  4.010164
O    -3.302994  -1.296614  3.455429
H    -0.717210  1.645313  2.557916
H    -0.933785  -1.246559  2.652787
C    0.184057  -0.115319  4.123339
C    0.646944  -1.325443  4.954930
C    1.928506  -0.994909  5.746028
N    2.384756  -2.104685  6.589860
C    3.626539  -2.635054  6.636517
N    4.455150  -2.557816  5.588864
N    4.026326  -3.261172  7.747745
H    0.050269  0.766842  4.774448
H    0.986777  0.163967  3.422951
H    0.834203  -2.186151  4.295638
H    -0.140340  -1.636236  5.659527
H    1.758510  -0.119912  6.393406
H    2.743432  -0.713731  5.067432
H    1.784615  -2.349605  7.372441
H    5.436482  -2.796986  5.684374
H    4.120250  -2.372361  4.652814
H    3.571563  -3.110108  8.641475
H    4.838408  -3.870113  7.747450
N    -2.612936  -0.010763  5.187367
C    -3.847332  -0.106158  5.974727
H    -1.870957  0.575637  5.560563
H    -4.332220  -1.066359  5.779505
H    -4.531209  0.712478  5.714716
H    -3.594534  -0.032366  7.036658
Sr    -4.131125  -1.789833  1.345744
