37
Energy: -108386.431720 eV PBE+vdW (tier 2 basis)
C    0.738034  0.230609  -0.143401
C    0.426203  0.265757  1.321059
O    1.316849  0.376253  2.182685
H    1.278788  1.147014  -0.414318
H    -0.141775  0.124425  -0.787072
H    1.428366  -0.602672  -0.333069
N    -0.896130  0.180478  1.683832
C    -1.400464  -0.012632  3.050538
C    -1.150959  1.226724  3.935982
O    -2.135762  1.806592  4.558571
H    -1.581334  0.156924  0.936418
H    -2.490480  -0.095371  2.954520
C    -0.839987  -1.287074  3.756753
C    -0.933459  -2.603012  2.958836
C    -2.267903  -3.358835  3.082593
N    -2.306702  -4.598822  2.298880
C    -2.111915  -5.851194  2.753866
N    -1.559015  -6.071410  3.954006
N    -2.491476  -6.889785  2.001222
H    -1.354789  -1.383848  4.725891
H    0.217310  -1.112424  3.987715
H    -0.119257  -3.255275  3.306392
H    -0.716393  -2.416534  1.896778
H    -3.109769  -2.742854  2.734634
H    -2.485940  -3.610279  4.130278
H    -2.536250  -4.516648  1.313505
H    -1.568548  -6.998480  4.365564
H    -0.985945  -5.375814  4.412974
H    -3.139270  -6.782456  1.228814
H    -2.162386  -7.829847  2.194175
N    0.076892  1.656933  4.047919
C    0.484875  2.812724  4.831365
H    0.775848  1.134410  3.409086
H    1.571667  2.919417  4.763109
H    0.226805  2.679024  5.892834
H    0.034918  3.737864  4.437033
Sr    -3.292261  3.292697  5.669692
