37
Energy: -108386.907974 eV PBE+vdW (tier 2 basis)
C    1.031771  -0.644940  1.700258
C    -0.114770  -1.496195  2.126550
O    0.056958  -2.470317  2.917876
H    1.817367  -1.321186  1.329406
H    1.471568  -0.114846  2.557203
H    0.783916  0.070156  0.911128
N    -1.369434  -1.262083  1.647476
C    -1.986725  0.063488  1.694223
C    -2.428010  0.300621  3.181483
O    -2.060311  -0.515097  4.086898
H    -2.016155  -2.017677  1.881101
H    -1.195900  0.805081  1.497553
C    -3.091474  0.234138  0.628457
C    -2.526297  0.168118  -0.803569
C    -3.451416  0.665237  -1.924117
N    -4.539748  -0.270635  -2.241678
C    -5.582813  0.031961  -3.049730
N    -6.533868  -0.883717  -3.264796
N    -5.689809  1.244927  -3.600124
H    -3.571338  1.214143  0.772137
H    -3.882239  -0.514920  0.789230
H    -2.174589  -0.849529  -1.033666
H    -1.630294  0.804882  -0.861297
H    -2.829187  0.837575  -2.817652
H    -3.901167  1.627692  -1.637737
H    -4.321802  -1.260483  -2.167781
H    -7.226081  -0.764328  -3.996895
H    -6.596497  -1.729954  -2.711746
H    -6.533869  1.520599  -4.091961
H    -4.890462  1.858807  -3.700452
N    -3.139506  1.373269  3.470436
C    -3.569369  1.753821  4.823017
H    -3.386798  2.003852  2.712689
H    -2.701034  2.011036  5.441828
H    -4.124388  0.931737  5.288214
H    -4.221652  2.627253  4.744126
Sr    -0.874801  -2.294402  5.040235
