37
Energy: -108387.289178 eV PBE+vdW (tier 2 basis)
C    -1.592630  1.011483  0.738173
C    -0.988383  0.368302  1.943707
O    -0.292140  -0.684378  1.828820
H    -0.804061  1.231868  0.005969
H    -2.146190  1.930803  0.955353
H    -2.271569  0.289638  0.260867
N    -1.210401  0.944363  3.139364
C    -0.861618  0.478458  4.503093
C    0.670469  0.388744  4.708713
O    1.353118  -0.551821  4.202517
H    -1.761513  1.798155  3.106438
H    -1.221543  1.290279  5.150769
C    -1.599573  -0.820781  4.904112
C    -1.594589  -1.116493  6.418960
C    -2.664174  -0.387106  7.259920
N    -4.018066  -0.946701  7.161152
C    -4.525313  -1.940337  7.924759
N    -5.785153  -2.340026  7.728004
N    -3.771767  -2.550259  8.846796
H    -1.152151  -1.667072  4.366529
H    -2.631114  -0.744272  4.530165
H    -0.610378  -0.876079  6.851123
H    -1.716089  -2.198851  6.563178
H    -2.753484  0.670101  6.975555
H    -2.352590  -0.361582  8.314356
H    -4.697460  -0.414659  6.628946
H    -6.358006  -1.966567  6.980148
H    -6.239146  -2.992328  8.358802
H    -4.151850  -3.304449  9.409367
H    -2.900342  -2.150100  9.169465
N    1.231237  1.326358  5.458009
C    2.660580  1.410992  5.776355
H    0.639565  2.074494  5.811161
H    3.089428  0.405853  5.811315
H    2.774222  1.892265  6.752478
H    3.184939  2.012146  5.021811
Sr    1.616737  -1.821437  2.292755
