37
Energy: -108386.449248 eV PBE+vdW (tier 2 basis)
C    0.433530  -0.766497  1.512359
C    -0.173305  0.372076  2.253804
O    0.605586  1.187636  2.903784
H    1.055535  -0.367170  0.697316
H    -0.301971  -1.459652  1.094223
H    1.098551  -1.321991  2.187749
N    -1.476890  0.602054  2.285098
C    -2.612498  -0.082943  1.596522
C    -2.694350  -1.604758  1.939047
O    -2.359542  -2.445589  1.092112
H    -1.745174  1.425715  2.823747
H    -3.496192  0.407685  2.027509
C    -2.621125  0.137014  0.078347
C    -3.998106  -0.228178  -0.535366
C    -3.933169  -0.998345  -1.856648
N    -3.458626  -2.369390  -1.640402
C    -3.624712  -3.384366  -2.498263
N    -3.328313  -4.633842  -2.108332
N    -4.086058  -3.170472  -3.736828
H    -1.820990  -0.465062  -0.372642
H    -2.388411  1.189668  -0.129734
H    -4.570378  0.690566  -0.715245
H    -4.600352  -0.819340  0.171708
H    -3.279507  -0.471343  -2.572230
H    -4.944406  -1.033306  -2.288168
H    -2.996136  -2.563444  -0.746278
H    -3.313964  -5.404698  -2.765315
H    -3.160773  -4.852240  -1.134428
H    -4.340955  -3.941287  -4.343423
H    -4.165196  -2.239639  -4.124981
N    -3.151254  -1.942075  3.156761
C    -3.658654  -1.071703  4.216982
H    -3.204089  -2.947488  3.313023
H    -2.878238  -0.405766  4.609235
H    -4.520360  -0.478441  3.882605
H    -3.996297  -1.703678  5.043331
Sr    2.247347  2.323326  3.826022
