37
Energy: -108386.210367 eV PBE+vdW (tier 2 basis)
C    0.157320  1.202842  0.292226
C    0.026879  0.549852  1.624395
O    1.041654  0.552164  2.431265
H    0.050796  2.291341  0.418546
H    -0.598486  0.870532  -0.425242
H    1.151771  1.000697  -0.122492
N    -1.090893  -0.045985  2.004164
C    -2.436615  0.166866  1.424887
C    -2.686275  1.711305  1.446434
O    -2.144435  2.373881  2.330300
H    -1.081186  -0.411202  2.956762
H    -2.445167  -0.245292  0.406893
C    -3.438992  -0.589700  2.333297
C    -4.934601  -0.439383  1.998272
C    -5.519068  -1.358941  0.916225
N    -5.809852  -2.696111  1.457199
C    -6.302024  -3.728623  0.742789
N    -6.502937  -4.909525  1.338932
N    -6.552321  -3.590936  -0.564542
H    -3.292230  -0.201048  3.353192
H    -3.155113  -1.653986  2.349235
H    -5.156183  0.598434  1.720383
H    -5.507876  -0.590972  2.925676
H    -4.829543  -1.469939  0.065273
H    -6.447744  -0.898795  0.540830
H    -5.925985  -2.757184  2.464693
H    -7.036742  -5.645008  0.888730
H    -6.168282  -5.098505  2.276149
H    -6.673725  -2.678574  -0.985855
H    -6.825705  -4.388883  -1.128115
N    -3.480221  2.258349  0.498930
C    -4.113522  1.667128  -0.674406
H    -3.627959  3.257400  0.640826
H    -4.025530  2.361685  -1.517635
H    -5.182492  1.471494  -0.508728
H    -3.620184  0.733490  -0.964306
Sr    2.779356  1.175191  3.608293
