37
Energy: -108387.769981 eV PBE+vdW (tier 2 basis)
C    -1.510000  0.370502  0.427425
C    -0.863129  0.008068  1.724224
O    0.158381  -0.741530  1.746232
H    -2.359124  1.053946  0.530402
H    -1.852559  -0.553327  -0.061760
H    -0.764312  0.821621  -0.241031
N    -1.402035  0.501541  2.854312
C    -1.071848  0.211941  4.270532
C    0.354856  0.693100  4.632654
O    1.382526  0.059105  4.247746
H    -2.208191  1.105496  2.716163
H    -1.777928  0.838133  4.833327
C    -1.317773  -1.264997  4.660385
C    -1.557600  -1.515542  6.166969
C    -3.041082  -1.463627  6.570223
N    -3.198604  -1.830973  7.981284
C    -4.330610  -1.701761  8.705232
N    -4.298239  -1.927414  10.022151
N    -5.471233  -1.317981  8.119322
H    -0.463992  -1.868332  4.327159
H    -2.179479  -1.622376  4.078835
H    -0.976872  -0.812379  6.784724
H    -1.173334  -2.518286  6.404572
H    -3.607146  -2.158957  5.926884
H    -3.458406  -0.454473  6.427824
H    -2.461082  -2.390086  8.399696
H    -3.425678  -1.989423  10.534331
H    -5.151521  -2.038350  10.560131
H    -6.289204  -1.094103  8.677198
H    -5.626324  -1.446301  7.127024
N    0.451947  1.783140  5.379561
C    1.710388  2.389239  5.826943
H    -0.405869  2.268740  5.629756
H    2.063724  3.123448  5.090950
H    2.465170  1.609831  5.962098
H    1.535297  2.899215  6.779049
Sr    2.273887  -1.122847  2.471469
