37
Energy: -108387.677385 eV PBE+vdW (tier 2 basis)
C    -1.383441  0.260017  0.629382
C    -0.852245  -0.185925  1.952051
O    0.002955  -1.119187  2.020326
H    -1.881812  -0.594513  0.148286
H    -0.548417  0.545438  -0.024586
H    -2.090374  1.093580  0.693056
N    -1.311989  0.432756  3.054643
C    -1.081500  0.119532  4.485728
C    0.405653  0.303781  4.875854
O    1.285352  -0.549371  4.552934
H    -1.982625  1.177190  2.881185
H    -1.651069  0.897046  5.013026
C    -1.644963  -1.261656  4.898660
C    -1.964078  -1.425813  6.402209
C    -3.365386  -0.915710  6.795513
N    -3.671782  -1.090915  8.218450
C    -4.608293  -1.902223  8.754622
N    -5.061991  -1.651377  9.986350
N    -5.087076  -2.950696  8.074018
H    -0.933830  -2.040992  4.596053
H    -2.552077  -1.435514  4.301660
H    -1.200453  -0.928737  7.021784
H    -1.894396  -2.492760  6.655592
H    -4.141095  -1.429183  6.211861
H    -3.478923  0.155358  6.567378
H    -3.237065  -0.440463  8.866005
H    -4.953990  -0.742627  10.423450
H    -5.577801  -2.350543  10.511192
H    -5.909650  -3.447740  8.399555
H    -4.580922  -3.364598  7.302446
N    0.714429  1.384632  5.577235
C    2.062950  1.733683  6.036242
H    -0.025445  2.053279  5.776379
H    2.622360  0.821493  6.261758
H    1.978289  2.344165  6.940147
H    2.591704  2.311689  5.266805
Sr    1.972000  -1.913099  2.817749
