37
Energy: -108385.943967 eV PBE+vdW (tier 2 basis)
C    0.606652  0.120412  1.552152
C    0.065418  0.026943  2.936535
O    0.883110  0.056240  3.948411
H    0.590714  1.172953  1.224602
H    0.006700  -0.426697  0.816079
H    1.640219  -0.238207  1.522212
N    -1.236937  -0.057288  3.169114
C    -2.312075  -0.041937  2.150394
C    -2.421883  1.351735  1.438534
O    -2.151811  1.378016  0.244192
H    -1.517947  -0.073626  4.150239
H    -1.979912  -0.687855  1.328849
C    -3.631111  -0.618133  2.700535
C    -4.776440  -0.445032  1.684941
C    -6.136465  -1.018948  2.123458
N    -6.304745  -2.467507  1.946574
C    -6.993331  -3.059750  0.950988
N    -7.409372  -4.324114  1.098182
N    -7.257838  -2.406221  -0.185671
H    -3.908401  -0.127360  3.646096
H    -3.469657  -1.683958  2.926121
H    -4.485544  -0.875881  0.714493
H    -4.932611  0.628215  1.500144
H    -6.940906  -0.520067  1.567427
H    -6.329539  -0.798744  3.182884
H    -6.033409  -3.071249  2.715100
H    -7.756314  -4.859088  0.309436
H    -7.497382  -4.752203  2.012516
H    -7.932800  -2.768085  -0.850561
H    -6.784365  -1.548195  -0.436533
N    -2.763895  2.460060  2.145347
C    -3.269701  2.590462  3.506208
H    -2.814352  3.290814  1.557542
H    -3.215886  3.645555  3.792652
H    -2.658272  2.032997  4.227585
H    -4.318142  2.273045  3.602440
Sr    2.707950  0.162582  5.162180
