37
Energy: -108386.513748 eV PBE+vdW (tier 2 basis)
C    -0.951989  0.653744  0.596182
C    -0.159588  0.096255  1.729058
O    1.103967  0.400778  1.779832
H    -1.983096  0.305198  0.565834
H    -0.473819  0.394738  -0.354644
H    -0.956196  1.750749  0.697781
N    -0.688684  -0.502503  2.803533
C    -1.783073  -1.487230  2.780361
C    -1.354581  -2.539738  1.692450
O    -0.604181  -2.175414  0.781296
H    0.001638  -0.683149  3.531461
H    -1.754269  -1.952969  3.776101
C    -3.209089  -0.904596  2.580233
C    -4.316106  -1.850304  3.079075
C    -5.753372  -1.339334  2.906125
N    -6.116857  -0.314150  3.895809
C    -7.262990  0.398903  3.861973
N    -7.498294  1.316143  4.808329
N    -8.145099  0.223217  2.873046
H    -3.390523  -0.687668  1.519051
H    -3.251176  0.053534  3.118370
H    -4.149860  -2.121838  4.135315
H    -4.275142  -2.792257  2.514566
H    -6.433835  -2.201738  2.994710
H    -5.879329  -0.909846  1.900888
H    -5.668621  -0.382658  4.805039
H    -8.414805  1.735124  4.921599
H    -6.781520  1.602189  5.464001
H    -8.943350  0.840850  2.770306
H    -8.138434  -0.607032  2.293581
N    -1.852579  -3.776913  1.822947
C    -1.570275  -4.859847  0.875744
H    -2.351430  -4.017859  2.672723
H    -2.425969  -5.541533  0.846755
H    -0.675472  -5.419974  1.176714
H    -1.409306  -4.433214  -0.118026
Sr    3.176895  0.729481  1.193414
