37
Energy: -108386.107675 eV PBE+vdW (tier 2 basis)
C    -0.184027  0.467356  0.373686
C    -0.081169  -0.256886  1.674449
O    1.080424  -0.503195  2.199110
H    -0.623694  -0.182756  -0.398641
H    0.801979  0.791830  0.032322
H    -0.839066  1.346387  0.454480
N    -1.172955  -0.660239  2.307212
C    -2.566566  -0.524151  1.825447
C    -3.180988  0.898033  1.903510
O    -3.911405  1.227659  0.962678
H    -1.032303  -1.140666  3.196440
H    -2.540330  -0.727696  0.747769
C    -3.512788  -1.553359  2.509976
C    -4.271521  -2.462754  1.527829
C    -5.331803  -1.808361  0.632284
N    -6.522559  -1.372739  1.381652
C    -7.285913  -0.295330  1.085682
N    -8.595295  -0.329620  1.367147
N    -6.743749  0.800122  0.551038
H    -4.224299  -1.023493  3.159131
H    -2.922525  -2.199040  3.177872
H    -4.740897  -3.270989  2.109089
H    -3.553919  -2.967804  0.863131
H    -5.641793  -2.540981  -0.128302
H    -4.926804  -0.944953  0.093240
H    -7.005158  -2.107333  1.893541
H    -9.154965  0.516034  1.374789
H    -9.088845  -1.204325  1.504052
H    -7.336444  1.532823  0.178236
H    -5.736328  0.979779  0.597536
N    -2.957972  1.697046  2.965770
C    -2.296729  1.403083  4.234268
H    -3.433894  2.595125  2.893419
H    -2.670468  2.106220  4.985291
H    -1.206567  1.529223  4.174310
H    -2.538536  0.395371  4.594829
Sr    3.229855  -0.788039  2.602135
