37
Energy: -108385.877543 eV PBE+vdW (tier 2 basis)
C    -1.235710  0.517959  -1.121644
C    -0.735416  0.806611  0.251407
O    0.351639  1.502138  0.411872
H    -1.991167  1.271635  -1.398854
H    -1.735172  -0.455038  -1.198089
H    -0.418028  0.567187  -1.846716
N    -1.394847  0.392048  1.322536
C    -2.658471  -0.382351  1.337432
C    -3.872403  0.368690  0.703299
O    -4.471796  -0.224772  -0.187753
H    -1.003524  0.660913  2.226440
H    -2.521387  -1.223494  0.647145
C    -2.929853  -0.934169  2.755443
C    -4.379960  -1.396041  3.002819
C    -4.912238  -2.612472  2.232029
N    -4.424183  -3.880414  2.797393
C    -4.722701  -5.094753  2.291197
N    -4.277233  -6.197812  2.905654
N    -5.427488  -5.201802  1.159965
H    -2.717107  -0.149682  3.498031
H    -2.217971  -1.749790  2.952504
H    -5.068153  -0.567214  2.786330
H    -4.497320  -1.577813  4.082367
H    -4.633032  -2.561438  1.169666
H    -6.012619  -2.580832  2.286749
H    -4.163154  -3.864132  3.779290
H    -4.610241  -7.119278  2.645087
H    -3.636995  -6.150556  3.688856
H    -5.579183  -6.103483  0.721497
H    -5.949393  -4.420305  0.783521
N    -4.212788  1.612394  1.126625
C    -3.794216  2.335320  2.323888
H    -5.040306  1.967588  0.648993
H    -4.159891  3.364020  2.247571
H    -2.701691  2.387448  2.409050
H    -4.207059  1.902237  3.246122
Sr    2.198845  2.653435  0.115515
