37
Energy: -108386.646893 eV PBE+vdW (tier 2 basis)
C    -0.269448  0.132564  -0.368448
C    -0.088260  0.238776  1.108070
O    1.126246  0.284953  1.583776
H    0.202733  0.995285  -0.859378
H    -1.316970  0.085301  -0.676146
H    0.244323  -0.767700  -0.733636
N    -1.092827  0.288412  1.949142
C    -2.532957  0.485248  1.716410
C    -2.952311  1.245776  3.018261
O    -2.198178  1.170305  3.998008
H    -0.929445  0.446868  2.972628
H    -2.673284  1.130083  0.838480
C    -3.336462  -0.824560  1.517019
C    -3.389295  -1.757466  2.735623
C    -4.182617  -3.053999  2.520197
N    -5.634713  -2.822292  2.486011
C    -6.546621  -3.725754  2.070006
N    -7.841609  -3.388908  2.034906
N    -6.165315  -4.940543  1.661037
H    -2.914041  -1.360615  0.652733
H    -4.352295  -0.528063  1.215387
H    -3.787774  -1.229051  3.616544
H    -2.371632  -2.062022  3.019674
H    -3.934077  -3.753458  3.334599
H    -3.889987  -3.521712  1.568204
H    -5.989074  -2.079509  3.081812
H    -8.566084  -4.087329  1.908791
H    -8.145970  -2.427755  2.130525
H    -6.824549  -5.571076  1.217150
H    -5.268635  -5.331814  1.921012
N    -4.122156  1.894299  2.989793
C    -4.642998  2.663012  4.124869
H    -4.608974  1.979506  2.102479
H    -5.725284  2.515162  4.200575
H    -4.436015  3.732772  3.994742
H    -4.157575  2.313222  5.039705
Sr    3.194858  0.601057  2.184642
