37
Energy: -108388.008870 eV PBE+vdW (tier 2 basis)
C    -4.493896  2.131349  4.852896
C    -3.517784  1.396916  3.996776
O    -3.464249  1.598789  2.746139
H    -4.474902  1.825184  5.903945
H    -5.508704  1.998952  4.454929
H    -4.269067  3.206750  4.791289
N    -2.682488  0.520435  4.583382
C    -1.551026  -0.172496  3.936132
C    -2.088665  -1.307062  3.026142
O    -2.450815  -1.018874  1.844584
H    -2.786250  0.395330  5.588105
H    -1.086202  0.545123  3.242737
C    -0.523052  -0.553050  5.021435
C    0.838440  -1.050886  4.503259
C    1.838252  -1.220552  5.661083
N    3.148640  -1.656706  5.171159
C    4.110628  -2.233470  5.923339
N    3.971507  -2.334505  7.249709
N    5.197292  -2.733860  5.326051
H    -0.957731  -1.288110  5.721520
H    -0.361958  0.357792  5.619083
H    1.240108  -0.318470  3.784493
H    0.736871  -2.006163  3.967231
H    1.468739  -1.980393  6.365654
H    1.930040  -0.266753  6.208168
H    3.436630  -1.330887  4.253396
H    4.613689  -2.899457  7.796245
H    3.355954  -1.721694  7.770182
H    5.229004  -2.901316  4.327031
H    6.023918  -2.984953  5.858221
N    -2.182112  -2.535865  3.504637
C    -2.720777  -3.687718  2.772391
H    -1.900109  -2.692113  4.468802
H    -2.521649  -3.567382  1.704158
H    -3.802534  -3.774639  2.938596
H    -2.231949  -4.596347  3.136221
Sr    -3.424796  0.715102  0.648883
