37
Energy: -108387.335781 eV PBE+vdW (tier 2 basis)
C    -2.015955  -0.973317  -0.059865
C    -1.754475  -0.763405  1.397099
O    -1.185896  -1.664595  2.082347
H    -2.640767  -1.870199  -0.179101
H    -1.068345  -1.181826  -0.575253
H    -2.508127  -0.126869  -0.549984
N    -2.143719  0.406831  1.937434
C    -2.138431  0.867482  3.344804
C    -0.717874  0.959894  3.936891
O    -0.040561  -0.084729  4.195000
H    -2.567186  1.056425  1.280113
H    -2.522890  1.892286  3.279068
C    -3.101860  0.083478  4.273190
C    -4.570345  0.226867  3.831016
C    -5.615794  -0.535997  4.664980
N    -5.994735  0.145533  5.908142
C    -7.222704  0.113811  6.470344
N    -7.507405  0.955372  7.471162
N    -8.157961  -0.732982  6.028951
H    -2.949381  0.474810  5.291687
H    -2.815020  -0.977607  4.300780
H    -4.668543  -0.155354  2.804632
H    -4.857147  1.289222  3.789586
H    -5.266010  -1.559581  4.879693
H    -6.524648  -0.620023  4.055156
H    -5.264263  0.570769  6.469091
H    -8.331794  0.826046  8.048553
H    -6.957807  1.789337  7.641553
H    -9.125744  -0.634648  6.318941
H    -7.922734  -1.572730  5.514304
N    -0.216422  2.154442  4.214690
C    -0.787912  3.490760  3.988745
H    0.706671  2.127803  4.650848
H    -1.641500  3.676588  4.652157
H    -1.078839  3.627434  2.940994
H    -0.012730  4.226992  4.219647
Sr    0.519851  -2.196318  3.498605
