37
Energy: -108386.581516 eV PBE+vdW (tier 2 basis)
C    -0.274170  -1.178359  1.164091
C    0.233146  -0.038927  1.982183
O    1.379988  -0.162842  2.584211
H    -1.313767  -1.066321  0.847100
H    -0.187740  -2.106971  1.743076
H    0.352766  -1.290472  0.266707
N    -0.433219  1.092029  2.110419
C    -1.737176  1.488426  1.530663
C    -1.628242  3.008453  1.259040
O    -1.464250  3.770074  2.224316
H    -0.028258  1.812233  2.717672
H    -1.881114  0.937359  0.593649
C    -2.882248  1.198134  2.532620
C    -4.161469  2.037076  2.297055
C    -4.447213  2.962105  3.497811
N    -5.401127  4.030339  3.212720
C    -5.088073  5.316131  2.978418
N    -6.062539  6.236041  2.969179
N    -3.822688  5.690304  2.743413
H    -2.496397  1.400159  3.542599
H    -3.102517  0.123132  2.499493
H    -5.020905  1.377288  2.124109
H    -4.071841  2.648612  1.387608
H    -3.516695  3.422345  3.853321
H    -4.845252  2.378767  4.339578
H    -6.389084  3.796303  3.231376
H    -5.898206  7.177645  2.632791
H    -6.986166  6.037344  3.335896
H    -3.570118  6.669590  2.806287
H    -3.056276  5.024781  2.629961
N    -1.735532  3.396473  -0.020135
C    -1.679608  4.794453  -0.447807
H    -1.899184  2.693209  -0.733949
H    -1.187147  4.853118  -1.423600
H    -1.105008  5.368370  0.285130
H    -2.688729  5.218658  -0.535666
Sr    3.327998  -0.776740  3.386773
