37
Energy: -108386.377092 eV PBE+vdW (tier 2 basis)
C    1.169143  1.635243  2.090970
C    0.425228  0.645960  2.916846
O    0.728765  0.521195  4.176790
H    0.965143  1.549874  1.019529
H    2.246987  1.507021  2.257525
H    0.903208  2.648519  2.428978
N    -0.544615  -0.116806  2.435367
C    -1.175959  -0.163585  1.079826
C    -0.133350  -0.536597  -0.020180
O    0.320118  0.345016  -0.761170
H    -0.972057  -0.736115  3.123783
H    -1.893305  -0.990560  1.170107
C    -1.945100  1.126156  0.742377
C    -3.084898  0.957355  -0.282293
C    -2.720303  0.524811  -1.712550
N    -1.809373  1.428575  -2.416516
C    -2.115498  2.222186  -3.454301
N    -1.128928  2.710557  -4.220036
N    -3.384366  2.545119  -3.736352
H    -1.235808  1.891893  0.400482
H    -2.399296  1.499001  1.671176
H    -3.618525  1.918233  -0.323045
H    -3.816796  0.227185  0.097515
H    -3.639833  0.416787  -2.301752
H    -2.256647  -0.472518  -1.722432
H    -0.826548  1.340208  -2.152872
H    -1.297190  3.457458  -4.884353
H    -0.207183  2.291027  -4.221903
H    -3.630240  2.975699  -4.620560
H    -4.134822  2.400109  -3.074071
N    0.222803  -1.830239  -0.123129
C    -0.264559  -2.979794  0.638321
H    0.899503  -2.012193  -0.862699
H    0.217593  -3.878568  0.243185
H    -1.349185  -3.114657  0.530713
H    -0.003388  -2.908161  1.702993
Sr    1.543625  0.667312  6.212516
