37
Energy: -108387.171729 eV PBE+vdW (tier 2 basis)
C    -0.098540  -0.886750  0.344028
C    0.156808  0.280642  1.240496
O    1.116426  1.073500  1.005500
H    0.801612  -1.517694  0.323236
H    -0.255539  -0.529148  -0.682919
H    -0.956275  -1.497656  0.643613
N    -0.665642  0.455689  2.292100
C    -0.592413  1.437481  3.398976
C    -0.683708  2.889868  2.873967
O    0.334434  3.474077  2.388349
H    -1.404729  -0.237010  2.378624
H    -1.503934  1.246257  3.978369
C    0.620913  1.214820  4.329417
C    0.536460  1.987049  5.665561
C    -0.169259  1.280423  6.834961
N    0.685876  0.248128  7.438897
C    0.292515  -0.608479  8.409231
N    1.144908  -1.540199  8.847365
N    -0.950509  -0.555752  8.900577
H    1.538482  1.499448  3.798727
H    0.700193  0.133340  4.511386
H    0.030276  2.953304  5.519669
H    1.551738  2.262243  5.988162
H    -1.104791  0.801310  6.505345
H    -0.430316  2.044061  7.585874
H    1.689107  0.388847  7.359398
H    2.013530  -1.741047  8.365650
H    0.959599  -2.071323  9.692036
H    -1.285113  -1.269808  9.540034
H    -1.511793  0.284730  8.835595
N    -1.840708  3.532127  2.953461
C    -3.142249  3.054341  3.441681
H    -1.810610  4.495743  2.616541
H    -3.890759  3.811993  3.192521
H    -3.137471  2.929245  4.531764
H    -3.433965  2.119974  2.949243
Sr    2.003802  3.158580  0.826450
