37
Energy: -108388.092658 eV PBE+vdW (tier 2 basis)
C    1.237080  -0.813456  -0.229614
C    0.806741  0.005894  0.940157
O    0.754699  1.270837  0.868723
H    2.210716  -0.458598  -0.592481
H    0.518695  -0.654462  -1.047874
H    1.299218  -1.885640  -0.016571
N    0.460725  -0.628657  2.074902
C    -0.137561  -0.007194  3.272459
C    0.953028  0.775264  4.049083
O    1.213604  1.966508  3.698044
H    0.538497  -1.643479  2.071131
H    -0.839222  0.764599  2.920622
C    -0.927763  -1.084299  4.043350
C    -1.839760  -0.560234  5.167041
C    -2.661949  -1.704576  5.786190
N    -3.556401  -1.210595  6.836037
C    -4.674445  -1.832478  7.267981
N    -5.503206  -1.188631  8.096703
N    -4.971825  -3.069041  6.854204
H    -0.242958  -1.857412  4.434302
H    -1.550211  -1.599168  3.294988
H    -2.528433  0.197771  4.764697
H    -1.242865  -0.070016  5.952821
H    -1.984446  -2.476541  6.189670
H    -3.281177  -2.173075  5.007249
H    -3.232933  -0.431716  7.401616
H    -6.230359  -1.682119  8.603975
H    -5.454978  -0.184965  8.228642
H    -5.881977  -3.474992  7.046869
H    -4.262210  -3.700072  6.502571
N    1.602365  0.179272  5.034687
C    2.692643  0.778408  5.812469
H    1.361999  -0.786181  5.244192
H    3.661687  0.554758  5.347187
H    2.678837  0.356776  6.822028
H    2.551461  1.861148  5.865626
Sr    1.302681  3.280361  1.787323
