37
Energy: -108387.782557 eV PBE+vdW (tier 2 basis)
C    0.277596  0.138943  -0.051136
C    -0.251515  -0.304432  1.271312
O    0.496188  -0.349208  2.293564
H    1.128460  -0.494760  -0.336553
H    0.668293  1.161840  0.050576
H    -0.468426  0.118454  -0.852290
N    -1.549321  -0.652487  1.364430
C    -2.235388  -1.012892  2.615933
C    -1.740729  -2.396419  3.123272
O    -0.801373  -2.390270  3.984469
H    -2.101564  -0.622394  0.510874
H    -1.861847  -0.323952  3.388180
C    -3.762362  -0.823663  2.504626
C    -4.215503  0.648411  2.558744
C    -5.739442  0.771497  2.370250
N    -6.194328  2.166274  2.326952
C    -7.230543  2.708450  3.003036
N    -7.832768  3.795291  2.510044
N    -7.654027  2.188227  4.160757
H    -4.227532  -1.381811  3.331060
H    -4.134095  -1.290366  1.580566
H    -3.710173  1.229945  1.771222
H    -3.924043  1.102019  3.517790
H    -6.274720  0.251668  3.174287
H    -6.045420  0.280018  1.432808
H    -5.856396  2.721419  1.545663
H    -7.747421  4.059608  1.534813
H    -8.438781  4.370427  3.086385
H    -8.529173  2.489960  4.575796
H    -7.071918  1.577666  4.718592
N    -2.224247  -3.552749  2.696664
C    -3.231796  -3.858670  1.674653
H    -1.807346  -4.361803  3.160558
H    -3.043959  -4.875473  1.316204
H    -3.146328  -3.181260  0.819927
H    -4.245199  -3.822030  2.092468
Sr    1.261148  -1.376476  4.196505
