37
Energy: -108386.265087 eV PBE+vdW (tier 2 basis)
C    -3.085688  -0.696141  0.597701
C    -1.812051  0.077488  0.516392
O    -1.600710  0.885689  -0.480096
H    -2.888660  -1.778896  0.589796
H    -3.737782  -0.455308  -0.245581
H    -3.621770  -0.489161  1.535620
N    -0.884963  -0.047155  1.454154
C    -0.992441  -0.907180  2.653361
C    -1.968873  -0.357297  3.744785
O    -2.815979  -1.138020  4.160774
H    -0.049785  0.529787  1.349516
H    -1.493031  -1.829640  2.335365
C    0.394388  -1.291083  3.208353
C    0.266676  -2.264303  4.394323
C    1.624052  -2.729730  4.935441
N    1.417801  -3.615542  6.086910
C    2.309524  -4.493323  6.579538
N    1.920712  -5.383212  7.500837
N    3.573786  -4.500348  6.138630
H    0.950860  -0.393525  3.519516
H    0.970575  -1.763305  2.397251
H    -0.321844  -3.143052  4.091695
H    -0.295328  -1.778166  5.206709
H    2.235682  -1.859538  5.228500
H    2.172272  -3.289341  4.162993
H    0.563738  -3.488470  6.621718
H    0.941309  -5.569377  7.682405
H    2.595829  -5.910609  8.043211
H    4.208548  -5.248585  6.394932
H    3.981295  -3.693708  5.683033
N    -1.835357  0.911100  4.210339
C    -0.900413  1.963019  3.834933
H    -2.531972  1.141752  4.916762
H    -0.895274  2.718509  4.627056
H    -1.187864  2.468503  2.899906
H    0.128320  1.591490  3.748568
Sr    -1.784737  2.006149  -2.358457
