37
Energy: -108386.625235 eV PBE+vdW (tier 2 basis)
C    0.058426  1.135047  4.131066
C    -0.264224  -0.227605  3.619930
O    0.660256  -1.147870  3.669404
H    -0.788091  1.824606  4.080588
H    0.889927  1.554891  3.547546
H    0.396373  1.065093  5.173983
N    -1.432630  -0.547870  3.123422
C    -2.691749  0.199681  2.965329
C    -3.723273  -0.976145  2.918677
O    -3.315776  -2.071591  2.514799
H    -1.628950  -1.524108  2.797706
H    -2.860574  0.848216  3.836026
C    -2.655219  0.993046  1.629519
C    -3.948829  1.663645  1.134330
C    -4.349733  2.969502  1.834882
N    -5.470794  3.577799  1.107617
C    -6.218003  4.619161  1.517735
N    -7.318086  4.952950  0.834093
N    -5.885668  5.300179  2.622698
H    -2.343723  0.279686  0.853289
H    -1.850362  1.741532  1.698707
H    -4.787586  0.953194  1.161749
H    -3.777703  1.893013  0.070962
H    -3.487430  3.658182  1.851746
H    -4.664899  2.794724  2.875905
H    -5.621478  3.260986  0.154189
H    -7.715928  4.341385  0.130432
H    -7.784263  5.841468  0.982651
H    -4.939684  5.291226  2.982162
H    -6.506909  6.007597  3.000468
N    -4.982077  -0.709538  3.290821
C    -6.049923  -1.714055  3.283145
H    -5.181457  0.188856  3.718085
H    -6.970732  -1.269333  2.890961
H    -6.234116  -2.090659  4.297182
H    -5.743220  -2.544417  2.641879
Sr    2.225978  -2.648100  3.849908
