37
Energy: -108387.943858 eV PBE+vdW (tier 2 basis)
C    0.470140  -0.933519  -0.137173
C    0.191435  -0.382092  1.220601
O    1.010360  0.401329  1.788576
H    -0.293544  -1.632404  -0.493799
H    1.447656  -1.433978  -0.139378
H    0.544723  -0.094589  -0.845083
N    -0.959263  -0.724944  1.829255
C    -1.463167  -0.169503  3.099104
C    -0.653562  -0.763254  4.283134
O    0.435810  -0.203037  4.613499
H    -1.563542  -1.375330  1.331764
H    -1.212851  0.902390  3.103347
C    -2.998893  -0.318833  3.153788
C    -3.658718  0.449551  4.314527
C    -5.167350  0.206893  4.502403
N    -6.008844  0.920037  3.534739
C    -7.280338  1.317181  3.762238
N    -7.874141  2.144419  2.894462
N    -7.939022  0.910086  4.851566
H    -3.281502  -1.385567  3.194200
H    -3.376121  0.046227  2.185601
H    -3.476731  1.529662  4.208242
H    -3.190003  0.154598  5.265108
H    -5.440167  0.573562  5.500957
H    -5.382250  -0.875175  4.475094
H    -5.688268  0.996550  2.575404
H    -7.342311  2.692548  2.228579
H    -8.876889  2.298665  2.916114
H    -8.819109  1.340402  5.117522
H    -7.672419  0.075432  5.359358
N    -1.097792  -1.845516  4.898626
C    -0.412640  -2.535873  5.997503
H    -1.965597  -2.257905  4.566137
H    0.236735  -3.329055  5.604283
H    -1.164006  -2.985296  6.653920
H    0.185186  -1.817043  6.563951
Sr    2.219997  0.922381  3.651830
