37
Energy: -108387.847684 eV PBE+vdW (tier 2 basis)
C    0.416534  0.299210  0.351633
C    0.186745  0.421820  1.820152
O    1.097426  0.850538  2.590861
H    0.620019  1.302029  -0.053088
H    -0.428496  -0.137026  -0.190993
H    1.315995  -0.302870  0.166689
N    -1.017565  0.078561  2.313403
C    -1.472001  0.283776  3.701587
C    -0.807128  -0.766405  4.627785
O    0.346867  -0.520600  5.093755
H    -1.701797  -0.270694  1.646136
H    -1.056727  1.247078  4.035176
C    -3.011772  0.391927  3.722897
C    -3.605467  0.828525  5.076636
C    -5.013639  1.450155  4.991939
N    -6.111792  0.520397  4.689447
C    -7.174404  0.265614  5.487300
N    -8.315694  -0.166075  4.940488
N    -7.093628  0.416031  6.813177
H    -3.471962  -0.548750  3.373319
H    -3.264848  1.148402  2.962913
H    -2.964203  1.611267  5.511311
H    -3.606266  -0.003629  5.796089
H    -5.026851  2.242940  4.228703
H    -5.243954  1.950524  5.940316
H    -6.247297  0.277027  3.713049
H    -8.526970  -0.023747  3.958910
H    -9.056811  -0.561556  5.510327
H    -7.927854  0.409251  7.390840
H    -6.207659  0.507545  7.292529
N    -1.440770  -1.897437  4.888067
C    -0.908209  -2.996391  5.701070
H    -2.351187  -2.038712  4.458490
H    -0.212745  -2.596428  6.443497
H    -0.389973  -3.726246  5.065344
H    -1.739009  -3.495212  6.209221
Sr    2.305587  0.580417  4.503628
