37
Energy: -108386.082333 eV PBE+vdW (tier 2 basis)
C    -0.821655  -1.315100  0.188123
C    -0.713713  -0.112957  1.072769
O    0.289601  0.640608  1.057457
H    -1.798547  -1.808477  0.227194
H    -0.055730  -2.044650  0.489873
H    -0.598969  -1.025203  -0.846348
N    -1.752616  0.151380  1.904928
C    -1.763203  1.106455  3.025172
C    -1.774533  2.573037  2.572999
O    -2.620794  3.396192  3.115001
H    -2.546235  -0.480856  1.861099
H    -2.752347  0.961365  3.474159
C    -0.721467  0.782897  4.168330
C    0.486118  1.699139  4.450134
C    1.794254  1.470682  3.681646
N    2.383705  0.150512  3.954357
C    3.127605  -0.572012  3.085532
N    2.924391  -0.480671  1.768107
N    4.055496  -1.410253  3.562523
H    -0.379780  -0.245751  3.988520
H    -1.307763  0.731645  5.094073
H    0.706241  1.604641  5.524742
H    0.222743  2.760938  4.323766
H    2.512397  2.250118  3.980520
H    1.642788  1.561721  2.604940
H    2.545614  -0.063549  4.935466
H    3.593462  -0.879982  1.119769
H    2.077085  -0.056686  1.382115
H    4.415257  -1.329847  4.506941
H    4.478334  -2.120398  2.974371
N    -0.923222  2.962568  1.660343
C    -0.816364  4.309597  1.107002
H    -0.293867  2.193837  1.312418
H    -0.611360  5.042555  1.898279
H    -1.734123  4.583643  0.569096
H    0.012878  4.326910  0.394613
Sr    -4.145580  4.819645  3.802706
