37
Energy: -108387.904801 eV PBE+vdW (tier 2 basis)
C    0.809604  0.597852  0.791611
C    0.817750  0.950818  2.240797
O    1.398347  1.998935  2.654869
H    0.300565  1.402660  0.240540
H    0.311566  -0.352335  0.572892
H    1.840261  0.561736  0.414132
N    0.182753  0.136938  3.104589
C    -0.047024  0.410473  4.535330
C    1.271602  0.209468  5.326240
O    2.087886  1.177341  5.401766
H    -0.254768  -0.694003  2.712762
H    -0.257298  1.487379  4.624762
C    -1.295540  -0.362804  5.011378
C    -1.762062  0.014700  6.431320
C    -3.242249  -0.260786  6.740339
N    -3.560924  -1.689966  6.870631
C    -4.821152  -2.188355  6.862922
N    -5.002342  -3.509911  6.955705
N    -5.875648  -1.379622  6.725419
H    -1.143136  -1.451351  4.916591
H    -2.093670  -0.115850  4.294195
H    -1.635996  1.098376  6.576151
H    -1.128426  -0.455536  7.199606
H    -3.865564  0.152645  5.934062
H    -3.497551  0.271463  7.671136
H    -2.876014  -2.264590  7.354166
H    -5.918244  -3.905797  7.140637
H    -4.237688  -4.164655  6.842054
H    -6.804708  -1.758867  6.571385
H    -5.823919  -0.391530  6.942040
N    1.525093  -0.963795  5.880958
C    2.748067  -1.304241  6.616842
H    0.840781  -1.704139  5.752021
H    2.500565  -2.029320  7.398130
H    3.160286  -0.401338  7.074768
H    3.490597  -1.747966  5.940737
Sr    2.829201  2.976973  4.136515
