37
Energy: -108387.914947 eV PBE+vdW (tier 2 basis)
C    -1.227929  0.624442  -0.500488
C    -1.648407  -0.046723  0.763885
O    -2.606587  -0.876652  0.774784
H    -0.415688  1.346402  -0.366874
H    -2.090113  1.130630  -0.954912
H    -0.904974  -0.148423  -1.213779
N    -0.978695  0.239706  1.895440
C    -1.147347  -0.429413  3.199729
C    -2.467705  0.047861  3.862291
O    -3.550430  -0.531131  3.541597
H    -0.234738  0.930026  1.821813
H    -1.310446  -1.498671  2.995145
C    0.149560  -0.271834  4.021690
C    0.211261  -1.134814  5.294697
C    1.431972  -0.862524  6.197067
N    2.726790  -1.327404  5.681311
C    3.486764  -2.307818  6.219475
N    2.939077  -3.271334  6.967365
N    4.802823  -2.320787  5.985071
H    0.312792  0.791017  4.275630
H    0.977627  -0.545979  3.349646
H    0.182948  -2.200525  5.020995
H    -0.676006  -0.951799  5.920230
H    1.269688  -1.329401  7.176475
H    1.524974  0.215728  6.396182
H    3.214846  -0.711792  5.038625
H    3.517525  -3.892812  7.522998
H    1.943442  -3.449206  6.971761
H    5.301735  -1.490840  5.684058
H    5.366832  -3.139397  6.189992
N    -2.439719  1.053457  4.719695
C    -3.610558  1.633987  5.386795
H    -1.540123  1.485954  4.913089
H    -3.970383  2.509471  4.830575
H    -3.323420  1.947676  6.395335
H    -4.403389  0.884445  5.448503
Sr    -4.571001  -1.540525  1.723108
