37
Energy: -108387.884913 eV PBE+vdW (tier 2 basis)
C    0.942011  0.878484  0.723703
C    0.926588  1.109303  2.197126
O    1.537403  2.093895  2.711148
H    0.480378  1.747025  0.230712
H    0.411847  -0.028284  0.414738
H    1.979844  0.830020  0.367869
N    0.237944  0.252991  2.974850
C    -0.015153  0.413503  4.418622
C    1.273711  0.085307  5.216141
O    2.131099  1.004657  5.385952
H    -0.220706  -0.523661  2.503864
H    -0.181168  1.486953  4.597034
C    -1.309374  -0.338011  4.799804
C    -1.779416  -0.084703  6.247775
C    -3.288822  -0.246825  6.501332
N    -3.757421  -1.637471  6.524171
C    -4.828294  -2.075431  7.226023
N    -5.068015  -3.389478  7.300346
N    -5.630231  -1.216740  7.861866
H    -1.199583  -1.417184  4.593452
H    -2.079919  0.022254  4.100139
H    -1.559098  0.961236  6.510793
H    -1.220145  -0.701267  6.966038
H    -3.855920  0.337818  5.757173
H    -3.499235  0.181085  7.490409
H    -3.421898  -2.269864  5.805019
H    -5.955906  -3.744289  7.640303
H    -4.356877  -4.076387  7.079187
H    -6.319766  -1.547055  8.529736
H    -5.686148  -0.239704  7.601088
N    1.461782  -1.139629  5.676536
C    2.652481  -1.595763  6.402828
H    0.746059  -1.834086  5.480769
H    3.392384  -2.007323  5.703910
H    2.357205  -2.377329  7.109339
H    3.089719  -0.756065  6.949299
Sr    2.975641  2.874016  4.298904
