37
Energy: -108387.910988 eV PBE+vdW (tier 2 basis)
C    -1.315777  0.479132  0.409656
C    -0.900160  0.002830  1.763386
O    -0.300802  -1.106608  1.897924
H    -0.442959  0.500467  -0.256719
H    -1.789046  1.466426  0.412209
H    -2.018786  -0.252023  -0.016150
N    -1.183140  0.787623  2.817472
C    -1.047419  0.536715  4.272400
C    0.423027  0.337079  4.705446
O    1.067635  -0.716490  4.416663
H    -1.655991  1.657606  2.585106
H    -1.384389  1.481404  4.721178
C    -2.002706  -0.569316  4.784987
C    -2.302918  -0.461119  6.292137
C    -3.478697  -1.358174  6.713947
N    -3.802306  -1.156096  8.130026
C    -4.552944  -1.981799  8.889221
N    -4.638996  -1.766109  10.205829
N    -5.181293  -3.028425  8.341041
H    -1.603250  -1.562533  4.535191
H    -2.937707  -0.457053  4.216844
H    -2.561415  0.585093  6.527127
H    -1.416028  -0.715456  6.891834
H    -3.221285  -2.417666  6.567793
H    -4.355232  -1.130090  6.083763
H    -3.610116  -0.240299  8.524747
H    -4.002216  -1.142963  10.688914
H    -5.345271  -2.225229  10.771433
H    -5.628730  -3.726846  8.925907
H    -5.410496  -3.053290  7.355109
N    0.967420  1.309510  5.421862
C    2.335362  1.311718  5.948749
H    0.411811  2.144405  5.592488
H    2.673987  0.282761  6.094197
H    2.342446  1.839907  6.907423
H    3.009702  1.830273  5.254486
Sr    1.466685  -2.246365  2.736372
