37
Energy: -108387.628763 eV PBE+vdW (tier 2 basis)
C    0.818844  1.863939  1.942198
C    0.256965  0.824715  2.852430
O    0.925081  0.381867  3.833847
H    0.149752  2.135113  1.118990
H    1.774871  1.514071  1.529606
H    1.042564  2.764376  2.533130
N    -0.988017  0.366034  2.618659
C    -1.718103  -0.567938  3.491615
C    -1.100269  -1.989543  3.394341
O    -0.232701  -2.300307  4.274014
H    -1.474426  0.737592  1.806352
H    -1.484348  -0.274860  4.526311
C    -3.245220  -0.441996  3.298019
C    -3.813742  0.837146  3.942729
C    -5.283718  1.148701  3.624211
N    -6.223053  0.250776  4.311880
C    -7.544388  0.171586  4.028242
N    -8.308430  -0.695199  4.701438
N    -8.080451  0.919046  3.058860
H    -3.719184  -1.334343  3.731541
H    -3.493985  -0.456812  2.226788
H    -3.243306  1.713273  3.599884
H    -3.671973  0.807437  5.035419
H    -5.457539  1.060548  2.541404
H    -5.478860  2.194270  3.913100
H    -5.963461  -0.041280  5.250124
H    -9.321072  -0.657506  4.650356
H    -7.909050  -1.411004  5.296583
H    -9.036131  0.766073  2.752844
H    -7.632020  1.763717  2.725661
N    -1.410000  -2.861885  2.447511
C    -2.295964  -2.741671  1.284649
H    -0.931586  -3.758653  2.548675
H    -1.969092  -3.473459  0.539516
H    -2.222214  -1.748146  0.832573
H    -3.336073  -2.963282  1.552647
Sr    1.667833  -1.328086  5.166775
