37
Energy: -108386.304801 eV PBE+vdW (tier 2 basis)
C    0.787293  -0.676094  0.344171
C    0.342032  -0.253137  1.709895
O    1.047252  -0.611232  2.744198
H    0.123218  -0.319717  -0.450005
H    0.823068  -1.773780  0.288514
H    1.796992  -0.289004  0.145380
N    -0.751133  0.464669  1.812304
C    -1.484351  1.007542  2.965663
C    -2.958134  0.912997  2.482295
O    -3.167332  1.179512  1.293484
H    -1.290134  0.674053  0.953492
H    -1.281560  0.395961  3.851341
C    -1.063723  2.493653  3.189450
C    -2.071091  3.429510  3.895337
C    -2.997314  4.176763  2.921420
N    -3.801736  5.171068  3.638754
C    -4.906088  5.772905  3.157121
N    -5.607221  6.596130  3.946036
N    -5.323587  5.531459  1.908822
H    -0.820681  2.917237  2.203950
H    -0.123766  2.484028  3.756340
H    -1.482259  4.175240  4.450371
H    -2.670526  2.895434  4.645860
H    -3.678106  3.480032  2.413767
H    -2.382911  4.670956  2.149499
H    -3.387818  5.589385  4.466836
H    -6.325224  7.205023  3.569375
H    -5.442609  6.647617  4.944420
H    -6.219963  5.876921  1.583782
H    -4.709394  5.132456  1.210351
N    -3.926328  0.603696  3.363017
C    -3.795798  0.118643  4.736940
H    -4.850071  0.536265  2.937004
H    -4.755256  0.256573  5.245117
H    -3.045790  0.690115  5.295294
H    -3.544401  -0.950664  4.770390
Sr    2.698934  -1.673411  3.728662
