37
Energy: -108386.253590 eV PBE+vdW (tier 2 basis)
C    -1.202778  -1.911167  -0.706967
C    -0.784089  -1.516994  0.671785
O    0.324899  -1.974525  1.168437
H    -1.583804  -1.058603  -1.283071
H    -2.009642  -2.660264  -0.658288
H    -0.362346  -2.354148  -1.248557
N    -1.536122  -0.703527  1.402191
C    -2.888604  -0.203521  1.061265
C    -2.949113  1.191973  0.376735
O    -4.070167  1.642171  0.137906
H    -1.192546  -0.493911  2.340976
H    -3.289147  -0.888056  0.301726
C    -3.843736  -0.303490  2.272580
C    -3.704450  0.682996  3.447030
C    -4.123464  2.148732  3.201459
N    -5.417240  2.307759  2.540216
C    -6.552173  2.778377  3.079584
N    -6.728064  2.829935  4.407067
N    -7.532636  3.203220  2.271613
H    -3.770707  -1.328910  2.662924
H    -4.856743  -0.228801  1.855227
H    -2.676643  0.706493  3.847587
H    -4.315328  0.269374  4.262820
H    -3.383538  2.668765  2.578034
H    -4.134048  2.689062  4.156672
H    -5.384067  2.176540  1.525662
H    -7.505174  3.340018  4.811297
H    -6.132919  2.321137  5.046578
H    -7.363786  3.392713  1.290858
H    -8.471034  3.367188  2.618105
N    -1.797507  1.801531  0.039595
C    -1.757051  3.090329  -0.657628
H    -0.917823  1.387634  0.323498
H    -1.639160  3.919725  0.051905
H    -2.692609  3.220759  -1.208540
H    -0.917810  3.097497  -1.360452
Sr    2.162833  -3.140253  1.544312
