37
Energy: -108386.021460 eV PBE+vdW (tier 2 basis)
C    -0.029448  1.215455  0.417229
C    -0.101168  0.325468  1.612542
O    0.984768  -0.131975  2.158282
H    1.007591  1.373961  0.111826
H    -0.489292  2.192145  0.629872
H    -0.583316  0.785418  -0.430569
N    -1.273021  -0.001708  2.135979
C    -2.605076  0.388977  1.623438
C    -3.036701  1.867251  1.827336
O    -3.788205  2.329499  0.964924
H    -1.250249  -0.594646  2.966172
H    -2.554178  0.290672  0.531756
C    -3.729395  -0.537688  2.172580
C    -4.562041  -1.273971  1.104727
C    -5.233815  -0.421152  0.013660
N    -6.095546  0.660127  0.493823
C    -7.436686  0.689248  0.450808
N    -8.070542  1.867074  0.535631
N    -8.153549  -0.436516  0.337104
H    -4.395233  0.055236  2.814714
H    -3.287948  -1.300030  2.832492
H    -5.322559  -1.858839  1.642731
H    -3.930927  -2.010530  0.583503
H    -5.811506  -1.077173  -0.650918
H    -4.478339  0.054403  -0.627718
H    -5.602837  1.536891  0.681481
H    -7.585982  2.738902  0.358720
H    -9.069867  1.919630  0.697067
H    -9.143939  -0.407220  0.123040
H    -7.744704  -1.349161  0.486935
N    -2.647393  2.575495  2.908911
C    -2.005005  2.125237  4.140923
H    -3.030398  3.519898  2.912780
H    -2.245941  2.842814  4.931567
H    -0.910178  2.086145  4.052045
H    -2.389757  1.150801  4.468301
Sr    3.048955  -0.737911  2.636929
