37
Energy: -108386.353484 eV PBE+vdW (tier 2 basis)
C    -0.143783  0.425494  0.337639
C    -0.443453  0.198214  1.779740
O    0.485070  0.494866  2.638987
H    0.823744  -0.016598  0.079272
H    -0.083208  1.514151  0.176704
H    -0.897632  0.017787  -0.334334
N    -1.674694  -0.037258  2.262875
C    -2.620897  -1.030760  1.720837
C    -1.748681  -2.231632  1.205139
O    -0.514552  -2.155640  1.270766
H    -1.701776  0.023402  3.279326
H    -3.138290  -1.403808  2.617863
C    -3.767356  -0.526117  0.806927
C    -3.458410  -0.115520  -0.639321
C    -4.687825  -0.044688  -1.558670
N    -5.618962  1.031992  -1.192508
C    -6.883919  1.139912  -1.651343
N    -7.672458  2.115807  -1.184845
N    -7.363799  0.264515  -2.540469
H    -4.264551  0.292357  1.347001
H    -4.512264  -1.338016  0.789710
H    -2.790638  -0.853653  -1.109014
H    -2.927983  0.848560  -0.672292
H    -5.236856  -0.997018  -1.510980
H    -4.337291  0.093048  -2.594409
H    -5.216453  1.879626  -0.804222
H    -8.552733  2.343813  -1.634179
H    -7.431937  2.645404  -0.355720
H    -8.350731  0.249443  -2.775732
H    -6.752210  -0.296815  -3.120343
N    -2.413644  -3.298920  0.747077
C    -1.747886  -4.534778  0.322890
H    -3.425138  -3.317859  0.824007
H    -2.384639  -5.049453  -0.402819
H    -1.568819  -5.197963  1.179025
H    -0.790110  -4.285509  -0.142586
Sr    2.405944  0.499636  3.669894
