37
Energy: -108387.816984 eV PBE+vdW (tier 2 basis)
C    -2.176931  0.309082  -0.003450
C    -1.805687  -0.020473  1.407631
O    -1.396271  -1.181684  1.705397
H    -1.317696  0.121389  -0.661773
H    -2.513979  1.341020  -0.146091
H    -2.973199  -0.377176  -0.325693
N    -1.924868  0.957612  2.325517
C    -1.769260  0.930866  3.796896
C    -0.336951  0.597186  4.258965
O    0.201241  -0.525046  4.000415
H    -2.233801  1.850396  1.950729
H    -1.959616  1.969637  4.091757
C    -2.812702  0.052943  4.534004
C    -4.241826  0.618544  4.440272
C    -5.235645  -0.140796  5.334297
N    -6.562232  0.481488  5.270852
C    -7.720437  -0.093448  5.656266
N    -8.878893  0.514543  5.381072
N    -7.718419  -1.276796  6.281395
H    -2.504666  0.002214  5.590242
H    -2.774644  -0.975165  4.146798
H    -4.599104  0.593106  3.400232
H    -4.226353  1.676660  4.750811
H    -4.864854  -0.148539  6.373538
H    -5.329000  -1.184051  4.997952
H    -6.600763  1.478145  5.079718
H    -9.743989  0.230568  5.828846
H    -8.939813  1.272028  4.710339
H    -8.586539  -1.776500  6.444712
H    -6.905122  -1.610716  6.783374
N    0.321316  1.488032  4.985779
C    -0.077087  2.839792  5.406828
H    1.239241  1.170180  5.301128
H    0.780430  3.297748  5.907940
H    -0.909126  2.805253  6.120692
H    -0.334694  3.465191  4.544081
Sr    0.332939  -2.351231  2.630537
