37
Energy: -108385.947881 eV PBE+vdW (tier 2 basis)
C    0.913401  -0.525565  0.789740
C    0.107186  0.602542  1.351445
O    0.631857  1.645180  1.807183
H    1.647682  -0.127005  0.078947
H    0.311628  -1.299701  0.301820
H    1.481459  -0.994695  1.606450
N    -1.247432  0.471542  1.352977
C    -2.180351  1.347842  2.078215
C    -2.346976  2.712243  1.392036
O    -3.540757  3.160629  1.142005
H    -1.636477  -0.386031  0.972802
H    -3.155565  0.866077  1.945000
C    -1.916139  1.390185  3.635551
C    -1.610377  2.697913  4.390500
C    -0.184666  3.284894  4.351113
N    0.897740  2.338457  4.625809
C    1.602350  2.238394  5.766950
N    2.808318  1.656401  5.745426
N    1.115858  2.703835  6.924227
H    -1.122488  0.658518  3.834058
H    -2.814765  0.965690  4.099703
H    -1.871874  2.494401  5.439882
H    -2.297897  3.504598  4.087871
H    -0.121981  4.112429  5.070883
H    0.037912  3.724068  3.372705
H    1.263647  1.861586  3.801896
H    3.278560  1.384105  6.601872
H    3.332471  1.556712  4.883989
H    1.707946  2.787963  7.743364
H    0.133687  2.910277  7.048539
N    -1.274536  3.383430  1.062555
C    -1.242545  4.665142  0.364418
H    -0.378498  2.888490  1.317716
H    -0.202968  4.997409  0.296745
H    -1.817166  5.423662  0.911585
H    -1.634152  4.562326  -0.656956
Sr    -5.497946  3.874625  0.451690
