37
Energy: -108386.477642 eV PBE+vdW (tier 2 basis)
C    -0.357521  1.627738  0.636923
C    -0.396115  0.513557  1.637624
O    0.652224  0.042672  2.141078
H    -1.344062  1.958105  0.295616
H    0.223553  1.301173  -0.237341
H    0.180682  2.480080  1.072290
N    -1.618973  0.032788  1.980786
C    -1.951383  -1.138562  2.812476
C    -1.477726  -1.045259  4.271722
O    -2.304155  -1.390480  5.214286
H    -2.416376  0.492139  1.550882
H    -3.045367  -1.099924  2.893050
C    -1.648020  -2.532920  2.181957
C    -0.203781  -2.952616  1.831953
C    0.195760  -2.657403  0.373161
N    1.526994  -3.157352  0.030272
C    2.654550  -2.431042  -0.084132
N    2.721396  -1.179091  0.383123
N    3.722856  -2.978440  -0.678468
H    -2.282152  -2.602121  1.284826
H    -2.067897  -3.270495  2.882349
H    -0.135894  -4.040117  1.977614
H    0.530294  -2.512218  2.518740
H    0.163852  -1.587319  0.139191
H    -0.515818  -3.142274  -0.310071
H    1.599708  -4.140950  -0.210969
H    3.516460  -0.596133  0.148163
H    2.026576  -0.782241  1.019460
H    3.647712  -3.814434  -1.246774
H    4.637093  -2.543570  -0.627969
N    -0.258810  -0.656593  4.534555
C    0.324456  -0.523938  5.866682
H    0.304218  -0.398625  3.677209
H    1.356587  -0.179519  5.759887
H    0.332475  -1.490528  6.387498
H    -0.224556  0.219660  6.460256
Sr    -3.640931  -1.792270  6.905341
