37
Energy: -108386.839411 eV PBE+vdW (tier 2 basis)
C    0.388359  1.742353  -0.095969
C    0.193645  0.687644  0.936795
O    1.182830  0.107121  1.473223
H    1.036666  1.316347  -0.877648
H    0.940225  2.599406  0.315568
H    -0.540347  2.084469  -0.560655
N    -1.060044  0.302530  1.310989
C    -2.091615  1.254417  1.728539
C    -1.605863  1.890368  3.068999
O    -0.594447  1.390020  3.665795
H    -1.041557  -0.535260  1.895168
H    -2.150683  2.056662  0.977544
C    -3.464197  0.543230  1.830089
C    -3.974444  0.078962  0.451916
C    -5.168548  -0.891296  0.456310
N    -6.469278  -0.240121  0.653849
C    -7.640357  -0.681931  0.146138
N    -8.718508  0.109582  0.198070
N    -7.728849  -1.888696  -0.421238
H    -4.177844  1.224012  2.313927
H    -3.362162  -0.317714  2.511497
H    -3.159160  -0.452651  -0.059854
H    -4.213784  0.947420  -0.180782
H    -5.015308  -1.680226  1.211918
H    -5.199947  -1.377815  -0.527510
H    -6.537666  0.512794  1.329946
H    -9.648315  -0.256130  0.021200
H    -8.640089  1.110165  0.336278
H    -7.063535  -2.625777  -0.222189
H    -8.545532  -2.148534  -0.965072
N    -2.213355  2.952234  3.570897
C    -3.322016  3.741540  3.027303
H    -1.836822  3.273441  4.464532
H    -3.109298  4.802145  3.201205
H    -4.260809  3.487289  3.535874
H    -3.425953  3.585554  1.949879
Sr    1.527755  0.402731  3.757897
