37
Energy: -108387.352782 eV PBE+vdW (tier 2 basis)
C    -1.941657  1.635874  1.385922
C    -1.183656  0.793818  2.360362
O    -0.526616  -0.213691  1.962717
H    -1.254191  2.013451  0.616603
H    -2.464409  2.482736  1.842440
H    -2.673126  0.999671  0.866908
N    -1.228050  1.146323  3.659396
C    -0.677120  0.461085  4.852261
C    0.866884  0.388125  4.824854
O    1.479708  -0.393222  4.036108
H    -1.753626  1.994460  3.852691
H    -0.947695  1.128503  5.682473
C    -1.312491  -0.925512  5.121347
C    -2.830946  -0.891546  5.398260
C    -3.273083  -0.524682  6.831679
N    -3.267090  -1.636876  7.790329
C    -4.357028  -2.287103  8.253892
N    -4.271417  -2.981603  9.393263
N    -5.515405  -2.250240  7.586786
H    -0.770522  -1.384850  5.962740
H    -1.125370  -1.573468  4.254958
H    -3.246759  -1.877013  5.145545
H    -3.312260  -0.186093  4.704231
H    -4.288982  -0.109681  6.811225
H    -2.644769  0.271044  7.258956
H    -2.398624  -1.843040  8.271967
H    -3.536305  -2.811447  10.070454
H    -4.992918  -3.642630  9.662823
H    -6.375381  -2.574439  8.017284
H    -5.569970  -1.972752  6.615600
N    1.520937  1.151773  5.686629
C    2.979870  1.193226  5.835661
H    0.982517  1.785102  6.272421
H    3.217514  1.495150  6.860034
H    3.414713  1.922831  5.139921
H    3.398208  0.201904  5.639813
Sr    1.458111  -1.332187  1.936447
