37
Energy: -108387.202133 eV PBE+vdW (tier 2 basis)
C    0.885826  0.705560  0.580549
C    0.348571  -0.396823  1.433662
O    1.135647  -1.201638  2.014363
H    0.113713  1.352559  0.151632
H    1.474008  0.261344  -0.235819
H    1.580943  1.318584  1.170355
N    -0.988486  -0.498346  1.558759
C    -1.804489  -1.544000  2.218810
C    -1.515564  -1.618127  3.736253
O    -0.479241  -2.206169  4.175941
H    -1.520041  0.208579  1.057373
H    -2.833126  -1.181977  2.102719
C    -1.701462  -2.922894  1.527112
C    -2.785281  -3.933641  1.967889
C    -4.143925  -3.863846  1.244608
N    -4.132991  -4.565882  -0.044501
C    -5.183092  -5.208968  -0.598500
N    -4.977334  -6.034754  -1.630403
N    -6.419152  -5.041929  -0.116424
H    -0.708828  -3.349986  1.719533
H    -1.742219  -2.739956  0.442978
H    -2.983189  -3.822352  3.044933
H    -2.392016  -4.953832  1.859656
H    -4.467505  -2.817822  1.103472
H    -4.894318  -4.356193  1.877266
H    -3.288755  -4.528262  -0.606106
H    -5.748468  -6.367290  -2.200194
H    -4.059797  -6.408905  -1.842878
H    -7.177337  -5.648898  -0.411588
H    -6.677223  -4.228441  0.428064
N    -2.378309  -1.074596  4.583397
C    -3.614090  -0.327760  4.306763
H    -2.130219  -1.189550  5.567289
H    -4.384824  -0.978415  3.875281
H    -3.423847  0.528779  3.649994
H    -3.991742  0.056241  5.258698
Sr    1.801162  -2.357396  3.855066
