37
Energy: -108386.704274 eV PBE+vdW (tier 2 basis)
C    -1.929026  0.580277  3.260228
C    -2.190971  -0.385298  4.370279
O    -1.770208  -0.150738  5.541607
H    -2.841059  0.789449  2.689356
H    -1.179858  0.178416  2.559943
H    -1.540026  1.513206  3.678624
N    -2.886062  -1.534628  4.152369
C    -2.640059  -2.456343  3.033758
C    -1.124707  -2.847595  3.083564
O    -0.408552  -2.495267  4.073583
H    -3.133092  -2.004432  5.023080
H    -3.177750  -3.374433  3.321365
C    -3.244495  -2.004064  1.672464
C    -3.662862  -3.167653  0.742851
C    -4.872854  -2.899076  -0.167251
N    -4.594244  -1.947547  -1.251708
C    -5.552404  -1.400710  -2.038659
N    -5.199636  -0.527919  -2.988286
N    -6.841393  -1.695441  -1.849528
H    -2.571187  -1.310102  1.153135
H    -4.143183  -1.430223  1.938780
H    -3.954842  -4.039349  1.348439
H    -2.824323  -3.508348  0.111491
H    -5.698070  -2.496425  0.438444
H    -5.198742  -3.866519  -0.583633
H    -3.666971  -1.985342  -1.665629
H    -4.270466  -0.126335  -3.027984
H    -5.853406  -0.236649  -3.707625
H    -7.569108  -1.185304  -2.340344
H    -7.134351  -2.528829  -1.354047
N    -0.628826  -3.592247  2.111830
C    0.745327  -4.112480  2.076567
H    -1.251772  -3.872471  1.359900
H    0.921055  -4.782875  2.926374
H    1.465339  -3.286900  2.103540
H    0.878150  -4.672703  1.147519
Sr    0.070085  -1.441869  6.123413
