37
Energy: -108387.842445 eV PBE+vdW (tier 2 basis)
C    -1.946407  2.103219  0.541865
C    -1.967821  0.787345  1.243641
O    -2.631552  -0.189183  0.782140
H    -1.382834  2.876489  1.074065
H    -2.974461  2.452083  0.377297
H    -1.499731  1.958619  -0.453348
N    -1.254087  0.651499  2.376705
C    -1.027448  -0.608829  3.108785
C    -2.309489  -0.995297  3.889622
O    -3.217000  -1.642539  3.283945
H    -0.753747  1.475379  2.702746
H    -0.915451  -1.401968  2.353686
C    0.295494  -0.507532  3.897986
C    0.768330  -1.830373  4.532180
C    2.278550  -1.895685  4.834404
N    2.749234  -1.062435  5.950610
C    3.356511  -1.512884  7.072787
N    3.134681  -2.749778  7.528738
N    4.173519  -0.697477  7.747705
H    0.236099  0.295371  4.653430
H    1.049445  -0.174176  3.166950
H    0.574133  -2.653497  3.826735
H    0.194088  -2.062072  5.441358
H    2.851123  -1.610405  3.938751
H    2.558937  -2.934854  5.044698
H    2.904287  -0.078884  5.751555
H    3.721928  -3.152439  8.251731
H    2.360663  -3.313870  7.203318
H    4.597736  0.115076  7.313956
H    4.478024  -0.918325  8.690545
N    -2.439703  -0.622107  5.151540
C    -3.617783  -0.873036  5.989086
H    -1.684192  -0.082131  5.565077
H    -4.115614  -1.786299  5.652995
H    -4.316558  -0.028312  5.929300
H    -3.294475  -0.993362  7.027489
Sr    -4.131428  -1.862333  1.159929
