37
Energy: -108386.730302 eV PBE+vdW (tier 2 basis)
C    -2.167270  0.925941  -1.217908
C    -1.295407  1.065874  -0.019491
O    -0.484845  2.033150  0.090594
H    -1.508524  0.945468  -2.100632
H    -2.834797  1.792602  -1.324904
H    -2.747723  -0.000527  -1.239482
N    -1.325707  0.135342  0.978312
C    -2.570725  -0.279582  1.625126
C    -3.044576  0.923636  2.504466
O    -2.281285  1.940218  2.635371
H    -0.561640  0.273813  1.640539
H    -3.331580  -0.410644  0.841114
C    -2.423901  -1.641824  2.349627
C    -1.350858  -1.727105  3.448485
C    -1.392207  -3.020150  4.285559
N    -0.912235  -4.205038  3.565415
C    -0.378378  -5.300482  4.150973
N    0.189545  -6.240121  3.386932
N    -0.390643  -5.440833  5.480129
H    -3.400182  -1.909106  2.775912
H    -2.231422  -2.374646  1.551908
H    -1.490370  -0.905882  4.169303
H    -0.338055  -1.617321  3.030583
H    -2.416426  -3.186250  4.660936
H    -0.737078  -2.878474  5.155448
H    -1.162369  -4.309570  2.587650
H    0.459125  -6.058437  2.427167
H    0.413542  -7.157384  3.758784
H    0.154859  -6.169263  5.929951
H    -1.049916  -4.943931  6.066540
N    -4.239437  0.917041  3.071663
C    -5.329185  -0.060899  2.966744
H    -4.441395  1.744542  3.635444
H    -5.260156  -0.632735  2.036753
H    -5.327358  -0.741136  3.827740
H    -6.277736  0.486728  2.960773
Sr    -0.789951  3.556382  1.822514
