37
Energy: -108387.042242 eV PBE+vdW (tier 2 basis)
C    -0.635350  -1.887768  -0.243462
C    -0.499339  -0.694634  0.648432
O    0.052074  0.362380  0.219562
H    -1.355367  -1.635084  -1.037711
H    -0.986972  -2.789326  0.269226
H    0.318271  -2.099536  -0.742387
N    -0.981459  -0.801451  1.901596
C    -1.324740  0.210823  2.918952
C    -0.315826  1.350847  3.105723
O    0.901263  1.266603  2.751158
H    -1.418671  -1.700809  2.090478
H    -2.269019  0.681079  2.598383
C    -1.626475  -0.526521  4.258947
C    -0.418813  -1.184384  4.947742
C    -0.769880  -2.224114  6.024704
N    -1.352019  -1.632912  7.238198
C    -2.005629  -2.338453  8.191886
N    -2.534550  -1.692318  9.236367
N    -2.156959  -3.661347  8.081513
H    -2.392924  -1.284468  4.027727
H    -2.125615  0.180547  4.933488
H    0.251166  -0.420626  5.374375
H    0.190852  -1.722415  4.206592
H    0.148069  -2.779745  6.276106
H    -1.497346  -2.941920  5.617699
H    -0.952728  -0.752275  7.550654
H    -2.867847  -2.192762  10.053816
H    -2.639681  -0.684858  9.245256
H    -2.769921  -4.168686  8.712027
H    -1.549914  -4.222602  7.496718
N    -0.752994  2.465999  3.690129
C    -2.097766  2.849827  4.135307
H    -0.016908  3.148621  3.871785
H    -2.186250  3.937896  4.052831
H    -2.264240  2.568310  5.182662
H    -2.870436  2.397953  3.505400
Sr    1.929301  1.561842  0.682220
