37
Energy: -108386.059236 eV PBE+vdW (tier 2 basis)
C    -0.556759  0.754101  0.730383
C    -0.081355  0.051959  1.956548
O    1.190368  0.129851  2.220317
H    -1.618386  0.631980  0.527382
H    0.000358  0.392502  -0.141265
H    -0.347975  1.828134  0.858926
N    -0.868597  -0.466350  2.908782
C    -2.091659  -1.264992  2.692850
C    -1.644634  -2.399201  1.701870
O    -0.789052  -2.106414  0.858770
H    -0.338983  -0.761504  3.728527
H    -2.329303  -1.669956  3.684984
C    -3.315515  -0.465499  2.172230
C    -4.680656  -1.172305  2.295503
C    -5.389174  -1.134509  3.657353
N    -6.073417  0.151584  3.861999
C    -6.777520  0.486672  4.962337
N    -7.335246  1.700088  5.046795
N    -6.887526  -0.370008  5.984405
H    -3.173966  -0.246619  1.107934
H    -3.332276  0.501074  2.697609
H    -4.595126  -2.220975  1.988154
H    -5.356917  -0.735172  1.544728
H    -4.682119  -1.289182  4.487926
H    -6.123642  -1.956080  3.683178
H    -6.267584  0.695863  3.026485
H    -8.018942  1.919049  5.763186
H    -7.134778  2.427861  4.371261
H    -6.721854  -1.361372  5.863488
H    -7.330778  -0.088987  6.852649
N    -2.196798  -3.621909  1.779999
C    -3.060101  -4.223998  2.792431
H    -1.870344  -4.248382  1.043991
H    -4.049615  -4.460435  2.379167
H    -3.180645  -3.560544  3.653725
H    -2.606439  -5.157083  3.148394
Sr    3.347756  0.174546  1.889602
