37
Energy: -108386.297298 eV PBE+vdW (tier 2 basis)
C    1.603234  0.812073  0.424500
C    0.965086  0.746063  1.779142
O    1.554474  1.131154  2.803624
H    1.826606  1.861407  0.188718
H    0.995060  0.385530  -0.380618
H    2.571072  0.295100  0.467952
N    -0.314557  0.251920  1.847132
C    -1.053397  -0.056034  3.078999
C    -1.403130  1.210692  3.890202
O    -2.628463  1.444748  4.258783
H    -0.781396  0.043844  0.971134
H    -2.013350  -0.473880  2.749963
C    -0.339183  -1.076970  4.017148
C    0.221952  -2.362641  3.384423
C    -0.811646  -3.407608  2.921373
N    -0.276615  -4.775462  2.890547
C    0.121823  -5.479341  1.816414
N    0.389087  -4.865033  0.653648
N    0.232814  -6.808674  1.903258
H    -1.051674  -1.337608  4.816139
H    0.501134  -0.570555  4.507234
H    0.847805  -2.827919  4.159570
H    0.913124  -2.111139  2.566179
H    -1.227157  -3.182166  1.929655
H    -1.662807  -3.429478  3.617733
H    -0.246746  -5.268411  3.778237
H    0.533182  -5.405882  -0.192275
H    0.680805  -3.897101  0.630803
H    -0.201234  -7.333365  2.654773
H    0.758830  -7.341451  1.218461
N    -0.426669  2.014872  4.215349
C    -0.578020  3.242685  4.980945
H    0.525527  1.728278  3.799300
H    0.404132  3.711747  5.092453
H    -0.965269  3.031929  5.989451
H    -1.230821  3.958614  4.456849
Sr    -4.394735  2.456167  5.061624
