37
Energy: -108386.404591 eV PBE+vdW (tier 2 basis)
C    0.042914  -0.066991  -0.152033
C    -0.079173  0.495041  1.228561
O    0.674133  1.495194  1.577227
H    -0.159432  0.718397  -0.893911
H    -0.643682  -0.899904  -0.334453
H    1.068124  -0.429604  -0.314813
N    -0.947995  -0.044924  2.055994
C    -1.208362  0.250329  3.469120
C    -1.579784  -1.127079  4.074919
O    -2.130782  -1.958094  3.326465
H    -1.446041  -0.898597  1.763222
H    -0.280670  0.640448  3.907824
C    -2.344465  1.296773  3.684430
C    -3.815349  0.843079  3.780553
C    -4.566225  0.384974  2.509205
N    -4.637501  -1.071617  2.371791
C    -5.715319  -1.772337  1.988775
N    -5.740932  -3.097453  2.194618
N    -6.766531  -1.178161  1.408453
H    -2.240305  2.069987  2.907743
H    -2.114459  1.798843  4.635132
H    -4.354575  1.721010  4.161921
H    -3.936041  0.081600  4.565204
H    -4.120419  0.834316  1.606051
H    -5.594276  0.763119  2.576572
H    -3.810071  -1.599049  2.675731
H    -6.436395  -3.688533  1.754049
H    -5.076919  -3.546711  2.813072
H    -7.640064  -1.675320  1.275424
H    -6.706823  -0.247812  1.016520
N    -1.321697  -1.314246  5.368273
C    -1.660848  -2.534228  6.107036
H    -0.863244  -0.569748  5.885770
H    -1.887698  -3.328497  5.391531
H    -2.527976  -2.361730  6.756919
H    -0.806249  -2.832723  6.723384
Sr    2.286746  2.990473  1.426432
