37
Energy: -108387.332531 eV PBE+vdW (tier 2 basis)
C    0.281221  0.788959  0.971961
C    -0.002156  -0.544188  1.586492
O    0.882488  -1.450987  1.585947
H    -0.554943  1.493350  1.031797
H    0.550639  0.639799  -0.083540
H    1.159111  1.236123  1.458377
N    -1.218563  -0.732876  2.132132
C    -1.839223  -1.949417  2.705180
C    -1.091657  -2.470215  3.948900
O    0.053407  -3.014235  3.852176
H    -1.831970  0.076575  2.089258
H    -2.819537  -1.597773  3.048178
C    -2.100791  -3.075995  1.672476
C    -3.092387  -2.634466  0.579617
C    -3.405984  -3.665690  -0.519848
N    -4.401898  -4.668625  -0.124188
C    -5.315328  -5.226857  -0.948163
N    -6.318829  -5.941727  -0.425808
N    -5.237894  -5.060049  -2.272029
H    -2.484621  -3.941153  2.236320
H    -1.152001  -3.396096  1.218278
H    -2.678224  -1.757933  0.060619
H    -4.039300  -2.301473  1.032430
H    -2.480933  -4.158027  -0.863192
H    -3.824124  -3.118618  -1.374684
H    -4.336270  -5.076863  0.802161
H    -6.894434  -6.542679  -1.006575
H    -6.587534  -5.854338  0.547187
H    -6.014853  -5.314183  -2.873787
H    -4.370713  -4.811876  -2.732205
N    -1.679389  -2.379109  5.132966
C    -2.972188  -1.779373  5.497739
H    -1.142195  -2.790745  5.897807
H    -3.036473  -0.737860  5.162610
H    -3.045032  -1.785331  6.589007
H    -3.809654  -2.364370  5.098255
Sr    2.094237  -2.945680  2.808144
