37
Energy: -108388.136724 eV PBE+vdW (tier 2 basis)
C    2.267423  2.146395  3.214147
C    1.256971  2.010262  2.123558
O    1.565395  1.486098  1.011891
H    1.877282  2.622916  4.119460
H    3.128296  2.722624  2.848753
H    2.645339  1.145552  3.468524
N    0.005699  2.450979  2.352593
C    -1.149147  2.305387  1.448362
C    -1.033821  3.317569  0.275803
O    -0.265780  3.032006  -0.693908
H    -0.160966  2.904097  3.248027
H    -1.056796  1.319196  0.967636
C    -2.472292  2.353357  2.237092
C    -2.717335  1.135526  3.150086
C    -4.096955  1.209797  3.826671
N    -4.342996  0.023397  4.651091
C    -5.243916  -0.060738  5.653347
N    -5.251417  -1.143220  6.438126
N    -6.103887  0.937324  5.884294
H    -3.290028  2.416155  1.503595
H    -2.517533  3.277946  2.839356
H    -1.940263  1.057998  3.924740
H    -2.659362  0.217457  2.543322
H    -4.881045  1.312231  3.057060
H    -4.145186  2.093549  4.479978
H    -3.947883  -0.856414  4.332775
H    -6.030578  -1.340784  7.057317
H    -4.475648  -1.795172  6.458100
H    -6.672048  0.947588  6.725266
H    -6.351469  1.605330  5.164890
N    -1.721962  4.444527  0.312119
C    -1.699291  5.486156  -0.721564
H    -2.313227  4.616230  1.121190
H    -1.410010  5.044008  -1.677949
H    -0.988141  6.276386  -0.448039
H    -2.700644  5.920133  -0.805701
Sr    1.591216  1.786148  -1.258007
