37
Energy: -108386.844513 eV PBE+vdW (tier 2 basis)
C    -0.267702  0.460464  -0.168986
C    0.304033  1.106284  1.045472
O    1.284759  1.903456  0.960741
H    0.564317  -0.042680  -0.686664
H    -0.649858  1.210215  -0.875851
H    -1.042028  -0.281595  0.044543
N    -0.196155  0.823490  2.283407
C    -1.626275  0.930644  2.576807
C    -1.920295  2.453554  2.805109
O    -1.044930  3.321131  2.486571
H    0.401941  1.193682  3.023219
H    -2.167068  0.676416  1.651694
C    -2.110582  -0.056440  3.663178
C    -1.439920  0.052818  5.040918
C    -2.042234  -0.858803  6.124378
N    -1.758218  -2.281736  5.895389
C    -2.404161  -3.301025  6.508218
N    -3.354934  -3.059954  7.416289
N    -2.108416  -4.560377  6.169827
H    -1.970293  -1.063396  3.245230
H    -3.201766  0.052294  3.771075
H    -1.528040  1.079134  5.429722
H    -0.359216  -0.152371  4.967163
H    -3.134559  -0.731022  6.149658
H    -1.642577  -0.541901  7.101233
H    -0.842459  -2.511052  5.519149
H    -3.940344  -3.811760  7.766689
H    -3.404294  -2.181431  7.917862
H    -1.569633  -4.779391  5.340150
H    -2.422289  -5.345627  6.730760
N    -3.101022  2.806294  3.278072
C    -3.551895  4.192858  3.459863
H    -3.772555  2.070340  3.480002
H    -4.494147  4.179985  4.013796
H    -3.716701  4.672540  2.486971
H    -2.807152  4.759283  4.028916
Sr    0.926280  4.133303  1.509838
