37
Energy: -108387.944568 eV PBE+vdW (tier 2 basis)
C    -1.164890  0.607700  0.588474
C    -0.555813  0.392554  1.934107
O    0.561384  0.909102  2.233537
H    -0.459276  0.293533  -0.192180
H    -1.327749  1.686562  0.448616
H    -2.114905  0.082304  0.445889
N    -1.228875  -0.355628  2.829238
C    -0.856442  -0.564657  4.239219
C    0.306410  -1.588869  4.337730
O    1.483583  -1.184444  4.088713
H    -2.097262  -0.776622  2.508737
H    -0.412050  0.379692  4.590454
C    -2.100340  -0.857262  5.104455
C    -3.054165  0.352249  5.218987
C    -4.065114  0.307288  6.379028
N    -5.234798  -0.543544  6.129897
C    -6.454068  -0.355765  6.683073
N    -7.493610  -1.069958  6.235995
N    -6.634062  0.545815  7.652526
H    -1.740296  -1.122730  6.109970
H    -2.632693  -1.742748  4.714143
H    -3.592602  0.533054  4.277137
H    -2.445879  1.251873  5.397022
H    -4.437309  1.329759  6.527307
H    -3.555840  0.000884  7.308501
H    -5.098486  -1.431916  5.659821
H    -8.367665  -1.105453  6.750323
H    -7.473824  -1.537910  5.337559
H    -7.568104  0.818372  7.941988
H    -5.867778  0.882009  8.223084
N    0.052491  -2.841853  4.670461
C    1.051504  -3.909165  4.796731
H    -0.913950  -3.098646  4.853151
H    2.042183  -3.466616  4.922240
H    1.039985  -4.544541  3.901706
H    0.808442  -4.519942  5.672459
Sr    2.671861  0.476521  3.008901
