37
Energy: -108387.584678 eV PBE+vdW (tier 2 basis)
C    0.651859  -1.322778  1.105566
C    0.276565  -0.397271  2.213951
O    1.065292  0.517992  2.594397
H    -0.090658  -2.104409  0.914125
H    1.620990  -1.789931  1.324887
H    0.788728  -0.729627  0.188940
N    -0.929195  -0.547304  2.796041
C    -1.524565  0.370772  3.781536
C    -0.882498  0.153515  5.176705
O    0.228505  0.718555  5.415317
H    -1.504199  -1.312668  2.454578
H    -1.180241  1.378501  3.504554
C    -3.069409  0.413548  3.652902
C    -3.902738  -0.877645  3.813074
C    -5.278581  -0.819480  3.111613
N    -6.264135  0.075767  3.730346
C    -7.494052  -0.280636  4.171446
N    -8.460933  0.640431  4.223483
N    -7.750158  -1.529717  4.572676
H    -3.251773  0.819159  2.645116
H    -3.424907  1.181832  4.354881
H    -4.069175  -1.126406  4.873394
H    -3.388906  -1.746375  3.370456
H    -5.709538  -1.826713  3.071192
H    -5.144990  -0.508088  2.063961
H    -6.146992  1.070320  3.561282
H    -8.415537  1.497433  3.683219
H    -9.318406  0.476456  4.741759
H    -8.703218  -1.840936  4.730434
H    -7.014935  -2.186748  4.798542
N    -1.480823  -0.603567  6.080090
C    -0.958686  -0.882768  7.422807
H    -2.356410  -1.046779  5.819602
H    -1.801680  -1.036988  8.103004
H    -0.363746  -0.032936  7.767410
H    -0.336527  -1.787250  7.411643
Sr    2.108669  1.549743  4.345073
