37
Energy: -108387.368598 eV PBE+vdW (tier 2 basis)
C    -1.685065  0.986856  0.809889
C    -1.053234  0.313572  1.984268
O    -0.338360  -0.720606  1.824089
H    -0.909791  1.251943  0.078252
H    -2.256466  1.884709  1.066976
H    -2.353185  0.268086  0.313099
N    -1.271048  0.842770  3.202327
C    -0.897136  0.334403  4.543436
C    0.638641  0.260648  4.728103
O    1.328337  -0.652092  4.182522
H    -1.842027  1.684102  3.207364
H    -1.263901  1.113412  5.226474
C    -1.608751  -0.991346  4.903514
C    -1.554047  -1.358008  6.404210
C    -2.625500  -0.732095  7.316987
N    -3.903628  -1.451817  7.261402
C    -4.791334  -1.554491  8.273541
N    -5.784278  -2.446942  8.188499
N    -4.678393  -0.787009  9.362534
H    -1.164590  -1.805700  4.316261
H    -2.647116  -0.902891  4.550928
H    -0.572500  -1.084187  6.819777
H    -1.608980  -2.450362  6.509755
H    -2.780187  0.334250  7.076263
H    -2.265254  -0.784524  8.353123
H    -4.186540  -1.864534  6.378753
H    -5.750934  -3.225719  7.540861
H    -6.576906  -2.414122  8.821335
H    -5.232330  -0.977601  10.191479
H    -4.158142  0.081431  9.356382
N    1.194113  1.180170  5.503317
C    2.624993  1.274357  5.811254
H    0.595115  1.906473  5.888131
H    2.741095  1.705916  6.810149
H    3.130239  1.923447  5.083883
H    3.071494  0.276657  5.789455
Sr    1.591595  -1.848158  2.225408
