37
Energy: -108387.942483 eV PBE+vdW (tier 2 basis)
C    -1.756773  -3.543457  1.990033
C    -2.695512  -2.397130  2.163357
O    -3.877353  -2.445356  1.707415
H    -0.753928  -3.355100  2.387095
H    -1.681580  -3.801991  0.925383
H    -2.182438  -4.421885  2.497680
N    -2.264301  -1.309070  2.828430
C    -3.090166  -0.150334  3.215908
C    -3.378416  0.722745  1.965121
O    -4.366812  0.419618  1.229638
H    -1.298458  -1.321929  3.148792
H    -4.075254  -0.542076  3.512188
C    -2.451739  0.553534  4.432702
C    -3.355095  1.619384  5.081460
C    -2.705155  2.450156  6.202715
N    -2.597772  1.739107  7.481819
C    -2.571553  2.332528  8.695560
N    -2.688896  1.580436  9.795873
N    -2.450937  3.658984  8.805267
H    -1.479009  0.996702  4.155576
H    -2.213888  -0.242542  5.155665
H    -4.277380  1.155820  5.463029
H    -3.673254  2.346223  4.319398
H    -3.338801  3.330772  6.373306
H    -1.713853  2.811061  5.878777
H    -2.377571  0.749019  7.470534
H    -2.470920  1.953403  10.714091
H    -3.059480  0.637973  9.762343
H    -2.607833  4.123183  9.694283
H    -2.062589  4.226175  8.061584
N    -2.579705  1.736606  1.679497
C    -2.707292  2.610207  0.507225
H    -1.791268  1.908477  2.297979
H    -2.106341  2.221899  -0.325539
H    -2.345135  3.608530  0.770892
H    -3.757081  2.668964  0.208157
Sr    -5.524457  -1.445632  0.484766
