37
Energy: -108387.937909 eV PBE+vdW (tier 2 basis)
C    -1.967021  0.868307  1.216131
C    -1.122721  0.304971  2.313961
O    -0.351431  -0.675628  2.090343
H    -2.614302  1.692959  1.532133
H    -2.586340  0.062791  0.797127
H    -1.317838  1.219743  0.401888
N    -1.212731  0.878355  3.527964
C    -0.585509  0.497261  4.814578
C    0.957415  0.574705  4.780871
O    1.655521  -0.253409  4.120236
H    -1.841497  1.675564  3.577378
H    -0.921492  1.281784  5.506747
C    -1.082796  -0.854498  5.382955
C    -2.551314  -0.810072  5.845263
C    -3.008996  -2.142894  6.469197
N    -4.429433  -2.153285  6.834189
C    -4.954880  -2.296767  8.068858
N    -6.213750  -2.727110  8.197351
N    -4.238944  -2.012948  9.163971
H    -0.431623  -1.109955  6.233567
H    -0.940784  -1.646168  4.632919
H    -3.206920  -0.573357  4.993181
H    -2.688358  0.000384  6.578278
H    -2.419591  -2.386423  7.362868
H    -2.843714  -2.969453  5.761430
H    -5.093623  -2.223440  6.068717
H    -6.695809  -3.207682  7.445592
H    -6.720522  -2.623868  9.070647
H    -4.568438  -2.285828  10.083920
H    -3.425691  -1.413016  9.130671
N    1.520427  1.520617  5.516729
C    2.964520  1.727078  5.668099
H    0.912481  2.175684  6.002359
H    3.328892  2.438169  4.915129
H    3.485400  0.772274  5.558086
H    3.156344  2.136672  6.664642
Sr    1.764066  -1.516518  2.210028
