37
Energy: -108386.492084 eV PBE+vdW (tier 2 basis)
C    -0.080334  -0.562802  -0.082342
C    -0.147016  -0.189367  1.357693
O    0.981295  -0.112112  2.004188
H    -1.051831  -0.629831  -0.567527
H    0.415560  -1.535247  -0.183958
H    0.527705  0.194779  -0.601159
N    -1.240107  0.221207  1.998551
C    -2.639377  -0.195686  1.784331
C    -2.632969  -1.755715  1.946452
O    -1.637133  -2.364661  1.547507
H    -1.050301  0.533150  2.950229
H    -3.187641  0.292773  2.599578
C    -3.266832  0.264351  0.441201
C    -4.795924  0.427025  0.491310
C    -5.344696  0.983551  -0.831475
N    -6.795422  1.182948  -0.749112
C    -7.643465  1.236592  -1.794079
N    -8.963126  1.246285  -1.571580
N    -7.180596  1.253094  -3.049565
H    -3.012332  -0.448251  -0.354969
H    -2.808680  1.228972  0.176310
H    -5.066227  1.112221  1.311561
H    -5.282366  -0.536685  0.694243
H    -5.144365  0.271293  -1.645232
H    -4.842449  1.934435  -1.077118
H    -7.174615  1.461756  0.150861
H    -9.619964  1.496148  -2.302790
H    -9.354204  0.994932  -0.671321
H    -6.234163  1.541139  -3.263097
H    -7.809399  1.133126  -3.836401
N    -3.702718  -2.372786  2.480503
C    -4.879245  -1.841600  3.162280
H    -3.606882  -3.388210  2.480143
H    -5.792260  -2.033067  2.583251
H    -4.787895  -0.765427  3.334013
H    -4.984265  -2.329227  4.139008
Sr    3.014352  -0.467430  2.706613
