37
Energy: -108386.520078 eV PBE+vdW (tier 2 basis)
C    -0.550135  -2.249729  0.128923
C    -0.562020  -2.022159  1.602933
O    0.342746  -2.614809  2.320859
H    0.391798  -1.881604  -0.295046
H    -1.371080  -1.763827  -0.402661
H    -0.615716  -3.332977  -0.051870
N    -1.547114  -1.378829  2.227317
C    -2.304514  -0.282747  1.619453
C    -1.222397  0.794138  1.206076
O    -0.035729  0.460416  1.192134
H    -1.442680  -1.332248  3.241348
H    -2.748054  -0.655436  0.684306
C    -3.450014  0.181936  2.555829
C    -4.753893  0.534422  1.813557
C    -5.974768  0.767109  2.723680
N    -6.036258  2.076792  3.386964
C    -6.944291  3.044302  3.142593
N    -7.170360  3.982885  4.069842
N    -7.607388  3.092770  1.982050
H    -3.102869  1.020070  3.179216
H    -3.677551  -0.649193  3.240711
H    -5.014584  -0.306180  1.152346
H    -4.626389  1.408193  1.154428
H    -6.015820  -0.003479  3.507693
H    -6.895945  0.641460  2.141404
H    -5.495867  2.192065  4.238226
H    -7.688290  4.827018  3.849779
H    -6.926012  3.840241  5.043157
H    -8.422668  3.685964  1.870770
H    -7.326122  2.547484  1.177927
N    -1.681105  2.000630  0.844978
C    -0.813523  3.085179  0.378547
H    -2.677269  2.181022  0.884100
H    -0.630054  3.812102  1.179880
H    -1.287989  3.591466  -0.468648
H    0.140800  2.658755  0.058744
Sr    2.267366  -3.449318  2.915472
