31
Energy: -16703.1039069 eV PBE+vdW (tier 2 basis)
C    0.480050  -1.526643  0.411711
C    0.095491  -0.937400  1.752499
O    0.930202  -0.405929  2.495046
H    0.928337  -0.735750  -0.202603
H    -0.362396  -1.967587  -0.135025
H    1.248269  -2.293951  0.567983
N    -1.222135  -1.022195  2.086407
C    -1.765267  -0.463295  3.325172
C    -1.602141  -1.480030  4.488710
O    -2.542431  -2.130235  4.940877
H    -1.849885  -1.543985  1.485181
H    -1.134671  0.406860  3.557936
C    -3.220405  -0.039188  3.149641
C    -3.478987  1.014910  2.058548
C    -4.982290  1.300684  1.960963
C    -2.687039  2.308068  2.287589
H    -3.569754  0.345695  4.120363
H    -3.831302  -0.936599  2.962863
H    -3.156872  0.596083  1.088738
H    -5.201963  2.007544  1.149030
H    -5.360056  1.740936  2.896205
H    -5.555883  0.382245  1.772806
H    -2.933124  3.058025  1.523335
H    -1.601610  2.144725  2.247037
H    -2.924317  2.745570  3.269548
N    -0.318002  -1.565689  4.930150
C    0.099416  -2.524824  5.933332
H    0.385501  -1.056737  4.390227
H    -0.799605  -2.939776  6.401180
H    0.714474  -2.037697  6.701482
H    0.678392  -3.349833  5.491069
