31
Energy: -16702.8739979 eV PBE+vdW (tier 2 basis)
C    -0.918752  -0.120105  0.330883
C    -0.443630  0.412775  1.669192
O    0.470604  1.246097  1.722927
H    -1.806418  -0.761279  0.391076
H    -0.099781  -0.694557  -0.122133
H    -1.128728  0.727489  -0.331743
N    -1.087369  -0.096308  2.754398
C    -0.846504  0.070662  4.204284
C    -0.819410  1.505661  4.793382
O    -1.239550  1.660043  5.942977
H    -1.826563  -0.754399  2.539891
H    -1.756978  -0.335735  4.663755
C    0.318492  -0.770914  4.775301
C    1.758826  -0.452121  4.311727
C    2.736201  -0.602045  5.484993
C    2.196279  -1.337687  3.137868
H    0.099534  -1.834585  4.584752
H    0.242480  -0.635571  5.864478
H    1.796128  0.595735  3.977699
H    2.716382  -1.626489  5.888354
H    2.483290  0.084773  6.304346
H    3.768307  -0.390562  5.171963
H    3.198611  -1.058371  2.785376
H    1.516683  -1.260466  2.280892
H    2.232881  -2.394824  3.444129
N    -0.310635  2.499330  4.036515
C    -0.206221  3.853049  4.547119
H    0.112161  2.243119  3.133357
H    0.587881  3.945397  5.303936
H    -1.149674  4.155604  5.018315
H    0.016474  4.528285  3.713993
