31
Energy: -16702.3055835 eV PBE+vdW (tier 2 basis)
C    -0.239278  0.165076  -0.510905
C    0.027694  -0.273471  0.913965
O    1.130542  -0.697170  1.252046
H    0.726654  0.306541  -1.003072
H    -0.823460  1.089575  -0.579112
H    -0.781296  -0.631091  -1.039861
N    -0.984167  -0.193964  1.845005
C    -2.425797  0.091926  1.741822
C    -3.153288  -1.182496  1.222286
O    -3.313047  -2.099487  2.028811
H    -0.708441  -0.646710  2.712416
H    -2.747119  0.087868  2.792698
C    -2.769914  1.500236  1.217477
C    -4.017847  2.120505  1.878095
C    -4.180349  3.575910  1.425580
C    -5.309259  1.328871  1.635952
H    -2.881411  1.539602  0.127385
H    -1.907496  2.139910  1.457941
H    -3.830603  2.125685  2.966909
H    -3.279754  4.168385  1.638496
H    -5.027012  4.057241  1.933754
H    -4.369575  3.634010  0.342676
H    -6.152192  1.798781  2.160806
H    -5.244857  0.291839  1.990892
H    -5.566714  1.306266  0.566404
N    -3.540966  -1.365349  -0.080396
C    -3.707490  -0.461169  -1.208823
H    -3.970012  -2.281363  -0.182919
H    -3.922667  -1.071165  -2.093410
H    -2.797920  0.107524  -1.423057
H    -4.541548  0.242867  -1.072035
