31
Energy: -16702.6227662 eV PBE+vdW (tier 2 basis)
C    0.048915  0.525027  1.092234
C    -0.493047  -0.506118  2.058852
O    0.234923  -1.328204  2.613654
H    1.135225  0.555019  1.210526
H    -0.370843  1.526128  1.243135
H    -0.183594  0.232421  0.058337
N    -1.850246  -0.542876  2.286714
C    -2.916496  0.373331  1.875312
C    -2.951388  0.580992  0.339651
O    -2.884644  1.695878  -0.171763
H    -2.098162  -1.264159  2.957366
H    -3.847933  -0.164160  2.118092
C    -2.954862  1.724670  2.604506
C    -3.073098  1.695925  4.144786
C    -4.216586  0.803652  4.645249
C    -1.757039  1.382033  4.872653
H    -3.816404  2.270332  2.192434
H    -2.077296  2.320385  2.317652
H    -3.337772  2.731932  4.417146
H    -4.379121  0.946190  5.722282
H    -4.000947  -0.266134  4.498763
H    -5.164087  1.028841  4.134295
H    -1.451230  0.333819  4.763836
H    -1.856657  1.584147  5.948445
H    -0.934240  2.003873  4.493315
N    -3.073503  -0.541964  -0.431806
C    -3.216548  -1.930527  -0.026000
H    -3.070614  -0.336067  -1.425750
H    -2.259633  -2.389170  0.260892
H    -3.912968  -2.031092  0.817320
H    -3.638190  -2.494579  -0.865736
