31
Energy: -16702.632608 eV PBE+vdW (tier 2 basis)
C    0.129167  -0.144871  0.677303
C    -0.133322  -0.129969  2.167776
O    0.779240  -0.105782  2.992336
H    -0.529068  0.526014  0.113495
H    -0.023823  -1.156898  0.276301
H    1.173199  0.138102  0.519743
N    -1.438492  -0.179347  2.604876
C    -2.699051  -0.107679  1.862295
C    -2.777720  -1.163817  0.730710
O    -2.997033  -0.853192  -0.437274
H    -1.498055  -0.149586  3.618205
H    -3.466520  -0.403440  2.598568
C    -3.092494  1.282880  1.343541
C    -3.223098  2.377939  2.423370
C    -1.888899  3.064183  2.750812
C    -4.258499  3.423184  1.986473
H    -4.055215  1.155143  0.828352
H    -2.390510  1.606870  0.561271
H    -3.601314  1.904750  3.349007
H    -2.026574  3.837805  3.519202
H    -1.483317  3.558999  1.855169
H    -1.126793  2.366030  3.115144
H    -4.369550  4.213893  2.741469
H    -5.245966  2.969891  1.822433
H    -3.953218  3.905209  1.045292
N    -2.606250  -2.471780  1.092398
C    -2.389052  -3.045623  2.410427
H    -2.654763  -3.105865  0.301218
H    -2.652161  -4.108815  2.372287
H    -3.036529  -2.575913  3.162957
H    -1.346598  -2.953220  2.746792
