31
Energy: -16702.9252816 eV PBE+vdW (tier 2 basis)
C    0.038344  0.161449  -0.102068
C    0.316127  0.596027  1.323911
O    1.453596  0.691726  1.776998
H    -0.447230  -0.825377  -0.122176
H    0.994221  0.091778  -0.627168
H    -0.621325  0.863928  -0.629258
N    -0.777189  0.897083  2.107198
C    -2.188037  0.709630  1.792247
C    -2.876082  1.960840  1.189907
O    -4.040523  1.899971  0.800565
H    -0.533590  1.084907  3.076809
H    -2.275036  -0.049743  1.002413
C    -2.985805  0.227429  3.016516
C    -2.831591  -1.254848  3.422622
C    -3.245342  -2.209656  2.295710
C    -1.450465  -1.624378  3.981197
H    -4.043092  0.416569  2.785772
H    -2.734769  0.874705  3.874937
H    -3.556273  -1.391867  4.243703
H    -2.521347  -2.200913  1.466778
H    -4.229279  -1.948163  1.882596
H    -3.295689  -3.244116  2.661556
H    -1.466304  -2.638572  4.403834
H    -1.139314  -0.939975  4.783823
H    -0.670896  -1.607368  3.207542
N    -2.104195  3.076920  1.126666
C    -2.578181  4.330836  0.576728
H    -1.151152  2.995514  1.465409
H    -2.535016  5.133841  1.325515
H    -3.619415  4.185302  0.269055
H    -1.985149  4.631519  -0.298335
