31
Energy: -16702.3938086 eV PBE+vdW (tier 2 basis)
C    0.234929  0.704763  0.138660
C    0.148742  0.152237  1.542600
O    1.170550  -0.016384  2.207461
H    0.880298  0.027646  -0.433549
H    -0.713465  0.788465  -0.390563
H    0.740315  1.678102  0.187261
N    -1.063443  -0.177379  2.119662
C    -2.468237  -0.107519  1.730281
C    -2.786930  -0.948056  0.470106
O    -1.929659  -1.302659  -0.332505
H    -0.898639  -0.549870  3.050150
H    -2.979265  -0.638514  2.549690
C    -3.082139  1.321392  1.782767
C    -2.731696  2.377963  0.721940
C    -3.266741  2.036745  -0.674161
C    -3.271765  3.738739  1.184006
H    -2.794494  1.715819  2.769600
H    -4.179383  1.224438  1.811959
H    -1.636902  2.466081  0.665111
H    -4.359988  1.905805  -0.652495
H    -2.829335  1.119106  -1.085753
H    -3.046750  2.848219  -1.381254
H    -2.858862  4.025833  2.161008
H    -3.014665  4.528997  0.465698
H    -4.368848  3.720116  1.276692
N    -4.093153  -1.325550  0.293124
C    -5.265447  -1.086369  1.114269
H    -4.223296  -1.849340  -0.567051
H    -5.751005  -0.122100  0.896102
H    -5.017869  -1.113920  2.183062
H    -5.993989  -1.884517  0.929465
