31
Energy: -16702.6592641 eV PBE+vdW (tier 2 basis)
C    0.958103  1.055047  0.343370
C    0.325037  0.400432  1.559402
O    0.872455  0.381892  2.657572
H    1.075906  2.127694  0.543384
H    0.381354  0.929200  -0.581922
H    1.962377  0.638337  0.200127
N    -0.902452  -0.168056  1.344370
C    -1.684857  -0.768298  2.413009
C    -1.226715  -2.163021  2.900634
O    -1.422725  -2.465582  4.074956
H    -1.320576  -0.087562  0.425906
H    -1.535963  -0.154944  3.312317
C    -3.182257  -0.818700  2.051676
C    -3.991902  0.486814  2.222888
C    -4.023416  0.954752  3.683172
C    -3.562732  1.625504  1.287853
H    -3.642113  -1.583505  2.693300
H    -3.289697  -1.185862  1.015277
H    -5.024754  0.213106  1.945669
H    -4.724111  1.791694  3.807048
H    -3.037460  1.304575  4.021071
H    -4.336055  0.147030  4.358646
H    -2.567080  2.011710  1.546026
H    -4.267006  2.466020  1.357613
H    -3.540911  1.304319  0.235392
N    -0.656056  -3.056742  2.036457
C    -0.440604  -2.995497  0.600674
H    -0.395848  -3.917235  2.507982
H    0.423468  -2.374170  0.324749
H    -1.325976  -2.623211  0.068745
H    -0.255880  -4.015112  0.242488
