31
Energy: -16702.6860186 eV PBE+vdW (tier 2 basis)
C    0.353616  0.504683  0.769295
C    0.137901  -0.163220  2.116031
O    1.082049  -0.473364  2.839625
H    1.409885  0.777733  0.702852
H    -0.259830  1.403571  0.627820
H    0.117754  -0.190357  -0.048319
N    -1.150972  -0.436122  2.503658
C    -2.409669  -0.227177  1.789231
C    -3.382854  0.418755  2.804700
O    -4.155100  -0.262547  3.475397
H    -1.207378  -0.938781  3.387349
H    -2.206923  0.480126  0.974273
C    -3.044438  -1.493237  1.195390
C    -2.265469  -2.191007  0.062048
C    -1.146049  -3.111582  0.568630
C    -3.237757  -2.987872  -0.819264
H    -4.031247  -1.187344  0.813335
H    -3.256461  -2.203103  2.009036
H    -1.811788  -1.409819  -0.574816
H    -0.622020  -3.585793  -0.273020
H    -1.566467  -3.916758  1.190017
H    -0.397492  -2.589667  1.174752
H    -3.756025  -3.759539  -0.230128
H    -2.707910  -3.496394  -1.636642
H    -4.004371  -2.338805  -1.264901
N    -3.320929  1.776465  2.952782
C    -2.368803  2.704055  2.365571
H    -3.918369  2.120009  3.698605
H    -2.650356  3.720114  2.661267
H    -2.390439  2.668276  1.267322
H    -1.338600  2.521395  2.706345
