31
Energy: -16702.7101953 eV PBE+vdW (tier 2 basis)
C    0.956664  -0.102452  1.355521
C    0.436476  -0.543689  2.711837
O    1.165508  -1.051429  3.558416
H    2.005927  -0.399739  1.284544
H    0.887364  0.989275  1.245502
H    0.396274  -0.560511  0.528135
N    -0.908605  -0.376632  2.952700
C    -1.850805  0.367307  2.141204
C    -1.631427  1.897968  2.251129
O    -1.088985  2.421340  3.218248
H    -1.157848  -0.549824  3.921611
H    -1.667867  0.088244  1.091113
C    -3.313705  -0.056449  2.440810
C    -4.047546  0.455482  3.704625
C    -3.301388  0.200707  5.022048
C    -4.496941  1.921581  3.606425
H    -3.304216  -1.157331  2.458484
H    -3.927454  0.223412  1.570080
H    -4.968289  -0.152800  3.734120
H    -3.944760  0.446536  5.877921
H    -2.401885  0.827009  5.106003
H    -3.011456  -0.854996  5.131015
H    -3.654201  2.618635  3.694162
H    -5.197436  2.157851  4.419346
H    -5.012558  2.122019  2.656134
N    -2.094807  2.603016  1.176715
C    -2.121758  4.053268  1.148704
H    -2.567141  2.096735  0.437046
H    -3.127728  4.446832  1.361349
H    -1.790835  4.426946  0.171627
H    -1.436805  4.413216  1.923487
