31
Energy: -16703.0098494 eV PBE+vdW (tier 2 basis)
C    -0.763691  -0.808841  -0.957551
C    -0.403638  -0.453996  0.473198
O    0.502853  0.333556  0.746285
H    -1.048014  0.109099  -1.486954
H    -1.580324  -1.536536  -1.039737
H    0.127421  -1.210841  -1.455151
N    -1.155791  -1.066154  1.433851
C    -0.925871  -0.858655  2.852402
C    -1.241189  -2.189344  3.544195
O    -2.219645  -2.862503  3.216804
H    -1.877192  -1.741072  1.196653
H    0.137054  -0.595319  2.967176
C    -1.777918  0.317665  3.386490
C    -1.552561  0.712048  4.860962
C    -1.762916  2.220693  5.046077
C    -2.449414  -0.072787  5.828508
H    -2.840893  0.085080  3.215018
H    -1.528868  1.169465  2.737555
H    -0.497777  0.496887  5.114635
H    -1.609234  2.520179  6.092302
H    -2.787744  2.508601  4.766646
H    -1.070404  2.801088  4.421489
H    -2.219718  0.181701  6.872785
H    -2.344664  -1.158837  5.718304
H    -3.507436  0.172542  5.652778
N    -0.373692  -2.549064  4.528930
C    -0.564680  -3.723133  5.359132
H    0.400912  -1.927218  4.726523
H    0.334584  -4.352849  5.359234
H    -1.401170  -4.291600  4.939634
H    -0.807379  -3.446854  6.395827
