31
Energy: -16702.3301461 eV PBE+vdW (tier 2 basis)
C    -0.764429  -0.143829  0.175673
C    -0.705061  -0.521670  1.643330
O    0.119769  -1.327297  2.068636
H    -1.770612  -0.280725  -0.241717
H    -0.062539  -0.786233  -0.362102
H    -0.468013  0.903094  0.025709
N    -1.593951  0.071962  2.505920
C    -2.679926  1.021885  2.259226
C    -3.807600  0.329577  1.430486
O    -4.310676  -0.684830  1.908223
H    -1.545873  -0.331719  3.435659
H    -3.184181  1.098109  3.232839
C    -2.225043  2.448100  1.905384
C    -1.335440  3.171604  2.948468
C    -1.897850  3.105787  4.373598
C    0.140288  2.748564  2.908564
H    -3.140085  3.048040  1.778859
H    -1.702968  2.475768  0.940247
H    -1.365113  4.231675  2.642487
H    -2.954635  3.408037  4.413159
H    -1.337673  3.776158  5.039246
H    -1.818804  2.095533  4.801340
H    0.747918  3.425023  3.525788
H    0.540474  2.788379  1.885406
H    0.291782  1.729402  3.283746
N    -4.275776  0.809995  0.234132
C    -3.860010  1.893475  -0.645095
H    -5.038258  0.227260  -0.099665
H    -4.101526  2.886557  -0.241677
H    -4.401011  1.776976  -1.590416
H    -2.788119  1.858147  -0.874352
