31
Energy: -16702.7699466 eV PBE+vdW (tier 2 basis)
C    0.495189  1.270571  0.296382
C    0.204721  0.115503  1.243576
O    0.849739  -0.929652  1.209085
H    1.274185  0.945358  -0.397859
H    0.857876  2.152758  0.844024
H    -0.392594  1.575717  -0.274868
N    -0.799505  0.298887  2.157466
C    -1.713832  1.425748  2.262097
C    -2.077435  1.550936  3.752416
O    -2.451250  0.560112  4.378729
H    -0.996566  -0.491783  2.768650
H    -1.189804  2.323448  1.914214
C    -3.000297  1.214258  1.430341
C    -3.907520  2.447409  1.281871
C    -3.286009  3.508200  0.362946
C    -5.290016  2.030154  0.766352
H    -3.556756  0.388303  1.898215
H    -2.698592  0.861877  0.430737
H    -4.052211  2.893138  2.282169
H    -3.915202  4.407417  0.311175
H    -3.181306  3.118389  -0.660946
H    -2.287440  3.825899  0.694378
H    -5.953889  2.898684  0.655012
H    -5.773418  1.320706  1.451350
H    -5.211685  1.544002  -0.217899
N    -1.983962  2.775312  4.345113
C    -1.521343  4.032695  3.778711
H    -2.261189  2.766408  5.322097
H    -1.399350  4.751485  4.595893
H    -2.234077  4.460332  3.058807
H    -0.544252  3.924985  3.288521
