31
Energy: -16702.9919389 eV PBE+vdW (tier 2 basis)
C    -1.773903  -0.915011  1.051468
C    -0.905492  -0.220433  2.080520
O    0.324653  -0.161611  1.950300
H    -1.660782  -2.000619  1.180710
H    -1.414529  -0.660340  0.048826
H    -2.839262  -0.666275  1.132296
N    -1.568293  0.297264  3.149577
C    -0.987293  0.852455  4.383662
C    -0.329508  2.248090  4.223016
O    -0.620729  3.150953  5.009114
H    -2.578059  0.229883  3.132112
H    -1.846424  1.062112  5.031268
C    -0.028549  -0.100460  5.128280
C    -0.625029  -1.390765  5.734984
C    -1.805614  -1.118585  6.674900
C    -0.974721  -2.472185  4.701399
H    0.396780  0.496758  5.949765
H    0.808384  -0.362141  4.466719
H    0.191228  -1.802044  6.353658
H    -2.696580  -0.779119  6.124932
H    -1.562835  -0.349259  7.421237
H    -2.093466  -2.031232  7.214548
H    -1.158861  -3.434566  5.199119
H    -0.160188  -2.617481  3.978540
H    -1.883523  -2.221765  4.136922
N    0.579246  2.354750  3.223399
C    1.308011  3.579530  2.963127
H    0.755494  1.515621  2.659141
H    0.935482  4.350010  3.646562
H    1.158230  3.913260  1.926716
H    2.386131  3.445204  3.134183
