31
Energy: -16702.8725939 eV PBE+vdW (tier 2 basis)
C    0.049843  -2.097040  1.050511
C    -0.044768  -0.936593  2.019869
O    0.938434  -0.518096  2.625003
H    0.891853  -2.724355  1.358216
H    0.269826  -1.707062  0.046725
H    -0.861700  -2.701891  0.987210
N    -1.280682  -0.352785  2.230333
C    -2.545020  -0.528850  1.507610
C    -3.267812  -1.865515  1.819074
O    -4.154624  -2.292877  1.084308
H    -1.202345  0.471978  2.818850
H    -3.213262  0.232151  1.941480
C    -2.485175  -0.273877  -0.008845
C    -1.832107  1.054430  -0.420654
C    -1.743766  1.135439  -1.949392
C    -2.566200  2.275233  0.147631
H    -3.519293  -0.318634  -0.379458
H    -1.963383  -1.105327  -0.503429
H    -0.801086  1.068364  -0.026844
H    -2.745966  1.138738  -2.403805
H    -1.194402  0.279071  -2.365148
H    -1.229232  2.051485  -2.270389
H    -3.619421  2.285984  -0.171968
H    -2.103270  3.208212  -0.201351
H    -2.551733  2.302965  1.246573
N    -2.882100  -2.469516  2.975748
C    -3.478140  -3.699778  3.455554
H    -2.123146  -2.037167  3.491370
H    -3.929944  -3.561184  4.447620
H    -2.734071  -4.506617  3.515819
H    -4.260317  -3.988657  2.745234
