31
Energy: -16702.802394 eV PBE+vdW (tier 2 basis)
C    0.462333  0.538252  0.396711
C    0.095614  0.509986  1.869572
O    0.804779  1.018387  2.733789
H    0.630752  1.578839  0.094496
H    -0.295664  0.092176  -0.259359
H    1.409172  0.000087  0.262624
N    -1.084383  -0.120855  2.168004
C    -1.528092  -0.315003  3.550592
C    -2.286444  -1.649690  3.632671
O    -1.815990  -2.636171  4.189084
H    -1.602680  -0.575257  1.425677
H    -0.621340  -0.450869  4.151996
C    -2.290915  0.923053  4.069685
C    -2.663979  0.946783  5.568118
C    -3.813730  0.000614  5.944173
C    -1.445471  0.722148  6.474717
H    -3.197935  1.087258  3.460892
H    -1.634480  1.780701  3.862365
H    -3.023194  1.973914  5.751624
H    -4.134072  0.182043  6.979497
H    -3.518413  -1.055760  5.880687
H    -4.690862  0.149330  5.297294
H    -0.608416  1.376998  6.196132
H    -1.090201  -0.316924  6.425613
H    -1.701572  0.928584  7.522882
N    -3.497764  -1.664720  2.989389
C    -4.381176  -2.815153  3.064814
H    -3.911380  -0.768407  2.756475
H    -5.029275  -2.845755  2.181283
H    -5.007716  -2.793980  3.970737
H    -3.767564  -3.721059  3.098532
