31
Energy: -16702.5544583 eV PBE+vdW (tier 2 basis)
C    -0.214489  0.231754  -0.094527
C    -0.362974  -0.660996  1.117813
O    0.325207  -1.669465  1.263375
H    0.333287  -0.334702  -0.852835
H    0.378667  1.119522  0.166006
H    -1.182482  0.548648  -0.496036
N    -1.247094  -0.314941  2.122999
C    -2.289492  0.697105  2.238146
C    -3.503384  0.393860  1.324626
O    -3.384170  -0.106874  0.211135
H    -1.252581  -1.029857  2.844240
H    -2.627437  0.614388  3.282284
C    -1.856266  2.169172  2.043234
C    -0.982105  2.770965  3.161136
C    0.468357  2.271346  3.151308
C    -1.019207  4.302696  3.075731
H    -2.780736  2.764338  1.975291
H    -1.365891  2.290315  1.067565
H    -1.436346  2.478382  4.125906
H    1.040604  2.734428  3.967170
H    0.966944  2.541759  2.208305
H    0.537372  1.183966  3.264532
H    -0.425272  4.758603  3.879630
H    -2.045156  4.689819  3.153504
H    -0.602627  4.653075  2.119178
N    -4.733248  0.748538  1.813428
C    -5.072876  1.268255  3.128066
H    -5.490899  0.550435  1.167539
H    -6.152954  1.446102  3.159123
H    -4.575596  2.225814  3.341056
H    -4.829890  0.560399  3.935262
