31
Energy: -16703.016401 eV PBE+vdW (tier 2 basis)
C    0.397007  0.334582  -1.043162
C    0.357902  -0.019841  0.431385
O    1.268785  -0.643717  0.977044
H    0.496075  -0.590556  -1.624281
H    1.291714  0.939336  -1.236758
H    -0.487218  0.884260  -1.387804
N    -0.744995  0.423137  1.106945
C    -1.016318  0.044129  2.479762
C    -2.479622  -0.409502  2.551727
O    -3.322270  0.038450  1.771094
H    -1.555604  0.765796  0.595590
H    -0.331506  -0.781386  2.718769
C    -0.798181  1.213642  3.468615
C    0.658562  1.683326  3.610594
C    0.707237  2.981223  4.425861
C    1.557233  0.606218  4.228194
H    -1.179315  0.922483  4.462264
H    -1.430396  2.050550  3.132233
H    1.039839  1.903511  2.599614
H    0.094736  3.770013  3.966747
H    1.735750  3.358858  4.507022
H    0.332469  2.821227  5.448813
H    2.580396  0.983381  4.361693
H    1.622504  -0.283004  3.588493
H    1.185271  0.304054  5.220411
N    -2.809624  -1.285789  3.541162
C    -1.907319  -1.984275  4.444635
H    -3.795018  -1.527982  3.560608
H    -1.185244  -2.613645  3.904567
H    -2.504899  -2.635407  5.090811
H    -1.349950  -1.292070  5.091352
