31
Energy: -16702.8232943 eV PBE+vdW (tier 2 basis)
C    -0.154630  -0.067346  0.481261
C    -0.480363  -0.472548  1.904499
O    0.391378  -0.603348  2.759101
H    -0.821573  -0.504433  -0.270834
H    -0.222611  1.025978  0.393974
H    0.879177  -0.359880  0.275689
N    -1.804003  -0.707616  2.229492
C    -3.013327  -0.434322  1.446481
C    -3.186233  -1.394299  0.238680
O    -3.830125  -1.064993  -0.754621
H    -1.925183  -0.853201  3.227955
H    -3.838089  -0.710133  2.123161
C    -3.215115  1.039645  1.037443
C    -4.682570  1.510618  1.038080
C    -5.257257  1.609946  2.456359
C    -4.799312  2.854082  0.310184
H    -2.798087  1.194504  0.033435
H    -2.638093  1.667668  1.734720
H    -5.266466  0.769742  0.469047
H    -4.716797  2.364819  3.048092
H    -5.201603  0.658331  3.005362
H    -6.315985  1.902033  2.432081
H    -5.839439  3.207685  0.290612
H    -4.195552  3.629018  0.807835
H    -4.452278  2.772537  -0.728847
N    -2.624226  -2.622183  0.406080
C    -2.703948  -3.666039  -0.595823
H    -2.051252  -2.756689  1.232364
H    -3.355894  -3.307010  -1.399313
H    -3.128971  -4.586290  -0.172513
H    -1.714347  -3.894951  -1.016944
