31
Energy: -16702.742892 eV PBE+vdW (tier 2 basis)
C    -0.220522  -1.777573  1.363460
C    -0.130230  -0.749166  2.480616
O    0.718443  -0.831476  3.365435
H    0.585299  -2.501425  1.509254
H    -0.106920  -1.313145  0.373162
H    -1.181988  -2.308989  1.372578
N    -1.031931  0.282388  2.462110
C    -2.062965  0.568404  1.485090
C    -2.239739  2.098609  1.475074
O    -1.862492  2.786957  2.423580
H    -0.886977  1.018797  3.153494
H    -1.712901  0.256866  0.488302
C    -3.389609  -0.194191  1.762859
C    -4.077124  0.071124  3.116507
C    -4.943819  1.337662  3.110065
C    -4.915421  -1.149469  3.518105
H    -3.138800  -1.263445  1.698256
H    -4.102681  -0.007563  0.943797
H    -3.286744  0.196333  3.874755
H    -5.438945  1.471288  4.081719
H    -5.733403  1.266166  2.345455
H    -4.360525  2.245579  2.918593
H    -5.408989  -0.989477  4.486424
H    -4.294805  -2.052354  3.603010
H    -5.703085  -1.351975  2.775572
N    -2.836762  2.665449  0.387997
C    -3.368715  2.032667  -0.805343
H    -2.970112  3.667086  0.491105
H    -2.766656  1.161610  -1.089449
H    -3.325472  2.746465  -1.636243
H    -4.413325  1.706854  -0.682511
