31
Energy: -16702.6841625 eV PBE+vdW (tier 2 basis)
C    0.525186  -0.430109  2.015433
C    -0.235553  -0.140749  3.300906
O    0.282275  -0.295773  4.405167
H    1.529121  -0.764148  2.289492
H    0.609283  0.467761  1.385821
H    0.041163  -1.212284  1.414673
N    -1.521239  0.313075  3.182761
C    -2.288172  0.556744  1.977495
C    -3.268092  1.698792  2.304973
O    -3.595389  1.940526  3.466884
H    -1.980329  0.590185  4.049597
H    -1.601472  0.912942  1.193438
C    -2.985623  -0.711326  1.399223
C    -4.210370  -1.335894  2.106720
C    -3.985368  -1.672544  3.587195
C    -5.509493  -0.539300  1.913164
H    -2.198581  -1.478299  1.342613
H    -3.266852  -0.500938  0.355151
H    -4.351394  -2.295320  1.578430
H    -3.042104  -2.211527  3.746948
H    -4.803186  -2.305555  3.958812
H    -3.965670  -0.768070  4.209143
H    -6.372088  -1.134643  2.243053
H    -5.672743  -0.281043  0.856431
H    -5.516229  0.387814  2.499831
N    -3.761976  2.433410  1.267723
C    -3.554303  2.264235  -0.158660
H    -4.451510  3.117255  1.565665
H    -3.721240  3.225540  -0.658140
H    -4.235869  1.520888  -0.601213
H    -2.523075  1.958743  -0.372217
