31
Energy: -16702.8474105 eV PBE+vdW (tier 2 basis)
C    -0.168205  -1.067052  0.552014
C    -0.281196  -0.793947  2.042984
O    0.606124  -1.129359  2.824397
H    -0.547663  -0.246840  -0.072267
H    -0.732333  -1.973684  0.291620
H    0.886074  -1.242948  0.321530
N    -1.417500  -0.174482  2.493242
C    -2.545008  0.339279  1.745503
C    -3.210165  1.408085  2.643285
O    -2.911034  1.537926  3.828991
H    -1.430169  0.069499  3.485057
H    -2.187810  0.864217  0.842204
C    -3.532786  -0.761911  1.269450
C    -4.101114  -1.704983  2.344845
C    -5.192552  -1.056651  3.207556
C    -4.628793  -2.983288  1.680606
H    -2.992993  -1.364726  0.524332
H    -4.362986  -0.289249  0.716097
H    -3.265094  -1.989860  3.004945
H    -5.602859  -1.786282  3.919134
H    -6.027010  -0.700927  2.582981
H    -4.818573  -0.209378  3.794082
H    -5.012705  -3.688475  2.430253
H    -3.841460  -3.496249  1.110668
H    -5.453155  -2.759303  0.985690
N    -4.139405  2.180356  2.019248
C    -4.941330  3.164099  2.723423
H    -4.356508  1.982733  1.049894
H    -4.987420  4.100777  2.153983
H    -4.465413  3.353510  3.690746
H    -5.964842  2.801269  2.900934
