31
Energy: -16702.8418742 eV PBE+vdW (tier 2 basis)
C    -0.239220  1.499031  -0.081404
C    0.178311  0.466209  0.954050
O    1.350819  0.333778  1.298597
H    -0.971865  2.209423  0.328515
H    -0.691023  1.033049  -0.967749
H    0.655060  2.048427  -0.386336
N    -0.808981  -0.308418  1.501532
C    -2.231648  -0.287823  1.235406
C    -2.930943  -0.827056  2.500781
O    -2.334455  -1.519841  3.322189
H    -0.523502  -0.930254  2.257646
H    -2.554430  0.755769  1.085295
C    -2.678740  -1.090827  -0.019818
C    -2.709524  -2.627136  0.074202
C    -3.362266  -3.193559  -1.194203
C    -1.330636  -3.260772  0.299959
H    -2.024711  -0.793268  -0.854892
H    -3.688551  -0.741572  -0.293421
H    -3.351491  -2.902322  0.929166
H    -3.449582  -4.286994  -1.136829
H    -2.762251  -2.956877  -2.086238
H    -4.370182  -2.783556  -1.351958
H    -1.399628  -4.355448  0.232981
H    -0.917510  -3.018418  1.284971
H    -0.609469  -2.923907  -0.459325
N    -4.250397  -0.508072  2.603667
C    -5.098621  -0.997785  3.675092
H    -4.659956  0.080338  1.888166
H    -5.539342  -0.166490  4.241770
H    -4.470769  -1.592044  4.346698
H    -5.906617  -1.632967  3.285727
