31
Energy: -16702.6308913 eV PBE+vdW (tier 2 basis)
C    -0.118894  0.625299  -0.452658
C    0.148678  0.720892  1.038998
O    1.206222  1.150643  1.490274
H    0.030638  1.614804  -0.901269
H    -1.126085  0.268765  -0.702730
H    0.620598  -0.051833  -0.898426
N    -0.881854  0.306915  1.846753
C    -0.709166  0.180794  3.300565
C    -1.626905  -0.930574  3.832340
O    -1.151976  -1.901544  4.416893
H    -1.644925  -0.199011  1.412880
H    0.304475  -0.204595  3.469371
C    -0.812344  1.554527  4.005964
C    -0.521320  1.595656  5.522157
C    -1.667446  1.049873  6.386621
C    0.817094  0.940043  5.890200
H    -1.796080  2.005982  3.813870
H    -0.074753  2.189021  3.494465
H    -0.432306  2.670543  5.755993
H    -2.626416  1.522553  6.127775
H    -1.477595  1.254627  7.449533
H    -1.781117  -0.037453  6.285198
H    0.778204  -0.152386  5.777627
H    1.073698  1.151352  6.937478
H    1.635729  1.316940  5.261287
N    -2.980386  -0.859476  3.596694
C    -3.805002  0.282067  3.226289
H    -3.465899  -1.647287  4.018521
H    -4.712570  -0.080382  2.727631
H    -3.278442  0.937930  2.526105
H    -4.103994  0.883690  4.099284
