31
Energy: -16702.3520074 eV PBE+vdW (tier 2 basis)
C    -0.289543  -0.800858  -0.258977
C    0.214227  -0.189037  1.033747
O    1.413038  -0.132129  1.296865
H    -0.758078  -0.040087  -0.898051
H    -1.023395  -1.596579  -0.075056
H    0.570333  -1.221381  -0.786442
N    -0.707922  0.329208  1.911290
C    -2.171270  0.335214  1.864831
C    -2.709594  -1.125257  1.982319
O    -2.379744  -1.765355  2.978170
H    -0.279704  0.614147  2.785826
H    -2.459766  0.727674  2.851718
C    -2.785680  1.311331  0.846486
C    -2.396631  2.792709  1.059349
C    -1.081139  3.171006  0.365175
C    -3.531743  3.707578  0.580671
H    -3.878411  1.224088  0.947603
H    -2.549403  1.031146  -0.189329
H    -2.270104  2.955333  2.144880
H    -0.233473  2.576143  0.722135
H    -0.842767  4.230132  0.535044
H    -1.163197  3.024625  -0.723109
H    -3.277335  4.766230  0.727534
H    -4.468095  3.508326  1.120732
H    -3.727046  3.562726  -0.493147
N    -3.544866  -1.701173  1.059805
C    -4.045784  -1.279677  -0.240715
H    -3.806714  -2.635212  1.362138
H    -4.806138  -0.489619  -0.169320
H    -4.512645  -2.150899  -0.712815
H    -3.244117  -0.936901  -0.905754
