31
Energy: -16702.806527 eV PBE+vdW (tier 2 basis)
C    -0.395997  -1.616698  1.415073
C    0.042568  -0.172157  1.598962
O    1.230001  0.132899  1.689668
H    0.505837  -2.233091  1.379415
H    -0.957071  -1.757086  0.480031
H    -1.031249  -1.959973  2.242764
N    -0.934948  0.784109  1.677113
C    -2.372012  0.643136  1.535189
C    -2.841605  1.709488  0.525206
O    -2.367245  2.843255  0.525842
H    -0.596197  1.744767  1.713645
H    -2.584047  -0.360504  1.139817
C    -3.171237  0.838155  2.846159
C    -2.978790  -0.231124  3.941343
C    -1.702874  -0.029467  4.769954
C    -4.206602  -0.257254  4.862318
H    -4.236938  0.864526  2.565055
H    -2.938773  1.836906  3.249575
H    -2.918793  -1.216264  3.443851
H    -1.602950  -0.820503  5.526232
H    -1.741114  0.932958  5.302326
H    -0.792841  -0.028076  4.160909
H    -4.094920  -1.014929  5.650163
H    -5.127214  -0.482235  4.305523
H    -4.345102  0.715778  5.357592
N    -3.832125  1.325342  -0.323964
C    -4.422779  2.248262  -1.280442
H    -4.163931  0.370075  -0.292927
H    -5.196737  1.722317  -1.848528
H    -3.663542  2.630649  -1.975597
H    -4.874384  3.108083  -0.767727
