31
Energy: -16703.0059648 eV PBE+vdW (tier 2 basis)
C    -0.829943  0.924301  0.615394
C    -0.754461  0.759164  2.121436
O    -0.749876  1.724427  2.885714
H    -0.738552  -0.019004  0.063298
H    -0.037319  1.611091  0.295614
H    -1.790279  1.391989  0.361637
N    -0.732899  -0.533906  2.563248
C    -0.527317  -0.875238  3.957427
C    0.514519  -2.006247  3.991092
O    0.611998  -2.812768  3.065096
H    -0.574832  -1.299845  1.912280
H    -0.138508  0.031708  4.447272
C    -1.804217  -1.331418  4.702068
C    -2.917737  -0.269105  4.840420
C    -3.846081  -0.219846  3.619988
C    -3.733293  -0.527986  6.114154
H    -1.488277  -1.646188  5.709779
H    -2.200585  -2.235358  4.210820
H    -2.431640  0.715649  4.936956
H    -3.301375  -0.013770  2.692390
H    -4.607159  0.563117  3.742489
H    -4.372027  -1.179005  3.493945
H    -4.208124  -1.521058  6.085116
H    -4.533317  0.216358  6.230168
H    -3.102881  -0.485537  7.013822
N    1.272276  -2.060639  5.119660
C    2.251123  -3.102930  5.367073
H    1.151980  -1.328110  5.808958
H    2.238946  -3.777309  4.504658
H    2.003710  -3.674519  6.272472
H    3.260145  -2.682016  5.475555
