31
Energy: -16702.5927685 eV PBE+vdW (tier 2 basis)
C    -0.511614  0.143807  -0.092244
C    -0.659143  0.923532  1.203760
O    -0.354949  2.108378  1.295818
H    0.555757  0.074435  -0.338712
H    -0.996701  0.706138  -0.898781
H    -0.932132  -0.869081  -0.056085
N    -1.171549  0.213656  2.257397
C    -1.272798  0.737460  3.620601
C    -1.887539  2.164673  3.672119
O    -1.359717  3.070220  4.306800
H    -1.338385  -0.777105  2.129590
H    -2.010557  0.086128  4.119009
C    0.062090  0.675756  4.393402
C    -0.018240  0.074546  5.812404
C    -0.948753  0.855161  6.749820
C    -0.371210  -1.419179  5.790752
H    0.464982  1.695274  4.444281
H    0.764257  0.073922  3.798913
H    1.002339  0.158971  6.222964
H    -0.883587  0.464258  7.774965
H    -2.002549  0.774588  6.441133
H    -0.698038  1.922596  6.764964
H    -0.338955  -1.847862  6.802060
H    0.327976  -1.989418  5.162192
H    -1.387944  -1.596877  5.405195
N    -3.108578  2.348544  3.080123
C    -3.906133  1.437717  2.282262
H    -3.410119  3.316554  3.125335
H    -3.898732  0.426450  2.707602
H    -3.569819  1.374902  1.235304
H    -4.945720  1.787286  2.290977
