31
Energy: -16702.9277501 eV PBE+vdW (tier 2 basis)
C    -2.211336  1.010910  0.254017
C    -0.821659  1.073009  0.859166
O    -0.048665  2.002290  0.642268
H    -2.297878  0.171909  -0.451397
H    -2.384492  1.944099  -0.287672
H    -2.989474  0.881311  1.018635
N    -0.454259  0.037810  1.692268
C    -1.194230  -1.174562  2.011119
C    -2.080678  -1.078495  3.279806
O    -2.744951  -2.045971  3.644265
H    0.510359  0.100826  2.008190
H    -1.920409  -1.352664  1.204758
C    -0.281179  -2.417061  2.044934
C    0.987544  -2.360296  2.917235
C    0.703251  -2.135802  4.408054
C    1.794374  -3.649102  2.708273
H    0.020929  -2.630482  1.008408
H    -0.911273  -3.256157  2.374643
H    1.626628  -1.530159  2.562093
H    0.024508  -2.906703  4.799486
H    0.240120  -1.160419  4.606573
H    1.635429  -2.178464  4.987933
H    2.038369  -3.805598  1.648343
H    1.226175  -4.525588  3.053772
H    2.737699  -3.620795  3.270227
N    -2.092549  0.132625  3.897174
C    -2.865119  0.393925  5.094521
H    -1.477144  0.847085  3.523103
H    -2.213701  0.552824  5.966308
H    -3.494991  -0.482680  5.280897
H    -3.504187  1.277551  4.964922
