31
Energy: -16702.9102486 eV PBE+vdW (tier 2 basis)
C    0.238234  1.007113  0.703948
C    -0.193794  -0.280289  1.378950
O    0.510014  -1.291513  1.364106
H    1.216738  1.301566  1.102353
H    -0.467688  1.835762  0.838342
H    0.365287  0.816024  -0.369078
N    -1.403223  -0.229749  2.015420
C    -2.006193  -1.401883  2.643270
C    -3.080407  -1.933385  1.671385
O    -4.123177  -1.302219  1.489677
H    -2.000765  0.578090  1.874870
H    -1.182217  -2.113414  2.760781
C    -2.599519  -1.037720  4.012700
C    -2.918776  -2.212096  4.962612
C    -4.040360  -3.131138  4.459882
C    -1.668566  -3.018089  5.340438
H    -3.511382  -0.443589  3.845436
H    -1.868302  -0.381166  4.508544
H    -3.286371  -1.733699  5.886568
H    -4.343094  -3.834403  5.248113
H    -3.721653  -3.733229  3.596913
H    -4.925939  -2.559981  4.151952
H    -1.900306  -3.751658  6.124889
H    -0.864988  -2.368590  5.715129
H    -1.267624  -3.579831  4.483750
N    -2.807844  -3.082236  0.993802
C    -1.639195  -3.946254  1.103444
H    -3.558878  -3.368866  0.373046
H    -1.600544  -4.586718  0.215313
H    -1.684372  -4.598990  1.990108
H    -0.714502  -3.356466  1.133672
