31
Energy: -16702.614751 eV PBE+vdW (tier 2 basis)
C    0.202532  0.764019  0.104708
C    0.206878  0.731673  1.623969
O    1.185523  1.113985  2.267576
H    0.552141  1.748459  -0.226151
H    -0.775922  0.557051  -0.345949
H    0.921624  0.018693  -0.260624
N    -0.925460  0.213001  2.183578
C    -1.247951  0.036101  3.607774
C    -1.959411  1.310067  4.148511
O    -3.188278  1.366001  4.044468
H    -1.692149  0.022546  1.550020
H    -2.090523  -0.666998  3.603764
C    -0.140203  -0.583546  4.477742
C    0.073734  -2.107572  4.323337
C    -1.167799  -2.930549  4.689829
C    0.628367  -2.516667  2.951544
H    -0.421662  -0.390555  5.525386
H    0.813338  -0.075302  4.304247
H    0.851506  -2.351487  5.067525
H    -1.980276  -2.802669  3.959035
H    -1.562416  -2.652400  5.677406
H    -0.929472  -4.002774  4.714478
H    0.939456  -3.570657  2.960286
H    1.499230  -1.908246  2.672532
H    -0.125033  -2.404793  2.159401
N    -1.266031  2.344481  4.699191
C    0.158454  2.538304  4.934585
H    -1.892043  3.081405  5.011518
H    0.360720  3.615937  4.940352
H    0.751052  2.091128  4.129101
H    0.479204  2.124252  5.903369
