31
Energy: -16702.7443854 eV PBE+vdW (tier 2 basis)
C    0.279232  1.595589  -0.141125
C    0.147619  0.432436  0.820601
O    0.975560  -0.474185  0.885455
H    1.118227  1.389979  -0.810426
H    0.471053  2.534992  0.396539
H    -0.634980  1.747675  -0.730741
N    -0.958651  0.421640  1.638637
C    -1.952976  1.470282  1.816933
C    -1.414784  2.793729  2.410646
O    -1.770146  3.863566  1.914316
H    -0.983269  -0.375104  2.269380
H    -2.328573  1.777899  0.831222
C    -3.131693  0.908323  2.633936
C    -4.292160  1.878046  2.914255
C    -4.961478  2.380480  1.629412
C    -5.310832  1.200777  3.839141
H    -2.750068  0.528138  3.596400
H    -3.516091  0.031025  2.086559
H    -3.884403  2.754406  3.445495
H    -4.275840  2.982513  1.020524
H    -5.827495  3.012795  1.867771
H    -5.324184  1.538936  1.018839
H    -5.760081  0.319413  3.356379
H    -6.127443  1.888798  4.095942
H    -4.847119  0.866504  4.778277
N    -0.565857  2.769380  3.481049
C    -0.002545  1.651362  4.225524
H    -0.274045  3.702991  3.753407
H    -0.774111  0.933504  4.531488
H    0.447602  2.049571  5.141680
H    0.774932  1.114856  3.664106
