31
Energy: -16702.6429526 eV PBE+vdW (tier 2 basis)
C    -0.781228  2.118436  1.609986
C    -0.389584  0.811189  2.270299
O    0.641476  0.686057  2.929623
H    -0.953623  1.997302  0.531542
H    0.028848  2.834403  1.768663
H    -1.708484  2.521502  2.041915
N    -1.249813  -0.248481  2.114797
C    -2.537077  -0.255833  1.440545
C    -3.708148  0.506223  2.111763
O    -4.628181  0.890635  1.389257
H    -0.932070  -1.095040  2.575003
H    -2.427828  0.290290  0.491880
C    -2.999169  -1.675163  1.047441
C    -3.486903  -2.636210  2.152376
C    -4.328148  -3.748996  1.511436
C    -2.359428  -3.257584  2.990648
H    -2.186101  -2.150226  0.473954
H    -3.828221  -1.521485  0.343351
H    -4.151748  -2.070273  2.827615
H    -4.712918  -4.443492  2.270658
H    -3.727895  -4.336088  0.799574
H    -5.185998  -3.335527  0.964595
H    -2.761613  -4.006966  3.686304
H    -1.817203  -2.526157  3.605667
H    -1.624963  -3.766854  2.348510
N    -3.728956  0.764743  3.453803
C    -2.865417  0.333575  4.547322
H    -4.564836  1.282266  3.708896
H    -1.886989  0.830545  4.540723
H    -2.706850  -0.751548  4.547255
H    -3.369649  0.588974  5.485992
