31
Energy: -16702.6453323 eV PBE+vdW (tier 2 basis)
C    0.616539  0.552340  0.500273
C    -0.065527  0.409334  1.849396
O    0.294299  1.042035  2.837639
H    1.661619  0.232877  0.600532
H    0.623486  1.612436  0.219894
H    0.142116  -0.026463  -0.302171
N    -1.121635  -0.468307  1.881307
C    -1.767362  -0.843704  3.145785
C    -2.342221  -2.263129  3.021652
O    -1.966408  -3.154574  3.778381
H    -1.245132  -1.083618  1.085707
H    -0.976400  -0.940252  3.902780
C    -2.737379  0.251237  3.647059
C    -3.335791  0.016895  5.047466
C    -3.755800  1.358511  5.661919
C    -4.518202  -0.961985  5.043771
H    -3.545586  0.424039  2.920784
H    -2.135740  1.170444  3.667259
H    -2.541719  -0.410951  5.683528
H    -4.170571  1.221469  6.670164
H    -4.529737  1.847512  5.050025
H    -2.904270  2.048238  5.736762
H    -4.932337  -1.074427  6.055281
H    -4.236947  -1.964460  4.699804
H    -5.328768  -0.589836  4.397400
N    -3.236065  -2.540337  2.012093
C    -4.067976  -1.632239  1.233957
H    -3.547183  -3.507614  2.056711
H    -3.520198  -0.720722  0.974811
H    -4.354894  -2.127605  0.298255
H    -4.984990  -1.340691  1.770076
