31
Energy: -16702.568797 eV PBE+vdW (tier 2 basis)
C    -0.137110  1.088582  -0.909580
C    0.283722  1.058113  0.544387
O    1.451658  1.257605  0.876655
H    0.549730  1.757435  -1.436261
H    -1.169567  1.408278  -1.078329
H    -0.024222  0.082416  -1.338023
N    -0.647388  0.758525  1.513957
C    -2.099230  0.565604  1.476277
C    -2.586587  -0.256289  0.260532
O    -3.460444  0.156703  -0.498826
H    -0.229051  0.789624  2.440215
H    -2.309078  -0.090093  2.341011
C    -2.952223  1.828164  1.707643
C    -2.815009  3.024473  0.741694
C    -4.127327  3.819170  0.728505
C    -1.639613  3.946091  1.093416
H    -2.750984  2.177938  2.734424
H    -3.996934  1.484448  1.699426
H    -2.670939  2.630669  -0.274880
H    -4.056698  4.689350  0.061124
H    -4.373559  4.193960  1.734421
H    -4.962949  3.194865  0.384738
H    -1.568669  4.775798  0.376265
H    -0.672730  3.430263  1.097905
H    -1.780230  4.387483  2.092575
N    -2.040373  -1.498695  0.093080
C    -1.051342  -2.193015  0.900941
H    -2.405826  -1.977290  -0.724230
H    -1.144632  -3.268922  0.713956
H    -1.225404  -2.028299  1.971895
H    -0.020589  -1.885718  0.671304
