31
Energy: -16702.7648236 eV PBE+vdW (tier 2 basis)
C    -1.359048  -1.178344  -0.026929
C    -0.606276  -1.204481  1.290890
O    0.026250  -2.187449  1.665126
H    -0.895794  -0.465730  -0.724179
H    -2.411301  -0.887617  0.101573
H    -1.313602  -2.179847  -0.462001
N    -0.679334  -0.076025  2.074781
C    -1.244017  1.207507  1.711234
C    -0.397782  1.943068  0.639131
O    0.805852  1.758248  0.494319
H    -0.054278  -0.107872  2.874168
H    -2.242626  1.023564  1.281782
C    -1.453242  2.107702  2.954510
C    -0.243948  2.892372  3.501400
C    -0.716643  3.811872  4.634823
C    0.920441  2.008583  3.968570
H    -1.876563  1.472363  3.750165
H    -2.237277  2.838724  2.704052
H    0.134312  3.532829  2.686283
H    0.108152  4.435252  5.005559
H    -1.097452  3.226984  5.486009
H    -1.522521  4.482972  4.304932
H    1.703691  2.622675  4.433810
H    1.389040  1.471403  3.134118
H    0.590223  1.279929  4.726109
N    -1.098874  2.838190  -0.113240
C    -0.453111  3.662942  -1.120871
H    -2.098585  2.921745  0.020819
H    -1.203549  4.313026  -1.582216
H    0.012029  3.042781  -1.899185
H    0.333739  4.284519  -0.672801
