31
Energy: -16702.8432145 eV PBE+vdW (tier 2 basis)
C    0.419683  0.721045  0.548582
C    -0.062758  -0.349786  1.510470
O    0.708675  -1.108628  2.090494
H    1.155898  1.351123  1.061862
H    -0.381718  1.356638  0.151291
H    0.932980  0.231997  -0.288951
N    -1.421228  -0.409532  1.687665
C    -2.047695  -1.444163  2.511079
C    -3.410637  -1.813333  1.899403
O    -3.597653  -2.873292  1.312512
H    -2.016286  0.205850  1.146079
H    -1.423460  -2.340051  2.411254
C    -2.112611  -1.036943  3.995354
C    -2.775707  -2.065428  4.927892
C    -2.050018  -3.417396  4.913257
C    -2.860711  -1.501341  6.350962
H    -2.630321  -0.065456  4.088983
H    -1.077306  -0.854623  4.323456
H    -3.808227  -2.235062  4.572905
H    -2.091504  -3.899838  3.928376
H    -2.505750  -4.108612  5.635360
H    -0.990932  -3.297580  5.186176
H    -3.376079  -2.199775  7.024396
H    -3.405301  -0.546415  6.377182
H    -1.856166  -1.322821  6.763246
N    -4.376792  -0.847659  2.023540
C    -5.733619  -1.048738  1.546758
H    -4.205416  -0.088987  2.674193
H    -6.138886  -0.110490  1.148460
H    -6.400033  -1.417243  2.341739
H    -5.703501  -1.799994  0.750963
