31
Energy: -16702.716129 eV PBE+vdW (tier 2 basis)
C    0.512561  -0.784737  0.392302
C    0.378788  -0.406735  1.857056
O    1.346553  -0.347913  2.607651
H    1.015527  -1.757017  0.325009
H    1.157425  -0.048594  -0.103880
H    -0.443704  -0.839679  -0.143900
N    -0.904553  -0.144160  2.273615
C    -1.204428  0.342515  3.610408
C    -1.753968  -0.692141  4.616170
O    -1.440487  -0.593820  5.799865
H    -1.626869  -0.105476  1.564992
H    -0.234451  0.612159  4.047244
C    -2.124961  1.576036  3.580936
C    -1.567801  2.790252  2.815813
C    -2.606124  3.918580  2.809246
C    -0.227802  3.272710  3.383052
H    -2.321261  1.859948  4.626525
H    -3.103604  1.296296  3.151931
H    -1.398321  2.486089  1.767860
H    -2.803471  4.277686  3.830559
H    -3.563773  3.586521  2.383025
H    -2.255979  4.776178  2.218681
H    0.560285  2.513623  3.294680
H    -0.323281  3.534508  4.447712
H    0.117787  4.168943  2.849903
N    -2.610504  -1.679203  4.204891
C    -3.219315  -1.925894  2.909561
H    -2.889330  -2.280886  4.973487
H    -4.059519  -2.614886  3.052526
H    -2.522237  -2.383066  2.192270
H    -3.633286  -1.007875  2.468288
