31
Energy: -16703.0901243 eV PBE+vdW (tier 2 basis)
C    0.431278  -1.502213  0.453604
C    -0.097344  -0.878594  1.731756
O    -0.040135  -1.461892  2.814577
H    1.493919  -1.738236  0.589956
H    0.317536  -0.861780  -0.429377
H    -0.094302  -2.449730  0.281742
N    -0.617368  0.378098  1.593028
C    -1.303922  1.062963  2.671456
C    -2.616445  1.618679  2.096976
O    -2.713237  1.932821  0.909808
H    -0.814707  0.749613  0.666232
H    -1.507132  0.310293  3.447983
C    -0.470775  2.223000  3.264184
C    0.846121  1.808840  3.941223
C    1.674615  3.057872  4.266196
C    0.614846  0.955677  5.193383
H    -1.094514  2.766851  3.994311
H    -0.260211  2.932209  2.447833
H    1.417631  1.202714  3.218733
H    1.147836  3.707771  4.982130
H    1.879686  3.652947  3.365070
H    2.639311  2.786060  4.716234
H    0.126962  0.003361  4.950167
H    -0.002823  1.495517  5.928971
H    1.569733  0.714637  5.680407
N    -3.622105  1.768187  3.000807
C    -4.906764  2.354361  2.667001
H    -3.460825  1.447037  3.948029
H    -4.883321  2.615149  1.603919
H    -5.094676  3.263786  3.254730
H    -5.724870  1.642005  2.840930
