31
Energy: -16703.1108287 eV PBE+vdW (tier 2 basis)
C    0.199648  0.528634  0.188814
C    0.041541  0.471090  1.693696
O    0.710022  1.188851  2.447349
H    -0.001045  1.554080  -0.145583
H    -0.462572  -0.158693  -0.351540
H    1.241431  0.299223  -0.067217
N    -0.884946  -0.410476  2.163751
C    -1.177244  -0.563496  3.590038
C    -0.143476  -1.529859  4.232089
O    -0.394808  -2.712191  4.460662
H    -1.344094  -1.039554  1.514604
H    -1.034008  0.434534  4.027921
C    -2.612485  -1.042105  3.790325
C    -3.108009  -1.019478  5.247950
C    -3.155653  0.397927  5.832015
C    -4.482354  -1.692386  5.336620
H    -2.688632  -2.073476  3.411416
H    -3.273797  -0.409822  3.174210
H    -2.403519  -1.619925  5.845421
H    -2.166770  0.875351  5.859937
H    -3.534771  0.380906  6.863056
H    -3.823685  1.046451  5.244177
H    -5.230688  -1.146261  4.741319
H    -4.843273  -1.722636  6.373845
H    -4.445075  -2.725230  4.964000
N    1.048861  -0.928802  4.490170
C    2.202079  -1.666891  4.967103
H    1.176854  0.005353  4.094432
H    2.732014  -1.090051  5.735642
H    2.905938  -1.898372  4.152681
H    1.850520  -2.609698  5.399096
