31
Energy: -16702.8183022 eV PBE+vdW (tier 2 basis)
C    -0.497254  0.522442  0.634503
C    -0.785000  0.278336  2.101226
O    0.056190  0.497302  2.969063
H    0.569478  0.343922  0.466302
H    -0.698333  1.578852  0.408279
H    -1.089785  -0.092577  -0.051558
N    -2.025883  -0.213648  2.459025
C    -3.247612  -0.371227  1.662236
C    -3.182534  -1.565118  0.665044
O    -3.971999  -1.658105  -0.271446
H    -2.130648  -0.252195  3.468856
H    -4.009068  -0.691508  2.393648
C    -3.804337  0.888167  0.978795
C    -4.331575  1.992997  1.913394
C    -3.226133  2.823868  2.580920
C    -5.281262  2.912575  1.133363
H    -4.623757  0.527691  0.342310
H    -3.060023  1.311589  0.287567
H    -4.921962  1.503894  2.710294
H    -3.660741  3.630803  3.187143
H    -2.583436  3.295577  1.821637
H    -2.577840  2.232504  3.237520
H    -4.752591  3.411362  0.306636
H    -5.695291  3.697877  1.780770
H    -6.120533  2.351461  0.700355
N    -2.241891  -2.502311  0.958717
C    -2.064416  -3.708750  0.176308
H    -1.626908  -2.309637  1.741875
H    -2.192194  -4.605877  0.797701
H    -1.068750  -3.740002  -0.288455
H    -2.825258  -3.708995  -0.611561
