31
Energy: -16702.9993704 eV PBE+vdW (tier 2 basis)
C    0.078455  0.599650  0.168770
C    -0.242495  0.139728  1.575309
O    0.395726  -0.769203  2.123526
H    1.117635  0.951092  0.143860
H    -0.577375  1.400769  -0.193282
H    0.007467  -0.258407  -0.510893
N    -1.269163  0.784532  2.191202
C    -1.653255  0.538481  3.585005
C    -2.598362  -0.692120  3.711784
O    -3.768583  -0.612120  4.084421
H    -1.788014  1.482806  1.673254
H    -0.715984  0.248622  4.086452
C    -2.162883  1.812051  4.275436
C    -3.540670  2.414442  3.920161
C    -3.739777  3.695100  4.740212
C    -3.753142  2.697554  2.427160
H    -1.385226  2.581991  4.128065
H    -2.171093  1.597879  5.354655
H    -4.299882  1.681878  4.224593
H    -4.742252  4.115212  4.579921
H    -3.006425  4.468397  4.461317
H    -3.627221  3.504107  5.816643
H    -4.701429  3.229490  2.268521
H    -3.816936  1.771444  1.837806
H    -2.957094  3.338945  2.011666
N    -1.976437  -1.855745  3.385755
C    -2.663001  -3.131152  3.367309
H    -1.010919  -1.786268  3.049276
H    -3.673330  -2.979273  3.761784
H    -2.139935  -3.866114  3.994532
H    -2.736402  -3.532768  2.345782
