31
Energy: -16702.5438135 eV PBE+vdW (tier 2 basis)
C    0.047071  -0.167111  0.821277
C    -0.466556  -0.818832  2.086402
O    0.157340  -1.719157  2.645862
H    0.800360  -0.834356  0.392833
H    -0.750897  0.009789  0.093164
H    0.535663  0.786649  1.064621
N    -1.639200  -0.372183  2.665196
C    -2.659617  0.589944  2.267902
C    -3.512558  0.090075  1.076693
O    -3.039200  -0.554744  0.146222
H    -1.859718  -0.929664  3.484774
H    -3.322428  0.650265  3.142243
C    -2.172289  2.029253  1.976616
C    -1.622704  2.847037  3.168634
C    -2.615794  2.931603  4.334672
C    -0.236576  2.404277  3.656218
H    -3.033728  2.577522  1.562465
H    -1.430350  2.005032  1.167940
H    -1.508398  3.870099  2.770035
H    -3.611822  3.259947  4.002931
H    -2.266754  3.649027  5.089490
H    -2.730494  1.964071  4.845876
H    0.488283  2.369233  2.831873
H    0.149137  3.112326  4.402983
H    -0.260013  1.410154  4.119544
N    -4.839199  0.432683  1.093432
C    -5.590092  1.122911  2.129169
H    -5.342701  0.110300  0.273063
H    -5.244309  2.155748  2.283734
H    -5.552903  0.595299  3.093777
H    -6.639590  1.168937  1.819977
