31
Energy: -16702.4763215 eV PBE+vdW (tier 2 basis)
C    -0.761563  0.166673  -0.352423
C    -0.503053  -0.111732  1.114836
O    0.635587  -0.237895  1.565436
H    -0.135788  -0.500820  -0.955238
H    -0.452954  1.198074  -0.569225
H    -1.811095  0.044514  -0.647240
N    -1.616789  -0.212258  1.899245
C    -1.562993  -0.280100  3.361940
C    -0.644441  0.870636  3.878316
O    -1.027050  2.018840  3.650268
H    -2.503655  0.041472  1.482914
H    -2.536492  0.113960  3.685881
C    -1.480729  -1.709715  3.956767
C    -0.660429  -2.807093  3.241398
C    -0.231051  -3.881054  4.249076
C    -1.446688  -3.459766  2.094829
H    -2.516187  -2.080212  4.040766
H    -1.137218  -1.602757  4.996571
H    0.243514  -2.352609  2.812593
H    -1.106534  -4.340922  4.733610
H    0.407067  -3.466661  5.041884
H    0.331505  -4.685277  3.754898
H    -1.773057  -2.727706  1.347326
H    -2.344261  -3.968981  2.479930
H    -0.833770  -4.213662  1.581433
N    0.452500  0.655030  4.663831
C    1.354959  -0.488490  4.712721
H    0.856173  1.547534  4.934181
H    2.320299  -0.137521  5.093472
H    1.512270  -0.906222  3.711707
H    0.997438  -1.273711  5.392275
