31
Energy: -16702.6242928 eV PBE+vdW (tier 2 basis)
C    -1.206016  -1.992186  -0.087976
C    -0.253743  -1.242434  0.823180
O    0.947406  -1.500497  0.857132
H    -1.810226  -2.693588  0.504333
H    -0.606788  -2.560249  -0.804332
H    -1.893212  -1.332487  -0.632077
N    -0.768723  -0.264353  1.638807
C    -2.129587  0.244247  1.762465
C    -3.111235  -0.909435  2.123283
O    -2.830829  -1.702542  3.015448
H    -0.076089  0.101818  2.283076
H    -2.119843  0.837550  2.689218
C    -2.572801  1.190893  0.626386
C    -1.678352  2.420290  0.327529
C    -1.332607  3.227216  1.585144
C    -0.424783  2.096600  -0.498134
H    -3.568348  1.577311  0.902571
H    -2.698222  0.630444  -0.314393
H    -2.309050  3.069282  -0.304249
H    -0.850775  4.175946  1.313236
H    -0.629751  2.690178  2.238726
H    -2.227416  3.468184  2.177417
H    -0.674606  1.499914  -1.386870
H    0.322409  1.535642  0.075376
H    0.050184  3.024461  -0.846202
N    -4.279897  -0.956872  1.422172
C    -5.289208  -1.971089  1.662165
H    -4.416849  -0.303278  0.662066
H    -6.272295  -1.513024  1.834594
H    -4.989659  -2.530617  2.554360
H    -5.365941  -2.670046  0.816531
