31
Energy: -16702.6402807 eV PBE+vdW (tier 2 basis)
C    0.190294  0.418059  0.056561
C    0.180067  0.507545  1.573591
O    1.183075  0.854938  2.198835
H    0.608047  1.347697  -0.346489
H    -0.796032  0.241409  -0.389901
H    0.861115  -0.399662  -0.238673
N    -0.998789  0.136752  2.155438
C    -1.350366  0.108687  3.583780
C    -1.976517  1.472862  3.992964
O    -3.197739  1.602983  3.868790
H    -1.774252  -0.035392  1.527290
H    -2.236556  -0.540063  3.629604
C    -0.303250  -0.504213  4.529935
C    -0.262446  -2.044860  4.546999
C    0.211644  -2.658917  3.222646
C    0.626196  -2.518069  5.704440
H    -0.562121  -0.164717  5.545376
H    0.698403  -0.117641  4.310070
H    -1.289027  -2.404703  4.742616
H    1.196315  -2.259935  2.937225
H    -0.481164  -2.453626  2.397292
H    0.304362  -3.750143  3.313943
H    0.279014  -2.121313  6.668874
H    1.665970  -2.186984  5.561720
H    0.634818  -3.614425  5.775462
N    -1.213964  2.504016  4.450280
C    0.219063  2.615079  4.687322
H    -1.786875  3.309834  4.684732
H    0.504355  3.668096  4.577378
H    0.782873  2.037517  3.946748
H    0.498482  2.287761  5.701037
