31
Energy: -16702.9882566 eV PBE+vdW (tier 2 basis)
C    -1.194667  -0.560288  0.024092
C    -0.737004  -0.251607  1.436073
O    0.453618  -0.354600  1.758633
H    -0.960360  -1.609498  -0.196120
H    -0.618691  0.056992  -0.675974
H    -2.265173  -0.393236  -0.145648
N    -1.715465  0.139497  2.298421
C    -1.573969  0.418545  3.739686
C    -0.831708  1.746166  4.036876
O    -1.387809  2.623962  4.700661
H    -2.646471  0.245986  1.915837
H    -2.593689  0.621327  4.090774
C    -1.044393  -0.810308  4.508928
C    -1.123236  -0.720919  6.047029
C    -1.133936  -2.136904  6.639320
C    0.011820  0.104866  6.668738
H    -0.013280  -1.034391  4.200207
H    -1.657910  -1.661265  4.172627
H    -2.079419  -0.236093  6.312115
H    -1.981170  -2.727246  6.262758
H    -1.204505  -2.106824  7.735316
H    -0.210024  -2.677383  6.382273
H    0.992066  -0.305802  6.382856
H    -0.052144  0.078740  7.765520
H    -0.019760  1.157375  6.366098
N    0.431033  1.827162  3.553749
C    1.270566  2.988634  3.763967
H    0.762096  1.043263  2.980334
H    1.664258  3.362465  2.809028
H    2.118995  2.753975  4.424171
H    0.664333  3.769408  4.235654
