31
Energy: -16702.8075369 eV PBE+vdW (tier 2 basis)
C    -0.131439  0.251497  0.541141
C    -0.270344  -0.111413  2.006347
O    0.481084  0.348584  2.861026
H    0.279773  1.263464  0.481792
H    -1.062692  0.195086  -0.031616
H    0.588938  -0.434639  0.073414
N    -1.227473  -1.045828  2.361831
C    -2.386132  -1.515804  1.593799
C    -1.979854  -2.315844  0.328234
O    -2.664706  -2.305441  -0.691362
H    -1.275713  -1.161264  3.370901
H    -2.856122  -2.267583  2.248454
C    -3.442066  -0.436254  1.283048
C    -4.894398  -0.949737  1.234382
C    -5.413836  -1.348966  2.621106
C    -5.801342  0.110666  0.600679
H    -3.204688  0.033662  0.318878
H    -3.362162  0.345675  2.054765
H    -4.909960  -1.836455  0.580927
H    -6.434684  -1.749835  2.557702
H    -5.438733  -0.480485  3.297281
H    -4.796655  -2.123340  3.099953
H    -5.475248  0.351085  -0.420339
H    -5.791060  1.043061  1.186391
H    -6.842817  -0.235545  0.548420
N    -0.849257  -3.059464  0.474881
C    -0.308255  -3.883633  -0.586994
H    -0.318244  -2.924673  1.328762
H    -0.138762  -4.911219  -0.238426
H    0.640748  -3.479077  -0.968979
H    -1.038447  -3.897120  -1.403059
