31
Energy: -16702.9293463 eV PBE+vdW (tier 2 basis)
C    -2.554542  -0.107472  0.325194
C    -1.688084  -0.384363  1.539806
O    -0.474725  -0.541796  1.457573
H    -2.311608  0.893226  -0.056004
H    -3.631852  -0.153897  0.529274
H    -2.303769  -0.826759  -0.462828
N    -2.367367  -0.457121  2.736557
C    -1.676091  -0.510596  4.019509
C    -2.085084  -1.731374  4.876541
O    -1.871662  -1.759675  6.086678
H    -3.345374  -0.189229  2.735719
H    -0.619089  -0.674584  3.751559
C    -1.773437  0.785264  4.837118
C    -3.205534  1.228361  5.224647
C    -3.231391  1.776083  6.656234
C    -3.786266  2.258902  4.244893
H    -1.265341  1.587012  4.280338
H    -1.188669  0.606808  5.748474
H    -3.856015  0.334863  5.213577
H    -2.567163  2.648605  6.752948
H    -2.894223  1.012780  7.369447
H    -4.242456  2.095528  6.946284
H    -3.202129  3.191087  4.276023
H    -4.825117  2.510706  4.500402
H    -3.774399  1.912148  3.201635
N    -2.652559  -2.759328  4.186391
C    -2.984849  -4.027036  4.804181
H    -2.736155  -2.648790  3.182109
H    -2.316655  -4.830796  4.461784
H    -4.022736  -4.311409  4.584298
H    -2.865657  -3.909146  5.886638
