31
Energy: -16703.0006847 eV PBE+vdW (tier 2 basis)
C    -1.984728  -0.629334  1.140553
C    -1.091015  -0.060979  2.224310
O    0.142644  -0.084779  2.119376
H    -1.594996  -0.329664  0.161837
H    -3.034054  -0.321109  1.226072
H    -1.940063  -1.726018  1.195117
N    -1.738424  0.443700  3.309212
C    -1.143429  0.890429  4.580448
C    -0.405739  2.252699  4.497238
O    -0.671156  3.140374  5.309090
H    -2.749316  0.460967  3.266041
H    -1.997687  1.107930  5.234292
C    -0.254139  -0.158181  5.281133
C    -0.974384  -1.357734  5.925991
C    -1.603534  -2.327143  4.914812
C    0.009552  -2.108396  6.833771
H    0.277235  0.386386  6.076683
H    0.515899  -0.514915  4.581544
H    -1.781821  -0.958267  6.565972
H    -2.434575  -1.876073  4.359182
H    -1.996259  -3.216943  5.426506
H    -0.857220  -2.666782  4.180792
H    -0.484359  -2.943173  7.349951
H    0.438720  -1.445613  7.597704
H    0.842562  -2.526639  6.248557
N    0.540497  2.343534  3.531091
C    1.345158  3.533192  3.340339
H    0.678648  1.521934  2.931832
H    2.411275  3.321702  3.507179
H    1.016094  4.286832  4.063700
H    1.223614  3.933062  2.323673
