31
Energy: -16702.8211284 eV PBE+vdW (tier 2 basis)
C    -0.432813  -1.169087  1.993198
C    0.250576  0.175001  1.792399
O    1.407967  0.375024  2.152858
H    0.254626  -1.812888  2.547736
H    -0.663695  -1.647304  1.030271
H    -1.373225  -1.078500  2.554581
N    -0.475291  1.157113  1.169835
C    -1.877408  1.125480  0.769350
C    -1.967397  1.951162  -0.524549
O    -1.618059  3.129063  -0.547159
H    -0.003609  2.054578  1.074238
H    -2.144372  0.080744  0.561428
C    -2.791643  1.688641  1.880045
C    -4.319110  1.538479  1.713055
C    -4.927203  2.469354  0.654199
C    -4.750966  0.082093  1.492199
H    -2.536373  2.751361  2.009228
H    -2.491800  1.181983  2.810525
H    -4.736103  1.851551  2.685439
H    -6.024348  2.455251  0.714407
H    -4.654430  2.168305  -0.366519
H    -4.593136  3.506095  0.791790
H    -5.843033  -0.016178  1.558283
H    -4.310187  -0.592299  2.240683
H    -4.460284  -0.286798  0.496573
N    -2.434468  1.279892  -1.614437
C    -2.612872  1.911139  -2.908556
H    -2.705846  0.311324  -1.499426
H    -3.678448  2.019969  -3.160146
H    -2.115946  1.331335  -3.697686
H    -2.160203  2.906967  -2.854392
