31
Energy: -16702.1991731 eV PBE+vdW (tier 2 basis)
C    0.431944  0.018102  1.789595
C    -0.744989  0.601725  2.532749
O    -0.600234  1.602717  3.235441
H    1.010954  -0.583895  2.501271
H    1.058268  0.852653  1.455141
H    0.176855  -0.638074  0.957201
N    -2.000542  0.019456  2.498820
C    -2.698289  -1.017312  1.739193
C    -2.003473  -2.396775  1.776370
O    -0.824383  -2.555612  2.072320
H    -2.617433  0.566689  3.093310
H    -3.611019  -1.176521  2.338652
C    -3.275258  -0.570646  0.360199
C    -2.413564  -0.322971  -0.897925
C    -1.634812  0.998721  -0.879425
C    -1.539265  -1.516619  -1.301669
H    -3.839744  0.352497  0.567256
H    -4.034790  -1.317139  0.085245
H    -3.169882  -0.211281  -1.695526
H    -1.215640  1.205890  -1.874044
H    -0.800390  0.992938  -0.172017
H    -2.289208  1.839897  -0.612202
H    -1.083362  -1.341754  -2.285720
H    -2.128200  -2.442826  -1.367663
H    -0.721982  -1.698720  -0.592254
N    -2.786320  -3.488792  1.492726
C    -4.213781  -3.604014  1.257359
H    -2.249202  -4.349812  1.526458
H    -4.543763  -4.600314  1.574761
H    -4.484868  -3.476806  0.197394
H    -4.778765  -2.871420  1.848031
