31
Energy: -16702.3254999 eV PBE+vdW (tier 2 basis)
C    -0.246970  -0.231186  1.325862
C    -0.841635  -0.109533  2.707229
O    -0.136955  -0.267742  3.705020
H    -0.136567  -1.300745  1.103610
H    -0.846484  0.197263  0.523333
H    0.753738  0.213300  1.357557
N    -2.190058  0.136894  2.912362
C    -3.362731  0.515653  2.120887
C    -3.712756  -0.464104  0.982641
O    -2.879150  -1.000178  0.259414
H    -2.359404  0.148789  3.914400
H    -4.179180  0.431592  2.852106
C    -3.443750  1.989825  1.633413
C    -2.434777  2.499516  0.582510
C    -3.107051  3.525932  -0.339605
C    -1.187075  3.110924  1.233887
H    -3.392506  2.632408  2.527334
H    -4.462464  2.117224  1.232661
H    -2.129491  1.649448  -0.046997
H    -3.491250  4.382609  0.235639
H    -3.950592  3.082099  -0.886940
H    -2.396078  3.918527  -1.079663
H    -0.715965  2.441584  1.962239
H    -0.432253  3.366863  0.477850
H    -1.451598  4.037925  1.765683
N    -5.051634  -0.680777  0.775822
C    -6.189124  -0.261928  1.578785
H    -5.226480  -1.312079  0.000256
H    -7.099522  -0.655375  1.114216
H    -6.290392  0.831992  1.624027
H    -6.144969  -0.654554  2.606159
