31
Energy: -16702.3328403 eV PBE+vdW (tier 2 basis)
C    1.089351  0.119997  0.331444
C    0.024397  -0.829839  0.843087
O    0.115491  -2.036751  0.612509
H    1.787694  -0.475924  -0.262517
H    1.637165  0.590998  1.156296
H    0.679552  0.919718  -0.296958
N    -1.048397  -0.383548  1.585321
C    -1.627591  0.888466  2.041099
C    -2.985087  1.223153  1.371282
O    -3.935422  1.529150  2.091838
H    -1.622362  -1.186152  1.836993
H    -1.960358  0.693466  3.070853
C    -0.720022  2.137050  2.102091
C    -0.034686  2.382593  3.468011
C    -1.049253  2.814081  4.535244
C    0.813142  1.202553  3.958824
H    -1.355871  3.009788  1.892316
H    0.028892  2.119231  1.304047
H    0.647254  3.234545  3.303783
H    -1.779961  2.021828  4.754427
H    -1.616711  3.698285  4.214653
H    -0.541387  3.059126  5.477894
H    1.609365  0.939488  3.250169
H    0.205283  0.301278  4.122144
H    1.294414  1.448760  4.915023
N    -3.124548  1.184978  0.013683
C    -2.129159  0.984310  -1.026094
H    -4.065636  1.428930  -0.278281
H    -1.267983  1.654700  -0.902386
H    -1.770567  -0.052636  -1.070500
H    -2.591351  1.225230  -1.989300
