31
Energy: -16702.8534347 eV PBE+vdW (tier 2 basis)
C    -0.970410  0.516029  -0.166418
C    -0.013311  0.090364  0.927955
O    1.109560  0.569809  1.055002
H    -0.481624  1.287691  -0.766036
H    -1.908881  0.912260  0.245134
H    -1.238282  -0.330805  -0.814014
N    -0.463529  -0.873592  1.807960
C    -1.716545  -1.623284  1.754853
C    -2.947551  -0.762830  2.116658
O    -4.035114  -0.953453  1.574093
H    0.253262  -1.193048  2.455114
H    -1.909198  -1.964622  0.727293
C    -1.543997  -2.858722  2.667503
C    -2.683380  -3.897321  2.771680
C    -3.821679  -3.476093  3.712537
C    -3.214136  -4.343971  1.403082
H    -1.297412  -2.503312  3.682623
H    -0.646532  -3.376452  2.291041
H    -2.200782  -4.774844  3.235786
H    -4.504624  -4.320034  3.882457
H    -4.414094  -2.652342  3.296817
H    -3.433253  -3.162980  4.692410
H    -3.889559  -5.202888  1.516376
H    -2.397796  -4.652639  0.733442
H    -3.778858  -3.540352  0.911750
N    -2.728958  0.174658  3.076729
C    -3.762648  1.071581  3.553349
H    -1.768027  0.316838  3.369824
H    -3.876231  0.997254  4.643493
H    -4.702902  0.777968  3.074501
H    -3.540812  2.115878  3.290712
