31
Energy: -16702.944329 eV PBE+vdW (tier 2 basis)
C    -1.245098  -1.493448  -0.784462
C    -0.727945  -1.023931  0.563651
O    0.377631  -0.515159  0.704930
H    -2.189598  -2.049482  -0.729989
H    -0.482337  -2.123823  -1.256234
H    -1.388076  -0.616536  -1.429279
N    -1.585356  -1.221280  1.624595
C    -1.329335  -0.653134  2.946418
C    -0.492280  -1.565253  3.867637
O    -0.013947  -1.126250  4.911734
H    -2.534645  -1.514841  1.419569
H    -0.709662  0.242546  2.798403
C    -2.680965  -0.276511  3.587018
C    -2.647232  0.511931  4.907788
C    -1.910719  1.848459  4.768995
C    -4.082076  0.720459  5.407536
H    -3.262932  -1.202267  3.740949
H    -3.232349  0.321720  2.840240
H    -2.104623  -0.092234  5.649713
H    -0.847315  1.703342  4.541628
H    -1.968339  2.419700  5.705574
H    -2.354226  2.469287  3.974501
H    -4.667217  1.329393  4.700569
H    -4.089242  1.240401  6.375030
H    -4.608386  -0.235991  5.539047
N    -0.364894  -2.856668  3.458844
C    0.441126  -3.824162  4.175482
H    -0.705852  -3.075124  2.529439
H    0.705009  -3.384009  5.143171
H    1.368131  -4.059271  3.632193
H    -0.119251  -4.753866  4.342310
