31
Energy: -16703.0799893 eV PBE+vdW (tier 2 basis)
C    0.273923  1.079264  0.666618
C    -0.184475  0.764178  2.075127
O    0.104238  1.491765  3.032808
H    -0.090545  2.077462  0.394226
H    -0.071423  0.356401  -0.082474
H    1.370285  1.115888  0.650882
N    -0.940786  -0.360145  2.219057
C    -1.475036  -0.790413  3.513805
C    -0.372796  -1.588659  4.266438
O    -0.330608  -2.817356  4.268696
H    -1.072968  -0.973664  1.422934
H    -1.677335  0.136551  4.071745
C    -2.761554  -1.597271  3.333596
C    -3.754258  -1.503818  4.508421
C    -5.035747  -2.272301  4.164787
C    -3.172817  -1.987502  5.843122
H    -2.490225  -2.650985  3.158942
H    -3.271197  -1.229405  2.429379
H    -4.022308  -0.437782  4.623307
H    -5.786311  -2.167019  4.960124
H    -4.828363  -3.346209  4.044345
H    -5.485643  -1.911885  3.228706
H    -3.931633  -1.926156  6.635607
H    -2.313314  -1.385440  6.168150
H    -2.833906  -3.030349  5.772551
N    0.530106  -0.782937  4.886927
C    1.719698  -1.306254  5.530143
H    0.486554  0.209191  4.644314
H    2.602538  -1.244142  4.874895
H    1.543964  -2.359369  5.773151
H    1.926943  -0.749640  6.452669
