31
Energy: -16702.6305199 eV PBE+vdW (tier 2 basis)
C    0.330683  -0.123414  1.110431
C    -0.077910  -0.086065  2.567365
O    0.749201  -0.174765  3.472418
H    1.382228  -0.420552  1.072750
H    0.235277  0.873328  0.656853
H    -0.278480  -0.833682  0.540635
N    -1.407262  0.099964  2.901204
C    -2.643870  0.104528  2.129825
C    -3.038388  -1.303479  1.626387
O    -2.208943  -2.117249  1.231677
H    -1.523029  0.065084  3.909491
H    -3.406446  0.434270  2.849107
C    -2.682074  1.092807  0.943203
C    -2.331944  2.548787  1.290857
C    -2.266855  3.385739  0.008243
C    -3.309563  3.159912  2.300937
H    -3.697638  1.059949  0.513887
H    -2.016033  0.729959  0.149010
H    -1.330381  2.553220  1.750882
H    -1.967516  4.420425  0.223970
H    -3.245802  3.421322  -0.494082
H    -1.542202  2.969510  -0.705635
H    -3.059232  4.210262  2.501945
H    -3.291659  2.635239  3.265993
H    -4.342319  3.133493  1.918961
N    -4.377995  -1.586769  1.601304
C    -5.482762  -0.790314  2.110738
H    -4.583354  -2.513213  1.240567
H    -6.417701  -1.313049  1.882899
H    -5.536314  0.199804  1.635799
H    -5.435343  -0.653616  3.202048
