31
Energy: -16702.7134631 eV PBE+vdW (tier 2 basis)
C    -0.484600  1.403808  0.951561
C    -0.174348  0.385981  2.039258
O    0.885416  0.413003  2.660126
H    0.394934  2.042258  0.835967
H    -1.343463  2.033871  1.225296
H    -0.710371  0.928254  -0.012838
N    -1.112859  -0.581925  2.290084
C    -2.464870  -0.675708  1.774906
C    -3.454170  -0.475464  2.941087
O    -3.200308  -0.906355  4.063236
H    -0.921984  -1.139277  3.121164
H    -2.598185  0.114947  1.028801
C    -2.775044  -2.050453  1.131713
C    -2.191915  -2.340260  -0.267308
C    -2.724108  -1.374945  -1.334457
C    -0.660806  -2.435450  -0.310535
H    -3.870931  -2.153521  1.068191
H    -2.445530  -2.825195  1.841218
H    -2.579436  -3.341782  -0.523210
H    -2.387359  -1.675499  -2.335829
H    -2.368534  -0.346034  -1.174660
H    -3.823550  -1.350863  -1.347988
H    -0.332803  -2.846297  -1.275622
H    -0.274386  -3.088971  0.482714
H    -0.177029  -1.458461  -0.189558
N    -4.633881  0.151857  2.657649
C    -5.044290  0.751175  1.398099
H    -5.260708  0.222479  3.453031
H    -4.387565  1.581306  1.096664
H    -5.079373  0.018371  0.578960
H    -6.053731  1.156713  1.522206
