31
Energy: -16702.6569979 eV PBE+vdW (tier 2 basis)
C    -0.796527  -0.318235  -0.165398
C    -0.575488  0.235072  1.233005
O    -0.193633  1.383004  1.423810
H    -0.674484  -1.407415  -0.230353
H    -0.100867  0.169676  -0.854982
H    -1.820232  -0.065668  -0.476011
N    -0.819156  -0.679047  2.239466
C    -1.069096  -0.357310  3.638937
C    -2.519237  0.165563  3.809913
O    -3.168253  0.596561  2.862737
H    -1.261856  -1.535830  1.926553
H    -0.996165  -1.317052  4.175952
C    -0.043431  0.614915  4.256409
C    1.426197  0.178052  4.137908
C    2.330425  1.280841  4.699347
C    1.701373  -1.165026  4.823454
H    -0.287688  0.732261  5.324052
H    -0.167776  1.595683  3.783949
H    1.655974  0.071598  3.066357
H    3.392076  1.021367  4.585217
H    2.142252  1.442874  5.772344
H    2.158903  2.233316  4.180081
H    2.766061  -1.428307  4.757709
H    1.137912  -1.989450  4.364361
H    1.437459  -1.127740  5.892561
N    -3.064768  0.105223  5.066206
C    -2.489771  -0.380828  6.307571
H    -3.993882  0.513604  5.106171
H    -1.956629  0.403215  6.868433
H    -1.789135  -1.203395  6.122196
H    -3.292299  -0.772485  6.944604
