31
Energy: -16702.9255673 eV PBE+vdW (tier 2 basis)
C    -0.117736  1.061413  -0.877477
C    0.044129  0.388081  0.471901
O    1.026960  -0.301850  0.744783
H    0.681447  1.804769  -0.996928
H    -1.086239  1.559346  -1.007750
H    0.014335  0.309994  -1.664862
N    -0.955445  0.638751  1.369805
C    -1.027691  -0.038017  2.649605
C    -2.475167  -0.521787  2.819617
O    -3.408872  0.081191  2.285453
H    -1.830085  1.060196  1.064599
H    -0.323065  -0.880918  2.593313
C    -0.645013  0.844559  3.861389
C    0.831764  1.294183  3.921913
C    1.098294  2.568166  3.110011
C    1.258456  1.497396  5.381619
H    -0.873387  0.266468  4.770718
H    -1.313004  1.721136  3.884862
H    1.445505  0.484622  3.493547
H    0.831439  2.450302  2.054403
H    2.160839  2.843770  3.157853
H    0.516510  3.412444  3.511298
H    2.307710  1.817243  5.447013
H    1.153166  0.572064  5.966060
H    0.646258  2.272146  5.868857
N    -2.688436  -1.612641  3.607540
C    -1.702134  -2.452303  4.267899
H    -3.670821  -1.835684  3.733093
H    -0.879493  -2.712420  3.589730
H    -2.188129  -3.385181  4.572936
H    -1.276093  -1.979437  5.166198
