31
Energy: -16702.6076578 eV PBE+vdW (tier 2 basis)
C    -0.046340  0.067593  -0.029849
C    0.116987  0.093587  1.481987
O    1.224561  0.100727  2.010800
H    0.952687  0.007100  -0.468932
H    -0.537925  0.981398  -0.394185
H    -0.637801  -0.794347  -0.369517
N    -1.026566  0.082668  2.246200
C    -2.385470  0.281711  1.778873
C    -2.774644  1.773150  1.889283
O    -2.249003  2.513551  2.716572
H    -0.844702  0.276833  3.227088
H    -2.390579  0.004659  0.717275
C    -3.391912  -0.682386  2.465582
C    -3.896089  -0.415407  3.903854
C    -2.782297  -0.224228  4.942814
C    -4.930195  0.717246  3.991952
H    -2.903216  -1.668265  2.441639
H    -4.277326  -0.767388  1.816407
H    -4.426974  -1.345880  4.170702
H    -2.037228  -1.030910  4.896265
H    -3.203435  -0.223967  5.957577
H    -2.269129  0.739163  4.810406
H    -5.407897  0.720269  4.981502
H    -5.725953  0.595185  3.242472
H    -4.473155  1.704667  3.851804
N    -3.719203  2.243539  1.017947
C    -4.525150  1.505635  0.062107
H    -3.969543  3.212109  1.195685
H    -4.907929  2.203015  -0.691674
H    -5.383933  0.998061  0.529749
H    -3.924895  0.754034  -0.465517
