31
Energy: -16702.6998052 eV PBE+vdW (tier 2 basis)
C    -1.082621  0.456553  -0.180395
C    -0.523612  0.417078  1.227444
O    0.399312  1.154345  1.562863
H    -0.339502  0.004438  -0.851864
H    -1.191752  1.506225  -0.473217
H    -2.032769  -0.063677  -0.322001
N    -0.996376  -0.529178  2.123316
C    -2.240800  -1.308033  2.152292
C    -2.423647  -2.260945  0.945415
O    -3.535629  -2.623077  0.571274
H    -0.537142  -0.413885  3.024140
H    -2.080332  -2.023876  2.977341
C    -3.504453  -0.520759  2.566998
C    -3.920024  0.739578  1.784402
C    -4.687883  0.434186  0.492311
C    -4.762295  1.647972  2.692562
H    -3.334281  -0.226397  3.614773
H    -4.338668  -1.238511  2.577754
H    -3.009511  1.306661  1.529219
H    -5.644309  -0.057913  0.721920
H    -4.146829  -0.240421  -0.180211
H    -4.908843  1.361323  -0.054929
H    -4.200570  1.959053  3.584405
H    -5.672605  1.130515  3.031813
H    -5.077497  2.555799  2.160105
N    -1.258122  -2.735983  0.425391
C    -1.215260  -3.676450  -0.675615
H    -0.395463  -2.346546  0.789674
H    -0.609185  -4.555522  -0.418313
H    -0.800924  -3.214718  -1.584048
H    -2.242338  -3.997027  -0.879788
