31
Energy: -16702.671712 eV PBE+vdW (tier 2 basis)
C    0.181546  0.114910  0.688008
C    -0.414583  -0.505813  1.934008
O    0.195250  -1.338636  2.602702
H    1.255795  -0.087459  0.698632
H    0.004783  1.193371  0.609600
H    -0.251722  -0.348444  -0.209785
N    -1.693953  -0.149643  2.301546
C    -2.616968  0.843694  1.744402
C    -2.812213  0.671888  0.217175
O    -2.547991  1.568094  -0.581176
H    -1.982798  -0.615086  3.157019
H    -3.589244  0.597834  2.201292
C    -2.269063  2.293051  2.114104
C    -3.439306  3.290338  2.018088
C    -4.513123  3.035387  3.083654
C    -2.908168  4.724741  2.117195
H    -1.455831  2.636944  1.460590
H    -1.878752  2.286738  3.144256
H    -3.897848  3.174811  1.022857
H    -5.341185  3.750542  2.984360
H    -4.097569  3.147522  4.096953
H    -4.951635  2.029338  3.014240
H    -3.722669  5.457967  2.037436
H    -2.186263  4.935197  1.316583
H    -2.402102  4.894235  3.080222
N    -3.309577  -0.528144  -0.208115
C    -3.678223  -1.697924  0.572255
H    -3.389235  -0.586421  -1.218426
H    -4.319641  -2.337303  -0.044513
H    -4.256173  -1.417643  1.463133
H    -2.805753  -2.282679  0.897059
