31
Energy: -16702.6844306 eV PBE+vdW (tier 2 basis)
C    0.664530  -0.019672  0.036220
C    0.562236  0.186415  1.539893
O    1.568765  0.325672  2.233606
H    1.285463  0.779870  -0.385083
H    -0.300481  -0.038228  -0.485487
H    1.184056  -0.968499  -0.149885
N    -0.719012  0.197809  2.023636
C    -1.219179  0.281117  3.403107
C    -1.843777  1.648218  3.783067
O    -2.976192  1.656440  4.270357
H    -1.447176  0.091192  1.327523
H    -2.107494  -0.364318  3.421879
C    -0.273268  -0.221875  4.506829
C    0.144118  -1.700235  4.400463
C    1.153601  -2.020241  5.508906
C    -1.049786  -2.660413  4.449969
H    -0.819086  -0.072976  5.453260
H    0.628597  0.399206  4.552814
H    0.660754  -1.836845  3.437429
H    0.704375  -1.886951  6.505179
H    2.032432  -1.364304  5.444535
H    1.503863  -3.059342  5.439284
H    -1.741036  -2.515824  3.608096
H    -1.625606  -2.531837  5.379238
H    -0.710224  -3.704625  4.411686
N    -1.150863  2.808604  3.609584
C    0.177198  3.052677  3.073434
H    -1.699060  3.617723  3.887375
H    0.628909  3.895955  3.610624
H    0.150200  3.300631  2.000166
H    0.829124  2.182701  3.200148
