31
Energy: -16702.7907885 eV PBE+vdW (tier 2 basis)
C    -1.853247  -0.151915  0.079410
C    -1.147273  -0.445575  1.393679
O    -0.472588  -1.459583  1.553798
H    -1.662373  -0.990530  -0.594971
H    -1.471117  0.769976  -0.382192
H    -2.939068  -0.039965  0.209646
N    -1.310112  0.458835  2.412488
C    -1.955977  1.759361  2.361706
C    -0.901229  2.863320  2.129948
O    0.089166  2.963098  2.847849
H    -0.721896  0.273650  3.221879
H    -2.662788  1.746220  1.521547
C    -2.723408  2.087150  3.656137
C    -3.954690  1.218846  4.000336
C    -4.963809  1.140130  2.847851
C    -3.609004  -0.179414  4.532142
H    -3.053182  3.135455  3.570865
H    -2.006077  2.068307  4.491441
H    -4.450143  1.758750  4.825639
H    -5.898670  0.669073  3.180267
H    -4.580946  0.533293  2.013872
H    -5.216128  2.136459  2.455569
H    -4.508813  -0.672145  4.926563
H    -2.875671  -0.126616  5.349024
H    -3.190410  -0.826144  3.751016
N    -1.171130  3.705617  1.089192
C    -0.317800  4.827585  0.743550
H    -2.007622  3.539825  0.543042
H    -0.850958  5.782996  0.847211
H    0.058547  4.738468  -0.284703
H    0.531262  4.816343  1.435227
