31
Energy: -16702.6619147 eV PBE+vdW (tier 2 basis)
C    -0.346233  0.346277  -0.139419
C    -0.193516  0.564203  1.352825
O    0.878771  0.872213  1.870827
H    0.641608  0.434801  -0.598094
H    -1.018384  1.093996  -0.584247
H    -0.765620  -0.643393  -0.367442
N    -1.320689  0.410379  2.123279
C    -2.682034  0.167109  1.678279
C    -3.412303  1.329317  0.959814
O    -4.332538  1.043586  0.194278
H    -1.157936  0.584067  3.111117
H    -2.653995  -0.595959  0.886855
C    -3.524736  -0.451378  2.813796
C    -3.770719  0.390645  4.084224
C    -4.905482  1.409379  3.911777
C    -4.064587  -0.537961  5.270071
H    -3.011636  -1.383743  3.095691
H    -4.492590  -0.744927  2.381722
H    -2.848172  0.946885  4.334084
H    -4.735483  2.102012  3.079248
H    -5.033809  2.008256  4.823997
H    -5.856351  0.892905  3.714934
H    -3.226736  -1.221637  5.464459
H    -4.957350  -1.150592  5.073422
H    -4.252810  0.035988  6.187616
N    -3.025329  2.631227  1.125886
C    -2.121225  3.260939  2.082614
H    -3.592954  3.252965  0.557808
H    -2.326432  4.337300  2.072865
H    -1.063217  3.113112  1.831167
H    -2.291859  2.907518  3.107285
