31
Energy: -16702.7545475 eV PBE+vdW (tier 2 basis)
C    -0.604985  -0.912383  -0.013507
C    -0.037773  -0.356930  1.280147
O    1.115363  -0.574607  1.637419
H    0.147470  -1.568593  -0.457975
H    -1.529316  -1.483748  0.151811
H    -0.831812  -0.100878  -0.719740
N    -0.888237  0.389040  2.065961
C    -2.194212  0.897308  1.702311
C    -2.100968  2.050507  0.669970
O    -1.093026  2.735347  0.536037
H    -0.404481  0.855841  2.828448
H    -2.757396  0.075472  1.231466
C    -2.979655  1.295809  2.974028
C    -2.460902  2.503152  3.787587
C    -2.954136  3.847301  3.234732
C    -2.866153  2.345976  5.258930
H    -2.982761  0.400572  3.614345
H    -4.031148  1.480488  2.700943
H    -1.357828  2.514733  3.745823
H    -4.054355  3.888960  3.243248
H    -2.609487  4.030504  2.210721
H    -2.587162  4.677199  3.853940
H    -2.455226  1.424634  5.694411
H    -2.509045  3.192482  5.860914
H    -3.961479  2.305308  5.362902
N    -3.239440  2.233028  -0.062941
C    -3.399386  3.325802  -1.003845
H    -4.033629  1.631639  0.121737
H    -3.759985  2.958099  -1.973422
H    -2.416431  3.789297  -1.138987
H    -4.099370  4.086552  -0.627468
