31
Energy: -16702.3932498 eV PBE+vdW (tier 2 basis)
C    -0.489649  0.813650  -0.896394
C    -0.285538  -0.293039  0.120046
O    0.614664  -1.119051  -0.035629
H    0.249062  0.659679  -1.687330
H    -1.492936  0.799594  -1.338065
H    -0.335758  1.804060  -0.450965
N    -1.073370  -0.382860  1.248550
C    -2.285083  0.254273  1.793135
C    -3.429420  -0.783780  1.907876
O    -3.909657  -1.026547  3.016836
H    -0.757084  -1.170409  1.811671
H    -2.059083  0.449162  2.850908
C    -2.681745  1.604578  1.176152
C    -3.826408  2.381325  1.873078
C    -5.226213  1.827731  1.568120
C    -3.610652  2.562976  3.381035
H    -2.946496  1.497621  0.116073
H    -1.782189  2.237414  1.209436
H    -3.778431  3.384188  1.415024
H    -5.415959  0.877087  2.081358
H    -5.369308  1.670021  0.489213
H    -5.995518  2.537146  1.902955
H    -4.343179  3.273283  3.788078
H    -3.733899  1.617085  3.925722
H    -2.608882  2.959453  3.602561
N    -3.884920  -1.434244  0.797733
C    -3.464420  -1.337152  -0.589891
H    -4.603036  -2.115389  1.023240
H    -3.495546  -0.302104  -0.954331
H    -4.166831  -1.916132  -1.198868
H    -2.455640  -1.740613  -0.753694
