31
Energy: -16702.9840179 eV PBE+vdW (tier 2 basis)
C    -1.004580  -0.199175  -0.061540
C    -0.560451  0.013513  1.372400
O    0.629383  0.217146  1.647820
H    -0.482920  -1.078148  -0.460714
H    -0.691845  0.665770  -0.659189
H    -2.085276  -0.344815  -0.178284
N    -1.550047  -0.032073  2.306354
C    -1.402467  0.059977  3.771115
C    -1.026706  1.479420  4.264316
O    -1.747587  2.064461  5.077045
H    -2.495023  -0.149656  1.963270
H    -2.416828  -0.078745  4.163044
C    -0.504863  -1.074379  4.314295
C    -0.408711  -1.231656  5.849024
C    0.490880  -0.186566  6.526346
C    -1.780393  -1.312685  6.532780
H    0.505658  -0.968150  3.897423
H    -0.915301  -2.007939  3.896503
H    0.083715  -2.209543  5.988322
H    0.027666  0.808234  6.541021
H    1.461278  -0.104171  6.017423
H    0.683330  -0.471059  7.570373
H    -1.668958  -1.597725  7.587990
H    -2.427425  -2.063638  6.055262
H    -2.301442  -0.345325  6.509784
N    0.128703  1.986412  3.779956
C    0.617189  3.287694  4.191595
H    0.627325  1.437082  3.071729
H    1.462687  3.565423  3.553660
H    0.950559  3.276817  5.240346
H    -0.170581  4.047550  4.101600
