31
Energy: -16702.8341882 eV PBE+vdW (tier 2 basis)
C    1.421482  0.250591  2.152478
C    0.802216  1.441111  2.869182
O    1.460715  2.163220  3.613808
H    0.893612  -0.688279  2.369709
H    2.458373  0.162495  2.486686
H    1.413700  0.394420  1.062261
N    -0.523817  1.692254  2.632157
C    -1.466935  0.911809  1.847454
C    -2.469719  1.915308  1.255291
O    -2.981891  2.785662  1.955990
H    -0.918178  2.495569  3.119348
H    -0.920036  0.415833  1.030999
C    -2.171203  -0.171345  2.699113
C    -3.100349  -1.138963  1.935894
C    -3.093790  -2.521082  2.602355
C    -4.537707  -0.613585  1.816343
H    -2.723954  0.332499  3.507278
H    -1.368027  -0.744024  3.186691
H    -2.694585  -1.265660  0.914182
H    -3.750391  -3.223975  2.071027
H    -3.451073  -2.454934  3.640973
H    -2.083679  -2.953315  2.624240
H    -5.157171  -1.298742  1.220904
H    -4.590518  0.376645  1.348730
H    -4.998141  -0.529350  2.811731
N    -2.739651  1.755435  -0.070225
C    -3.719402  2.561137  -0.775350
H    -2.280524  0.999253  -0.562724
H    -4.593832  1.962804  -1.070078
H    -3.279484  3.017043  -1.671867
H    -4.046042  3.353167  -0.093579
