31
Energy: -16702.584048 eV PBE+vdW (tier 2 basis)
C    -0.154516  0.315601  0.234208
C    0.060775  0.895746  1.622854
O    0.886391  1.776468  1.833054
H    0.795428  0.333375  -0.308978
H    -0.865810  0.960838  -0.300357
H    -0.553300  -0.707353  0.241787
N    -0.731533  0.318728  2.594269
C    -1.034900  0.878602  3.905610
C    -2.082185  2.015057  3.754226
O    -2.278429  2.579699  2.683964
H    -1.452934  -0.293658  2.230712
H    -1.518999  0.061946  4.465788
C    0.194660  1.354612  4.713430
C    1.092800  0.263336  5.336828
C    0.350818  -0.606509  6.360062
C    1.834256  -0.600109  4.307887
H    -0.174905  1.989774  5.531766
H    0.790920  2.000664  4.059864
H    1.860564  0.827979  5.894032
H    -0.416034  -1.237203  5.884189
H    -0.143207  0.002763  7.130911
H    1.045608  -1.287477  6.870666
H    2.347080  0.020618  3.562138
H    1.146906  -1.265785  3.768377
H    2.585455  -1.229917  4.805186
N    -2.807031  2.349473  4.869527
C    -2.765073  1.784586  6.206215
H    -3.433154  3.132181  4.706988
H    -3.743598  1.922870  6.681477
H    -2.001874  2.253458  6.847895
H    -2.564965  0.707154  6.175439
