31
Energy: -16702.7702415 eV PBE+vdW (tier 2 basis)
C    -0.080834  1.690870  0.537685
C    0.140425  0.809552  1.756236
O    1.240334  0.700088  2.291068
H    0.885103  2.118305  0.257158
H    -0.781667  2.510542  0.750775
H    -0.484163  1.122688  -0.311932
N    -0.953062  0.141323  2.253332
C    -2.291247  0.056287  1.671622
C    -3.288037  0.074275  2.850746
O    -3.682220  -0.964299  3.377206
H    -0.736784  -0.495482  3.017384
H    -2.434570  0.959015  1.066448
C    -2.484770  -1.184508  0.792934
C    -3.806638  -1.222439  0.005952
C    -3.925488  -0.068864  -0.999137
C    -3.954368  -2.575298  -0.699434
H    -2.420733  -2.071440  1.439668
H    -1.636834  -1.233739  0.089943
H    -4.631930  -1.134774  0.732372
H    -4.860499  -0.142495  -1.571157
H    -3.094245  -0.086576  -1.721143
H    -3.924785  0.917628  -0.513916
H    -4.910129  -2.642214  -1.237351
H    -3.913963  -3.404681  0.019518
H    -3.148445  -2.728401  -1.433623
N    -3.683011  1.301687  3.301711
C    -3.187058  2.604267  2.886937
H    -4.267904  1.256138  4.130417
H    -3.717691  3.372848  3.458399
H    -3.382518  2.795764  1.822008
H    -2.109604  2.720225  3.076728
