31
Energy: -16703.0591517 eV PBE+vdW (tier 2 basis)
C    -0.395736  -1.004854  -0.735260
C    -0.316631  -0.757673  0.756619
O    0.744821  -0.447032  1.310709
H    -1.400879  -1.267981  -1.086603
H    0.299186  -1.811935  -0.998236
H    -0.060258  -0.100855  -1.258653
N    -1.484771  -0.886800  1.445843
C    -1.577640  -0.654070  2.889024
C    -1.153170  -1.951720  3.633590
O    -1.967519  -2.760395  4.074854
H    -2.308943  -1.229059  0.964921
H    -0.833433  0.125754  3.105461
C    -2.985304  -0.193849  3.277307
C    -3.070318  0.718939  4.521005
C    -2.512639  0.071178  5.795373
C    -2.437718  2.095232  4.273837
H    -3.601608  -1.091315  3.438512
H    -3.411662  0.356922  2.424211
H    -4.149151  0.882383  4.684545
H    -2.960935  -0.913235  5.978701
H    -2.709560  0.709686  6.667715
H    -1.422628  -0.069104  5.738032
H    -1.349750  2.027519  4.125068
H    -2.602685  2.759938  5.132994
H    -2.864769  2.582717  3.385891
N    0.196842  -2.091506  3.716616
C    0.819791  -3.288744  4.246710
H    0.750398  -1.447368  3.147526
H    0.092093  -3.800982  4.884759
H    1.702887  -3.024259  4.841779
H    1.127690  -3.980533  3.447151
