31
Energy: -16702.7715329 eV PBE+vdW (tier 2 basis)
C    -0.514844  -0.509143  0.144383
C    -0.321117  -0.492595  1.652453
O    0.683396  -0.957659  2.180323
H    -0.491410  -1.550239  -0.200818
H    0.332525  0.008279  -0.321933
H    -1.447196  -0.040016  -0.194178
N    -1.343607  0.101218  2.356509
C    -1.460670  0.083640  3.819957
C    -2.770064  0.750366  4.264634
O    -3.342455  0.396317  5.289446
H    -2.210451  0.236772  1.847328
H    -1.539532  -0.956488  4.172935
C    -0.241109  0.708497  4.543213
C    0.114379  2.164184  4.170298
C    -0.524362  3.186637  5.120305
C    1.636895  2.345368  4.122738
H    0.608896  0.052600  4.324594
H    -0.442080  0.628250  5.622146
H    -0.260640  2.355644  3.148476
H    -0.105413  3.082862  6.132425
H    -1.611267  3.060390  5.207256
H    -0.330897  4.216156  4.786766
H    2.092846  1.657358  3.398388
H    2.085360  2.141564  5.107016
H    1.909761  3.372430  3.841398
N    -3.243536  1.750050  3.452208
C    -4.392520  2.551517  3.837293
H    -2.597121  2.140947  2.774026
H    -4.894972  2.935159  2.941725
H    -4.109723  3.399123  4.481553
H    -5.083475  1.915511  4.399703
