31
Energy: -16702.3638432 eV PBE+vdW (tier 2 basis)
C    0.105445  -0.218846  1.238830
C    -0.307600  -0.280746  2.695965
O    0.460497  -0.689629  3.563308
H    -0.004458  0.790395  0.822192
H    -0.497105  -0.910829  0.635053
H    1.154867  -0.517799  1.177311
N    -1.572839  0.133447  3.044318
C    -2.724935  0.561672  2.239793
C    -3.288464  -0.642334  1.426429
O    -3.806603  -1.555043  2.067997
H    -1.770747  -0.073619  4.018468
H    -3.518868  0.674182  2.989720
C    -2.550816  1.946982  1.596314
C    -3.869670  2.622215  1.166708
C    -4.737113  3.022376  2.367499
C    -3.571783  3.840248  0.284830
H    -1.860648  1.916735  0.744651
H    -2.059648  2.580782  2.352004
H    -4.453362  1.903532  0.564724
H    -5.022673  2.162430  2.988113
H    -5.668118  3.499890  2.033378
H    -4.206614  3.740073  3.011190
H    -2.983796  4.588983  0.836874
H    -4.497299  4.327693  -0.050602
H    -2.995149  3.562042  -0.609017
N    -3.219448  -0.742654  0.059736
C    -2.736708  0.139811  -0.992777
H    -3.664721  -1.603396  -0.246226
H    -2.769330  -0.420808  -1.933309
H    -1.697654  0.449261  -0.835221
H    -3.359758  1.036644  -1.117909
