31
Energy: -16702.6807522 eV PBE+vdW (tier 2 basis)
C    -0.362832  1.182799  0.533703
C    -0.514666  0.571073  1.916459
O    0.127320  0.966955  2.883985
H    -0.455632  2.271903  0.618338
H    -1.090118  0.814854  -0.201077
H    0.648910  0.968748  0.165605
N    -1.430527  -0.443959  2.008437
C    -1.636712  -1.247367  3.213865
C    -1.820929  -0.397498  4.499079
O    -1.223650  -0.673015  5.533110
H    -1.886646  -0.749906  1.157922
H    -2.600038  -1.762430  3.059524
C    -0.535364  -2.295237  3.428591
C    -0.295962  -3.245495  2.244966
C    0.890773  -4.166367  2.553307
C    -1.538162  -4.067971  1.877645
H    -0.795162  -2.873972  4.327158
H    0.393653  -1.762629  3.674092
H    -0.018703  -2.635819  1.366857
H    1.123089  -4.819604  1.700577
H    0.674092  -4.811408  3.418199
H    1.793090  -3.586624  2.790987
H    -1.885811  -4.659862  2.738144
H    -1.320466  -4.768827  1.059834
H    -2.380610  -3.441660  1.548614
N    -2.753812  0.605498  4.476608
C    -3.591454  1.084292  3.394338
H    -2.770468  1.126261  5.347555
H    -4.450454  1.611273  3.827389
H    -3.987110  0.252209  2.798494
H    -3.066704  1.776528  2.717195
