31
Energy: -16702.8858527 eV PBE+vdW (tier 2 basis)
C    1.142438  -0.062585  2.903877
C    0.639960  1.300778  3.355597
O    1.288424  2.009407  4.121807
H    2.069399  -0.272467  3.443596
H    1.354658  -0.069104  1.824785
H    0.418593  -0.864092  3.106160
N    -0.563453  1.718475  2.851949
C    -1.486861  0.983830  2.003636
C    -2.210027  2.021434  1.128102
O    -2.650591  3.060703  1.614413
H    -0.885745  2.633025  3.164793
H    -0.905641  0.303489  1.365781
C    -2.516991  0.180139  2.831831
C    -3.489623  -0.707854  2.037888
C    -2.771021  -1.828621  1.274938
C    -4.550198  -1.290830  2.979662
H    -3.085564  0.905775  3.433009
H    -1.954806  -0.443205  3.546414
H    -4.013125  -0.072409  1.302782
H    -2.214251  -2.478969  1.966760
H    -2.051299  -1.450074  0.534762
H    -3.488398  -2.459685  0.732910
H    -5.102073  -0.496120  3.499582
H    -4.088118  -1.932190  3.745411
H    -5.278523  -1.902800  2.429843
N    -2.339929  1.687328  -0.185935
C    -3.049757  2.516183  -1.142981
H    -1.938471  0.811886  -0.498503
H    -2.389547  2.827092  -1.963924
H    -3.398939  3.406830  -0.610427
H    -3.916521  1.986630  -1.562518
