31
Energy: -16702.6047934 eV PBE+vdW (tier 2 basis)
C    0.931696  0.389637  -0.287991
C    0.675122  -0.145058  1.112545
O    1.545707  -0.761773  1.726618
H    1.917983  0.866257  -0.307232
H    0.177128  1.102724  -0.643351
H    0.962552  -0.460522  -0.983005
N    -0.584348  0.105655  1.586275
C    -1.264226  -0.334670  2.814339
C    -1.437274  0.790213  3.867607
O    -2.574409  1.042381  4.272280
H    -1.175736  0.647141  0.967112
H    -2.309347  -0.492505  2.515535
C    -0.768043  -1.646759  3.461288
C    -1.314438  -2.956689  2.847795
C    -2.830113  -3.102399  3.034374
C    -0.910663  -3.178798  1.384351
H    -1.095345  -1.611455  4.511559
H    0.326504  -1.672147  3.464182
H    -0.838076  -3.758103  3.438552
H    -3.392422  -2.362506  2.445255
H    -3.122505  -2.975072  4.085838
H    -3.168415  -4.095054  2.706661
H    -1.209208  -4.183017  1.052568
H    0.173614  -3.082133  1.245347
H    -1.403152  -2.458247  0.714713
N    -0.358266  1.463549  4.355042
C    1.055638  1.343368  4.045183
H    -0.631696  2.178763  5.023087
H    1.638904  1.457969  4.967857
H    1.385408  2.112185  3.328391
H    1.290457  0.365360  3.614873
