31
Energy: -16702.5852916 eV PBE+vdW (tier 2 basis)
C    -0.728498  0.384879  -0.368545
C    -0.505351  0.774068  1.080038
O    0.579782  1.180986  1.493541
H    0.224546  0.480972  -0.894422
H    -1.472699  1.036728  -0.848287
H    -1.091013  -0.648164  -0.463971
N    -1.579115  0.668589  1.929403
C    -2.942567  0.292124  1.595674
C    -3.821348  1.329575  0.851762
O    -4.824658  0.913621  0.272147
H    -1.368009  0.949093  2.881304
H    -2.886527  -0.511176  0.846018
C    -3.688066  -0.351920  2.788194
C    -4.095031  0.471777  4.032280
C    -2.923835  1.047898  4.841816
C    -5.151184  1.547504  3.747120
H    -3.063836  -1.196815  3.119017
H    -4.603278  -0.787445  2.363766
H    -4.578159  -0.277466  4.683359
H    -2.141591  0.297878  5.028451
H    -3.272253  1.407638  5.819647
H    -2.460017  1.914317  4.345616
H    -4.738648  2.393572  3.181485
H    -5.549379  1.952263  4.687900
H    -5.991139  1.144866  3.166165
N    -3.479448  2.652178  0.776552
C    -2.488019  3.448100  1.491708
H    -4.160678  3.165342  0.224958
H    -2.517695  3.272569  2.575047
H    -2.730066  4.503812  1.325388
H    -1.463803  3.274580  1.139034
