31
Energy: -16702.8209081 eV PBE+vdW (tier 2 basis)
C    0.078450  0.428984  0.243351
C    -0.309922  0.380336  1.709953
O    0.351591  0.932779  2.584735
H    0.196046  1.477234  -0.056297
H    -0.643909  -0.056856  -0.424555
H    1.054594  -0.058200  0.124830
N    -1.453462  -0.321818  1.991011
C    -1.909782  -0.536683  3.366024
C    -2.577549  -1.923418  3.417525
O    -1.989963  -2.912609  3.842845
H    -1.936188  -0.800854  1.240325
H    -1.007898  -0.618426  3.987820
C    -2.740820  0.656891  3.878332
C    -2.976103  0.709332  5.398239
C    -3.543786  2.080632  5.785492
C    -3.872791  -0.415845  5.932160
H    -3.707510  0.723236  3.344840
H    -2.181618  1.557015  3.585317
H    -1.986544  0.608195  5.877201
H    -3.666194  2.166054  6.873911
H    -4.532542  2.242375  5.328607
H    -2.885729  2.895970  5.455291
H    -4.042783  -0.291500  7.010511
H    -3.435117  -1.411567  5.787100
H    -4.859032  -0.402760  5.441849
N    -3.838729  -1.976969  2.885594
C    -4.633236  -3.191513  2.923319
H    -4.319912  -1.097550  2.734923
H    -5.301512  -3.230651  2.054902
H    -5.235249  -3.260151  3.843093
H    -3.951318  -4.047549  2.898483
