31
Energy: -16702.8094158 eV PBE+vdW (tier 2 basis)
C    -0.027956  -0.186789  2.041561
C    -1.423788  -0.406217  2.587486
O    -2.018633  0.471935  3.206895
H    -0.106650  0.330952  1.075648
H    0.551259  -1.104274  1.892397
H    0.502233  0.478455  2.730623
N    -2.026542  -1.633859  2.389714
C    -1.637489  -2.747479  1.517617
C    -0.413896  -3.548468  2.045688
O    0.232811  -4.287979  1.308071
H    -2.988049  -1.628950  2.718866
H    -2.466405  -3.467484  1.612397
C    -1.483358  -2.431045  0.020713
C    -2.740861  -1.945776  -0.733597
C    -3.949808  -2.868249  -0.533181
C    -3.111790  -0.478606  -0.471129
H    -1.128454  -3.364769  -0.436254
H    -0.670366  -1.705926  -0.126937
H    -2.463011  -2.011536  -1.799520
H    -4.764318  -2.596498  -1.218243
H    -4.358218  -2.795396  0.486707
H    -3.694875  -3.921373  -0.719553
H    -3.886579  -0.146476  -1.176245
H    -2.244664  0.184225  -0.600067
H    -3.503695  -0.315615  0.541281
N    -0.175402  -3.410217  3.377847
C    0.890330  -4.113883  4.061794
H    -0.755307  -2.749866  3.884201
H    1.383897  -4.761959  3.329547
H    0.495249  -4.733209  4.878920
H    1.630395  -3.413901  4.475179
