31
Energy: -16702.7384633 eV PBE+vdW (tier 2 basis)
C    -0.595054  -0.723982  -0.885118
C    -0.165975  -0.448561  0.546566
O    1.010334  -0.493631  0.895965
H    0.302192  -0.961974  -1.461960
H    -1.088263  0.147699  -1.338499
H    -1.295421  -1.568834  -0.944227
N    -1.155417  -0.128591  1.445329
C    -2.602874  -0.163390  1.233544
C    -3.170925  1.000985  2.074755
O    -3.511953  0.842609  3.244571
H    -0.829306  -0.034353  2.404909
H    -2.779794  0.036508  0.168144
C    -3.240698  -1.512724  1.598476
C    -4.566787  -1.818952  0.878801
C    -5.030050  -3.239193  1.224028
C    -5.675493  -0.800342  1.175805
H    -3.381382  -1.546722  2.689953
H    -2.513505  -2.298161  1.343634
H    -4.363499  -1.788417  -0.208364
H    -5.940048  -3.506592  0.669353
H    -5.257280  -3.326150  2.296974
H    -4.258805  -3.984977  0.985629
H    -6.609089  -1.089229  0.673352
H    -5.421977  0.211860  0.830698
H    -5.874296  -0.736396  2.254855
N    -3.230749  2.223349  1.468629
C    -2.725770  2.590530  0.155273
H    -3.528682  2.967650  2.091310
H    -1.644112  2.413023  0.061537
H    -3.245882  2.051500  -0.649835
H    -2.907999  3.659395  0.003026
