31
Energy: -16702.9168717 eV PBE+vdW (tier 2 basis)
C    0.050941  2.238708  0.483657
C    0.416610  1.028558  1.321206
O    1.579345  0.677652  1.503346
H    -0.588943  2.943933  1.031293
H    -0.493421  1.939731  -0.423760
H    0.977185  2.738562  0.189725
N    -0.623136  0.327512  1.895814
C    -2.054453  0.540949  1.706942
C    -2.677525  1.621844  2.621264
O    -3.822200  2.019822  2.414005
H    -0.320958  -0.518614  2.369896
H    -2.217259  0.919309  0.687425
C    -2.863292  -0.770057  1.823588
C    -3.155456  -1.323629  3.232266
C    -4.126422  -2.505384  3.112558
C    -1.908693  -1.737022  4.026833
H    -2.353834  -1.536230  1.215679
H    -3.828929  -0.576998  1.337380
H    -3.669184  -0.528470  3.798119
H    -4.406581  -2.889154  4.102988
H    -3.671828  -3.336432  2.551659
H    -5.048562  -2.214955  2.591148
H    -2.195787  -2.213417  4.974315
H    -1.270294  -0.881893  4.286603
H    -1.300705  -2.467926  3.470105
N    -1.885781  2.058088  3.635936
C    -2.312365  3.059779  4.591834
H    -0.946470  1.677236  3.681813
H    -2.289562  2.664541  5.616917
H    -3.340908  3.340586  4.340141
H    -1.675383  3.954049  4.543878
