31
Energy: -16702.9883962 eV PBE+vdW (tier 2 basis)
C    -1.143208  -0.433486  0.009234
C    -0.709622  -0.173916  1.438568
O    0.481704  -0.246176  1.767476
H    -0.848948  -1.454739  -0.263637
H    -0.599947  0.251140  -0.653573
H    -2.220616  -0.317632  -0.159527
N    -1.709207  0.140323  2.307942
C    -1.588965  0.362198  3.761089
C    -0.888030  1.696126  4.120651
O    -1.466645  2.533032  4.817734
H    -2.640773  0.226722  1.921648
H    -2.617168  0.519939  4.110818
C    -1.027914  -0.882143  4.481569
C    -1.112940  -0.859275  6.021671
C    -1.079329  -2.298412  6.554322
C    -0.006472  -0.024283  6.681472
H    0.010103  -1.063310  4.167732
H    -1.615986  -1.735562  4.108030
H    -2.084875  -0.416944  6.303364
H    -1.153292  -2.316506  7.650348
H    -0.137949  -2.797771  6.278197
H    -1.906300  -2.899329  6.150429
H    0.987241  -0.388571  6.379923
H    -0.070589  -0.100614  7.775895
H    -0.073699  1.039033  6.425655
N    0.373632  1.842378  3.657050
C    1.154774  3.029033  3.946431
H    0.742078  1.106848  3.044719
H    1.391263  3.099466  5.018535
H    0.607664  3.939891  3.667149
H    2.090012  2.981541  3.379087
