31
Energy: -16702.6386556 eV PBE+vdW (tier 2 basis)
C    0.443185  -1.088385  0.272864
C    0.056236  -0.201476  1.444517
O    0.839323  0.077922  2.346801
H    1.241249  -0.592090  -0.293801
H    -0.386014  -1.315142  -0.409309
H    0.855402  -2.027092  0.662262
N    -1.232396  0.260683  1.430779
C    -1.760392  1.176441  2.437308
C    -1.644934  0.671221  3.892716
O    -1.304926  1.459720  4.772021
H    -1.836558  0.003193  0.659153
H    -1.132561  2.078578  2.450391
C    -3.195514  1.556516  2.014737
C    -3.960226  2.623172  2.830954
C    -4.543962  2.092078  4.148426
C    -3.145560  3.904733  3.050168
H    -3.813117  0.643498  1.969837
H    -3.111922  1.924526  0.977827
H    -4.818778  2.886882  2.188987
H    -5.226534  2.833811  4.585977
H    -3.762320  1.886384  4.889361
H    -5.118225  1.168088  3.987623
H    -3.780780  4.692784  3.477276
H    -2.732755  4.288680  2.105634
H    -2.312652  3.735039  3.745346
N    -1.989469  -0.614027  4.207681
C    -2.376613  -1.729051  3.362433
H    -1.819703  -0.814871  5.188397
H    -2.857388  -2.485928  3.993752
H    -1.520112  -2.198220  2.854084
H    -3.108606  -1.426526  2.604838
