31
Energy: -16702.6096689 eV PBE+vdW (tier 2 basis)
C    0.510894  -0.943617  1.215252
C    0.059229  0.187557  2.123114
O    0.800838  0.711420  2.948409
H    1.555507  -0.777462  0.932916
H    -0.100586  -1.052305  0.310055
H    0.461609  -1.886027  1.779101
N    -1.245616  0.571757  1.960702
C    -1.936941  1.495138  2.860568
C    -1.182039  2.841511  3.039411
O    -1.030294  3.347474  4.145453
H    -1.811587  0.054303  1.299807
H    -2.878548  1.751302  2.345913
C    -2.266548  0.898297  4.236500
C    -3.193994  -0.335983  4.276641
C    -4.504382  -0.133508  3.505041
C    -2.515871  -1.658385  3.883714
H    -2.726597  1.707355  4.819996
H    -1.320291  0.671027  4.746295
H    -3.465083  -0.437264  5.341374
H    -4.341013  -0.103165  2.416011
H    -5.004711  0.802283  3.792621
H    -5.204970  -0.958181  3.696000
H    -3.140007  -2.514465  4.176909
H    -1.540423  -1.768572  4.376884
H    -2.349592  -1.738539  2.800546
N    -0.768233  3.498055  1.910538
C    -0.893475  3.139345  0.511059
H    -0.253119  4.343631  2.133027
H    -0.817826  4.054421  -0.089111
H    -1.872944  2.692159  0.299075
H    -0.113109  2.439194  0.174704
