31
Energy: -16703.0463458 eV PBE+vdW (tier 2 basis)
C    -1.217215  0.111536  0.109972
C    -0.714825  0.316878  1.525571
O    0.480982  0.545007  1.750936
H    -0.918963  0.973583  -0.498710
H    -2.303051  -0.023531  0.035956
H    -0.721275  -0.772806  -0.310173
N    -1.660424  0.233467  2.501818
C    -1.453046  0.292489  3.959441
C    -1.069882  1.697126  4.495090
O    -1.757599  2.225249  5.371414
H    -2.616156  0.097818  2.197552
H    -2.446957  0.124900  4.389882
C    -0.502126  -0.816874  4.452559
C    -0.281248  -0.853828  5.974714
C    -1.577481  -1.091500  6.759431
C    0.770788  -1.916810  6.313100
H    0.467442  -0.706198  3.948506
H    -0.920649  -1.782227  4.120490
H    0.122258  0.126478  6.280730
H    -2.291265  -0.267273  6.634745
H    -1.369126  -1.179436  7.834580
H    -2.064891  -2.026416  6.440530
H    0.420132  -2.922718  6.035046
H    0.989046  -1.928758  7.389771
H    1.714260  -1.733954  5.779983
N    0.060311  2.231957  3.972727
C    0.561621  3.531689  4.370882
H    0.510145  1.713681  3.208979
H    0.522452  4.247867  3.537037
H    1.601291  3.459512  4.719604
H    -0.065547  3.904091  5.187839
