31
Energy: -16702.9045347 eV PBE+vdW (tier 2 basis)
C    0.054625  0.990500  1.140265
C    -0.081559  0.611979  2.600503
O    0.882837  0.193400  3.256171
H    0.801701  1.789707  1.055044
H    -0.882709  1.329662  0.682561
H    0.435687  0.126468  0.582136
N    -1.322474  0.751826  3.134618
C    -1.648605  0.589713  4.552165
C    -1.803963  -0.895594  5.009225
O    -2.721345  -1.267413  5.740596
H    -2.066255  1.073223  2.528722
H    -0.763594  0.948354  5.106025
C    -2.843413  1.460140  4.971634
C    -4.136934  1.509062  4.111582
C    -4.065761  2.474630  2.913038
C    -4.686129  0.141163  3.686059
H    -2.482788  2.493012  5.091327
H    -3.120436  1.101357  5.971733
H    -4.882728  1.949431  4.794458
H    -5.077669  2.712428  2.556618
H    -3.539001  2.056127  2.039512
H    -3.571994  3.420312  3.175673
H    -5.658050  0.260357  3.186693
H    -4.809928  -0.526214  4.545794
H    -4.018309  -0.369975  2.975372
N    -0.807612  -1.708186  4.580090
C    -0.733348  -3.097673  4.989726
H    0.001619  -1.262123  4.135508
H    -0.065386  -3.636850  4.308868
H    -1.731673  -3.548666  4.950283
H    -0.356805  -3.207157  6.019002
