31
Energy: -16702.9845895 eV PBE+vdW (tier 2 basis)
C    -0.113637  1.851932  0.794190
C    -0.243352  1.685333  2.297100
O    0.325029  2.435586  3.092951
H    0.950912  1.872393  0.531898
H    -0.539569  2.822730  0.509496
H    -0.613847  1.063084  0.219236
N    -1.047404  0.662925  2.702233
C    -1.226888  0.321653  4.097490
C    -1.615939  -1.163879  4.141747
O    -1.999903  -1.765133  3.136134
H    -1.419239  -0.019953  2.045519
H    -0.251123  0.449618  4.596428
C    -2.211252  1.259032  4.851621
C    -3.726002  1.217015  4.552744
C    -4.085145  1.448069  3.078048
C    -4.438536  -0.030649  5.097243
H    -1.835226  2.275141  4.664462
H    -2.070723  1.089563  5.932659
H    -4.127183  2.077695  5.116261
H    -3.563717  2.321593  2.664474
H    -5.165976  1.617912  2.972887
H    -3.829916  0.577880  2.458793
H    -4.178914  -0.219015  6.149144
H    -4.194285  -0.931125  4.518251
H    -5.528505  0.099245  5.043676
N    -1.506536  -1.749670  5.363280
C    -1.981789  -3.093876  5.631064
H    -1.234670  -1.167141  6.146284
H    -2.991842  -3.088522  6.069866
H    -1.296949  -3.609483  6.314934
H    -2.019872  -3.635953  4.680887
