31
Energy: -16702.8624114 eV PBE+vdW (tier 2 basis)
C    -0.393541  -0.604471  -0.195683
C    -0.277891  -0.230648  1.271651
O    0.796237  -0.181392  1.858410
H    0.169596  -1.528685  -0.370191
H    0.078744  0.183750  -0.796393
H    -1.426303  -0.740571  -0.540688
N    -1.469973  0.038435  1.907637
C    -1.521958  0.591538  3.259807
C    -1.235021  -0.450930  4.360869
O    -0.797462  -0.098874  5.453093
H    -2.306056  0.121205  1.339000
H    -0.710427  1.325858  3.369976
C    -2.883944  1.296824  3.425790
C    -3.183874  1.941225  4.797777
C    -4.010684  3.219602  4.608619
C    -3.902236  0.973785  5.747564
H    -3.688528  0.580262  3.181769
H    -2.915132  2.077201  2.648141
H    -2.223116  2.216832  5.260421
H    -3.476820  3.958505  3.994348
H    -4.238432  3.689202  5.575360
H    -4.970289  3.002263  4.113781
H    -4.885644  0.689566  5.341106
H    -4.070865  1.443504  6.726283
H    -3.322170  0.060017  5.920309
N    -1.557319  -1.735157  4.045784
C    -1.300977  -2.843767  4.943155
H    -1.784287  -1.921254  3.075227
H    -2.180065  -3.497877  5.014834
H    -1.080126  -2.426419  5.931470
H    -0.436855  -3.440433  4.615216
