31
Energy: -16702.7458886 eV PBE+vdW (tier 2 basis)
C    0.231526  1.699593  1.877620
C    -0.197549  0.401253  2.530451
O    0.472782  -0.163532  3.392880
H    1.232804  1.947246  2.238438
H    -0.455592  2.519744  2.129951
H    0.246191  1.619889  0.781821
N    -1.390998  -0.138902  2.112559
C    -2.380132  0.461294  1.232612
C    -3.117228  1.706445  1.780858
O    -3.376552  2.629954  1.009698
H    -1.630468  -0.999919  2.596342
H    -1.873134  0.859817  0.342957
C    -3.406421  -0.585710  0.768401
C    -2.831581  -1.770088  -0.032011
C    -3.958060  -2.752441  -0.374496
C    -2.090623  -1.317395  -1.294675
H    -4.151632  -0.058448  0.153055
H    -3.952295  -0.974399  1.645005
H    -2.107064  -2.302054  0.608309
H    -3.567264  -3.636808  -0.895637
H    -4.705203  -2.282295  -1.031596
H    -4.480292  -3.099703  0.528315
H    -1.743344  -2.184576  -1.872301
H    -1.206680  -0.708840  -1.061541
H    -2.747010  -0.722052  -1.947158
N    -3.479604  1.768783  3.097037
C    -3.366389  0.783513  4.164044
H    -3.949421  2.641199  3.318157
H    -4.005617  1.109747  4.992065
H    -2.340138  0.681555  4.542395
H    -3.726037  -0.205192  3.849373
