31
Energy: -16702.8151648 eV PBE+vdW (tier 2 basis)
C    0.602354  -0.492861  1.498502
C    0.256401  0.535333  2.564358
O    1.052032  0.833651  3.452717
H    1.615237  -0.849938  1.701242
H    0.576698  -0.058145  0.488938
H    -0.087922  -1.347194  1.514204
N    -0.985272  1.111224  2.512858
C    -2.035020  0.943748  1.525168
C    -2.482978  2.351338  1.082705
O    -2.601982  3.262288  1.898246
H    -1.144346  1.853632  3.192681
H    -1.616569  0.400536  0.665891
C    -3.281638  0.180905  2.033780
C    -3.092241  -1.313848  2.364875
C    -2.460176  -1.556751  3.742043
C    -4.440881  -2.040670  2.268534
H    -4.049516  0.271151  1.247823
H    -3.681395  0.714074  2.911324
H    -2.427832  -1.747954  1.595569
H    -2.336718  -2.632958  3.927049
H    -3.109289  -1.157891  4.536201
H    -1.480362  -1.080719  3.853405
H    -4.331973  -3.109949  2.496569
H    -4.878964  -1.952496  1.264327
H    -5.163021  -1.622207  2.985892
N    -2.765102  2.481633  -0.244506
C    -3.274359  3.711141  -0.824714
H    -2.620828  1.680064  -0.846321
H    -4.276185  3.566168  -1.252682
H    -2.602100  4.087363  -1.607703
H    -3.334053  4.452332  -0.020973
