31
Energy: -16702.7472636 eV PBE+vdW (tier 2 basis)
C    0.268954  0.341917  0.292810
C    0.489819  -0.385279  1.610759
O    1.616136  -0.682371  2.003336
H    1.246477  0.502560  -0.168945
H    -0.214112  1.317733  0.448868
H    -0.362736  -0.233344  -0.397769
N    -0.619362  -0.688078  2.353732
C    -2.007637  -0.398675  2.059751
C    -2.733446  -0.291544  3.414894
O    -2.262017  -0.805430  4.428777
H    -0.448932  -1.089337  3.275389
H    -2.065570  0.576922  1.551908
C    -2.704729  -1.438023  1.133707
C    -3.159393  -2.772794  1.751542
C    -3.981676  -3.549935  0.714484
C    -2.004662  -3.633313  2.280362
H    -2.013359  -1.645101  0.301581
H    -3.581490  -0.951883  0.677990
H    -3.827247  -2.545095  2.600939
H    -4.369658  -4.485106  1.140443
H    -3.366014  -3.815489  -0.158486
H    -4.838931  -2.964490  0.351880
H    -2.376274  -4.618866  2.593695
H    -1.511601  -3.179151  3.146783
H    -1.242510  -3.794204  1.503653
N    -3.927145  0.367369  3.449351
C    -4.651308  1.017266  2.371615
H    -4.370041  0.330241  4.362664
H    -5.284035  1.806335  2.794132
H    -5.294865  0.320794  1.812017
H    -3.960685  1.493983  1.665792
