31
Energy: -16703.0057894 eV PBE+vdW (tier 2 basis)
C    1.047726  -0.277968  0.357768
C    0.466560  -0.379900  1.754562
O    1.115794  -0.073167  2.756046
H    0.405286  -0.710600  -0.418833
H    2.023963  -0.776126  0.343613
H    1.216190  0.782093  0.125435
N    -0.836923  -0.782912  1.813334
C    -1.508091  -1.071333  3.066648
C    -2.124682  -2.473697  2.932186
O    -2.519830  -2.904409  1.847436
H    -1.274953  -1.201902  0.995877
H    -0.731807  -1.064775  3.846007
C    -2.627953  -0.064517  3.425178
C    -2.208185  1.343052  3.902422
C    -1.295266  1.295154  5.134460
C    -1.605179  2.231769  2.805563
H    -3.232026  -0.520747  4.226575
H    -3.295307  0.022464  2.553275
H    -3.156651  1.816134  4.212428
H    -0.301720  0.900538  4.878945
H    -1.723756  0.671152  5.933403
H    -1.149210  2.302779  5.547321
H    -1.554664  3.274578  3.149202
H    -2.210612  2.210436  1.888810
H    -0.583370  1.924654  2.551388
N    -2.234943  -3.179039  4.087263
C    -2.864161  -4.488445  4.135566
H    -1.855806  -2.781873  4.937536
H    -2.750257  -4.898988  5.143952
H    -2.394047  -5.169865  3.414667
H    -3.934119  -4.425540  3.892966
