31
Energy: -16702.6217923 eV PBE+vdW (tier 2 basis)
C    0.340042  0.051562  0.894746
C    -0.244374  -0.083324  2.285205
O    0.459414  -0.094766  3.293948
H    1.382259  0.363547  1.001037
H    -0.202604  0.769543  0.268999
H    0.313781  -0.914220  0.370946
N    -1.608999  -0.221651  2.408329
C    -2.665936  -0.202589  1.392610
C    -2.420048  -1.261694  0.284941
O    -2.310580  -0.961501  -0.901374
H    -1.900717  -0.279198  3.379351
H    -3.561881  -0.545271  1.934165
C    -2.959901  1.191398  0.801426
C    -4.455967  1.549734  0.662984
C    -5.228730  0.585996  -0.247311
C    -5.144452  1.705781  2.025598
H    -2.483013  1.255067  -0.186023
H    -2.480686  1.935057  1.453524
H    -4.473519  2.539993  0.177189
H    -5.311559  -0.418818  0.195494
H    -4.738907  0.472472  -1.222254
H    -6.253251  0.947225  -0.412347
H    -6.180530  2.050927  1.904802
H    -4.619687  2.432174  2.661919
H    -5.191451  0.753529  2.577250
N    -2.340050  -2.564344  0.690404
C    -2.451683  -3.120215  2.028884
H    -2.151646  -3.204379  -0.074431
H    -2.651534  -4.194040  1.941437
H    -3.293086  -2.675970  2.577873
H    -1.537584  -2.979547  2.623177
