31
Energy: -16702.641824 eV PBE+vdW (tier 2 basis)
C    0.227399  0.086807  1.030447
C    -0.525023  -0.597262  2.152069
O    0.002174  -1.439113  2.877414
H    1.290485  -0.130269  1.162872
H    0.067453  1.170936  1.007143
H    -0.093518  -0.304564  0.055047
N    -1.850094  -0.272630  2.344178
C    -2.708898  0.697262  1.656180
C    -2.745823  0.439649  0.125819
O    -2.370566  1.276371  -0.691610
H    -2.252125  -0.769454  3.133207
H    -3.721756  0.470490  2.028237
C    -2.404620  2.170261  1.988961
C    -3.648817  3.050081  2.215075
C    -3.220191  4.449548  2.671080
C    -4.564822  3.137511  0.987403
H    -1.797410  2.600134  1.178858
H    -1.796060  2.181797  2.904061
H    -4.228384  2.592527  3.039025
H    -4.092170  5.078493  2.897654
H    -2.640856  4.956504  1.884992
H    -2.592696  4.406237  3.572330
H    -4.965714  2.158485  0.689263
H    -4.024356  3.542386  0.120815
H    -5.424060  3.790814  1.193471
N    -3.226278  -0.774106  -0.279208
C    -3.697944  -1.890134  0.523730
H    -3.191017  -0.896206  -1.286236
H    -2.875792  -2.463210  0.976120
H    -4.366489  -1.550767  1.326479
H    -4.278550  -2.559271  -0.121068
