31
Energy: -16702.6701684 eV PBE+vdW (tier 2 basis)
C    -1.479899  -0.814876  -0.071613
C    -0.213934  -0.738109  0.765506
O    0.735754  -1.493170  0.581543
H    -1.617199  0.101387  -0.664165
H    -2.377356  -0.954298  0.547827
H    -1.381203  -1.664050  -0.752463
N    -0.181649  0.205144  1.766253
C    -1.141919  1.271142  1.977982
C    -0.963334  2.417180  0.952107
O    0.128214  2.682802  0.458687
H    0.738644  0.309309  2.182877
H    -2.141487  0.833887  1.845231
C    -1.091821  1.813305  3.428393
C    -0.005060  2.842830  3.796149
C    -0.247694  3.330993  5.230254
C    1.430613  2.325226  3.634627
H    -1.015578  0.937886  4.094157
H    -2.069011  2.271583  3.645174
H    -0.121862  3.708897  3.122772
H    0.470658  4.114780  5.505895
H    -0.133420  2.508612  5.952991
H    -1.258973  3.744358  5.353604
H    2.148894  3.062062  4.019579
H    1.686547  2.152670  2.581228
H    1.586554  1.394120  4.201994
N    -2.082078  3.142299  0.640767
C    -3.459182  2.894754  1.037143
H    -1.902468  3.889023  -0.023058
H    -4.095701  3.645646  0.557595
H    -3.605312  2.985173  2.123074
H    -3.814339  1.904159  0.714986
