31
Energy: -16702.2855418 eV PBE+vdW (tier 2 basis)
C    -0.275214  0.732129  -0.586258
C    -0.081984  0.664174  0.919706
O    1.025515  0.739118  1.433584
H    0.587336  0.269334  -1.075925
H    -0.304637  1.791006  -0.879359
H    -1.196829  0.248829  -0.936128
N    -1.253583  0.494901  1.626472
C    -1.451184  0.745671  3.052010
C    -1.082749  2.222874  3.389228
O    -0.630767  2.981022  2.539498
H    -2.093107  0.581943  1.066608
H    -2.549884  0.728169  3.162823
C    -0.998807  -0.398664  4.004705
C    0.471742  -0.712142  4.386497
C    1.169306  -1.664050  3.405932
C    1.332012  0.519035  4.693757
H    -1.438027  -1.313283  3.576342
H    -1.545527  -0.236647  4.942831
H    0.368399  -1.274675  5.332352
H    2.132037  -1.995697  3.820732
H    1.369713  -1.177088  2.445802
H    0.559853  -2.562251  3.227530
H    0.879474  1.155751  5.467006
H    1.493142  1.122511  3.792311
H    2.317243  0.204512  5.065654
N    -1.370210  2.698113  4.644277
C    -2.063619  2.088363  5.764069
H    -1.105236  3.673252  4.738503
H    -2.448855  2.888579  6.406649
H    -1.410843  1.446959  6.376424
H    -2.926509  1.493701  5.434661
