31
Energy: -16702.568425 eV PBE+vdW (tier 2 basis)
C    -0.163790  -0.071225  -0.303226
C    -0.088447  0.456380  1.113987
O    0.934690  0.989403  1.540729
H    0.163497  -1.119543  -0.302286
H    -1.164243  -0.037064  -0.747634
H    0.529234  0.514302  -0.914345
N    -1.174170  0.317786  1.947644
C    -2.517705  -0.208982  1.739748
C    -2.496566  -1.544230  0.946468
O    -1.674637  -2.415063  1.209826
H    -0.965865  0.657804  2.881678
H    -2.832531  -0.562891  2.736415
C    -3.570763  0.855620  1.345379
C    -3.423599  1.633504  0.015708
C    -4.804979  2.082754  -0.481496
C    -2.489181  2.844232  0.141256
H    -3.605898  1.589731  2.166891
H    -4.556680  0.360797  1.378684
H    -3.001203  0.961078  -0.749872
H    -5.296242  2.731942  0.259055
H    -5.475315  1.229642  -0.665764
H    -4.724439  2.651471  -1.417881
H    -1.486480  2.573670  0.488099
H    -2.384029  3.356277  -0.825091
H    -2.900535  3.571330  0.857975
N    -3.476133  -1.703697  0.010195
C    -3.625376  -2.925122  -0.757994
H    -4.105366  -0.933788  -0.174472
H    -4.624104  -3.361193  -0.618602
H    -2.871304  -3.633611  -0.399927
H    -3.463084  -2.743739  -1.829933
