31
Energy: -16702.9985028 eV PBE+vdW (tier 2 basis)
C    -0.404394  -2.634993  -1.359071
C    -0.147037  -2.021388  0.001230
O    0.949933  -1.527919  0.295747
H    -0.227049  -1.871141  -2.126460
H    -1.419848  -3.031731  -1.479713
H    0.319447  -3.441848  -1.527994
N    -1.191450  -2.046310  0.871609
C    -1.159582  -1.434119  2.201513
C    -0.488938  -2.369268  3.252914
O    -1.096000  -2.811402  4.228117
H    -2.037064  -2.533615  0.600780
H    -0.506783  -0.551958  2.107816
C    -2.551482  -0.981983  2.649832
C    -3.677179  -2.049611  2.596502
C    -4.525657  -2.004978  3.871843
C    -4.567045  -1.890084  1.353933
H    -2.842977  -0.108375  2.046389
H    -2.438808  -0.627419  3.682564
H    -3.206345  -3.046322  2.568593
H    -5.330409  -2.753175  3.843216
H    -4.995483  -1.017084  3.997074
H    -3.902043  -2.204981  4.752043
H    -5.316206  -2.691872  1.296012
H    -4.000603  -1.898122  0.410111
H    -5.107883  -0.931959  1.385473
N    0.819912  -2.611666  2.985097
C    1.638790  -3.483751  3.802299
H    1.203584  -2.194911  2.131270
H    2.535569  -2.958441  4.159016
H    1.955948  -4.376162  3.242883
H    1.043080  -3.799412  4.665364
