31
Energy: -16702.9455599 eV PBE+vdW (tier 2 basis)
C    1.222494  1.086057  1.572105
C    0.674224  -0.210614  2.134397
O    1.410117  -1.144147  2.460017
H    1.806544  1.588024  2.354937
H    0.445981  1.773829  1.215858
H    1.908774  0.852659  0.749764
N    -0.681335  -0.245066  2.301627
C    -1.379736  -1.458835  2.677579
C    -2.488660  -1.683321  1.639417
O    -2.999199  -0.732312  1.043293
H    -1.264765  0.445813  1.834200
H    -0.634577  -2.265104  2.642421
C    -2.025806  -1.396567  4.084690
C    -1.096756  -1.559950  5.306627
C    -0.338320  -2.893586  5.287887
C    -0.135435  -0.384865  5.531320
H    -2.791058  -2.187399  4.141218
H    -2.573576  -0.443906  4.156095
H    -1.784744  -1.584155  6.170085
H    0.189074  -3.052426  6.238460
H    0.418939  -2.910723  4.491236
H    -1.017828  -3.746179  5.140374
H    0.325157  -0.457662  6.526611
H    -0.656408  0.580807  5.473199
H    0.678518  -0.383170  4.795758
N    -2.906288  -2.963845  1.431928
C    -2.401709  -4.183218  2.041637
H    -3.692401  -3.035575  0.793441
H    -2.717057  -5.036047  1.430830
H    -2.779454  -4.334239  3.064938
H    -1.305476  -4.186339  2.076331
