31
Energy: -16703.0284279 eV PBE+vdW (tier 2 basis)
C    0.434976  -3.507561  -0.579935
C    0.113898  -2.441832  0.451331
O    0.467663  -1.275115  0.319330
H    1.498795  -3.445134  -0.836109
H    -0.134259  -3.291984  -1.493794
H    0.200722  -4.528063  -0.251464
N    -0.591277  -2.883963  1.550485
C    -1.177871  -1.968471  2.522412
C    -0.598207  -2.114228  3.946762
O    -1.137675  -1.567183  4.905709
H    -0.973627  -3.823655  1.510743
H    -0.870596  -0.964647  2.188632
C    -2.708888  -2.067042  2.549635
C    -3.416620  -1.678270  1.241265
C    -4.920742  -1.951009  1.365491
C    -3.152553  -0.220950  0.843050
H    -3.057684  -1.429148  3.374413
H    -2.991067  -3.098320  2.827107
H    -3.028298  -2.323203  0.432318
H    -5.444134  -1.728670  0.425446
H    -5.369617  -1.325539  2.151764
H    -5.121945  -3.000958  1.622185
H    -3.713031  0.040783  -0.065035
H    -2.091209  -0.030802  0.636910
H    -3.472315  0.466518  1.640835
N    0.541612  -2.852906  4.038574
C    1.279041  -3.001335  5.276816
H    0.929371  -3.208251  3.171910
H    0.667703  -2.574281  6.079202
H    2.238809  -2.465424  5.241488
H    1.472024  -4.060358  5.495523
