31
Energy: -16703.0343872 eV PBE+vdW (tier 2 basis)
C    -0.340836  -2.528206  -1.537195
C    -0.376849  -1.693837  -0.270075
O    -0.185445  -0.476582  -0.278660
H    0.623032  -2.370373  -2.036237
H    -1.123925  -2.169556  -2.217284
H    -0.486030  -3.601207  -1.361979
N    -0.652288  -2.382313  0.873670
C    -0.646012  -1.750101  2.175654
C    -0.356796  -2.853997  3.205562
O    -0.467809  -4.048420  2.923370
H    -0.689499  -3.399095  0.891922
H    0.175586  -1.014420  2.182030
C    -1.945807  -0.970028  2.508018
C    -3.195337  -1.779622  2.896453
C    -4.294669  -0.815481  3.362740
C    -3.717844  -2.688232  1.775564
H    -2.160620  -0.331171  1.637889
H    -1.713059  -0.276374  3.333105
H    -2.933060  -2.423408  3.754799
H    -5.185722  -1.364096  3.697586
H    -4.604435  -0.146969  2.545169
H    -3.954786  -0.184753  4.196575
H    -3.021173  -3.501487  1.543276
H    -3.890512  -2.115937  0.852017
H    -4.672768  -3.146580  2.069058
N    -0.003155  -2.406830  4.440134
C    0.233572  -3.292109  5.565079
H    0.077325  -1.406790  4.580376
H    -0.482035  -3.103777  6.377765
H    1.254018  -3.173735  5.954290
H    0.105942  -4.319513  5.209330
