31
Energy: -16702.4545555 eV PBE+vdW (tier 2 basis)
C    0.461532  0.131897  -0.088610
C    0.291863  -0.507240  1.275356
O    1.190447  -1.204485  1.748383
H    0.529710  1.224008  -0.008722
H    -0.359094  -0.100436  -0.776417
H    1.397296  -0.248985  -0.506172
N    -0.848287  -0.304271  2.024865
C    -2.163593  0.326952  1.860573
C    -3.352622  -0.664198  1.755871
O    -4.370782  -0.418335  2.403228
H    -0.750164  -0.795213  2.911125
H    -2.378414  0.797056  2.831080
C    -2.302764  1.434149  0.805283
C    -1.547607  2.741312  1.123157
C    -1.489097  3.626310  -0.127004
C    -2.179654  3.497721  2.297732
H    -3.378604  1.661234  0.743463
H    -2.017799  1.064965  -0.188899
H    -0.513716  2.486938  1.410353
H    -0.987597  3.115991  -0.961750
H    -0.945303  4.560014  0.070639
H    -2.501171  3.897332  -0.464022
H    -1.611672  4.410208  2.523937
H    -2.209035  2.897244  3.216754
H    -3.212701  3.794334  2.062750
N    -3.281208  -1.781117  0.973337
C    -2.276415  -2.203374  0.010243
H    -4.142173  -2.317869  1.011940
H    -2.070494  -1.426315  -0.738601
H    -2.668640  -3.074361  -0.525396
H    -1.332938  -2.495890  0.487959
