31
Energy: -16702.410048 eV PBE+vdW (tier 2 basis)
C    0.302877  1.017682  0.727387
C    0.047548  -0.336040  1.360733
O    0.793019  -1.285757  1.117953
H    -0.543931  1.362507  0.122055
H    1.178768  0.907829  0.082688
H    0.507627  1.786571  1.482178
N    -1.001772  -0.528803  2.234629
C    -2.165661  0.224560  2.727522
C    -3.484011  -0.481368  2.322590
O    -4.278509  -0.817791  3.201570
H    -0.986549  -1.492100  2.564911
H    -2.170867  0.086811  3.819503
C    -2.155023  1.744469  2.501055
C    -3.300878  2.505028  3.209495
C    -2.831743  3.918652  3.577630
C    -4.579388  2.573229  2.363547
H    -2.169715  2.002930  1.433058
H    -1.196402  2.110974  2.896135
H    -3.539443  1.971104  4.144367
H    -1.962153  3.893340  4.249140
H    -3.629329  4.481113  4.081761
H    -2.544892  4.486893  2.679202
H    -5.366546  3.123528  2.896649
H    -4.981524  1.581759  2.126606
H    -4.389685  3.102354  1.416565
N    -3.748322  -0.739650  1.007655
C    -2.982470  -0.420731  -0.186150
H    -4.621968  -1.241757  0.884957
H    -2.709863  0.641797  -0.222790
H    -3.613050  -0.623222  -1.058460
H    -2.068744  -1.024220  -0.275180
