31
Energy: -16702.6393315 eV PBE+vdW (tier 2 basis)
C    0.804871  -0.879698  0.686946
C    0.265213  -0.157403  1.908642
O    0.991830  0.224704  2.821653
H    1.596436  -0.268010  0.237660
H    0.044895  -1.096210  -0.074219
H    1.263817  -1.822383  1.011075
N    -1.090580  0.055395  1.914369
C    -1.771093  0.581432  3.104281
C    -3.271912  0.270962  3.019744
O    -3.834715  -0.364480  3.906785
H    -1.650548  -0.447121  1.234753
H    -1.418626  0.005649  3.971113
C    -1.472540  2.086296  3.373119
C    -0.922093  2.364241  4.780837
C    -0.383080  3.795974  4.863305
C    -1.970376  2.105265  5.869767
H    -2.380744  2.693071  3.223300
H    -0.743015  2.424898  2.624903
H    -0.076841  1.672461  4.930078
H    0.033700  4.004355  5.858389
H    -1.180222  4.533456  4.679609
H    0.412019  3.967631  4.124405
H    -1.544345  2.269332  6.869175
H    -2.362914  1.080029  5.839814
H    -2.827577  2.787834  5.757843
N    -3.967957  0.689653  1.908719
C    -3.608483  1.695970  0.919217
H    -4.955073  0.456288  1.981514
H    -4.059288  1.434985  -0.047023
H    -3.954209  2.702258  1.204499
H    -2.523467  1.734648  0.784406
