27
Energy: -18678.5248885 eV PBE+vdW (tier 2 basis)
N    0.537391  -0.898425  -0.180433
C    -0.119976  -0.425831  1.030679
C    0.830332  0.320925  1.995956
O    1.992411  0.546421  1.745052
H    1.203217  -1.636099  0.062694
H    1.116020  -0.145791  -0.558311
H    -0.880413  0.316110  0.729682
C    -0.859476  -1.609209  1.711584
C    -1.921471  -1.224209  2.695781
C    -1.902326  -1.416390  4.064905
C    -3.192987  -0.610934  2.394423
N    -3.078142  -0.958544  4.620485
C    -3.890229  -0.454103  3.625378
C    -3.813599  -0.194291  1.203673
C    -5.164738  0.114658  3.696504
C    -5.082069  0.368295  1.270304
C    -5.748252  0.524545  2.502763
H    -0.120329  -2.268156  2.193026
H    -1.309587  -2.187996  0.891072
H    -1.131575  -1.860345  4.686820
H    -3.296293  -0.966888  5.607402
H    -3.312648  -0.315482  0.242858
H    -5.684129  0.230839  4.647844
H    -5.574995  0.695015  0.355243
H    -6.741436  0.972080  2.520180
O    0.278196  0.765848  3.155708
H    -0.628199  0.392218  3.245670
