27
Energy: -18678.4280873 eV PBE+vdW (tier 2 basis)
N    0.097075  1.252281  2.615817
C    0.195946  -0.177626  2.318085
C    1.639331  -0.569072  2.012276
O    1.995065  -1.409601  1.214967
H    0.652570  1.498853  3.433510
H    -0.876277  1.489113  2.810000
H    -0.065699  -0.830270  3.183989
C    -0.723972  -0.546940  1.151305
C    -2.187155  -0.419325  1.459783
C    -2.815117  -0.492900  2.685531
C    -3.231696  -0.233737  0.486547
N    -4.183492  -0.366457  2.523807
C    -4.471923  -0.204961  1.186897
C    -3.241134  -0.093397  -0.912442
C    -5.696630  -0.036463  0.534714
C    -4.456618  0.073797  -1.564358
C    -5.671262  0.102235  -0.848932
H    -0.485197  -1.571502  0.829493
H    -0.469674  0.107811  0.303916
H    -2.399439  -0.635183  3.677895
H    -4.860676  -0.372775  3.273400
H    -2.309948  -0.116509  -1.478977
H    -6.636875  -0.015737  1.086492
H    -4.476144  0.184145  -2.648310
H    -6.607824  0.234281  -1.390082
O    2.519223  0.104417  2.807281
H    3.404540  -0.230477  2.566394
