27
Energy: -18678.5408936 eV PBE+vdW (tier 2 basis)
N    0.488168  -0.743958  -0.172687
C    -0.380057  -0.381755  0.954907
C    0.282197  0.638962  1.881272
O    0.012129  1.819980  1.936667
H    1.365145  -1.143387  0.166353
H    0.726970  0.082539  -0.721652
H    -1.260886  0.131349  0.546877
C    -0.831040  -1.648347  1.706238
C    -1.796275  -1.364285  2.813766
C    -1.515595  -1.304819  4.160806
C    -3.194638  -1.050016  2.677490
N    -2.657206  -0.976415  4.865577
C    -3.705987  -0.812877  3.985929
C    -4.069194  -0.952390  1.581238
C    -5.044358  -0.485270  4.218234
C    -5.400877  -0.626708  1.808201
C    -5.883189  -0.394426  3.112282
H    0.056291  -2.164911  2.100376
H    -1.279775  -2.316795  0.956386
H    -0.575072  -1.471473  4.675399
H    -2.713572  -0.874270  5.869093
H    -3.710832  -1.130921  0.566711
H    -5.419507  -0.306278  5.226289
H    -6.087822  -0.547651  0.965941
H    -6.932586  -0.139110  3.256916
O    1.300664  0.089086  2.615624
H    1.690578  0.831446  3.115886
