27
Energy: -18678.7191018 eV PBE+vdW (tier 2 basis)
N    0.936261  0.123355  0.611948
C    0.315873  -0.063296  1.933431
C    1.425707  -0.212623  3.002435
O    1.194045  -0.455313  4.168247
H    0.493535  0.870548  0.081792
H    0.857101  -0.742027  0.069276
H    -0.206925  0.864260  2.212707
C    -0.713386  -1.223009  2.003919
C    -0.256578  -2.482781  1.335517
C    -0.612075  -2.888491  0.064234
C    0.640808  -3.491869  1.845024
N    0.008058  -4.082969  -0.241225
C    0.780515  -4.481873  0.829922
C    1.324654  -3.669198  3.062033
C    1.576301  -5.619256  0.993320
C    2.114210  -4.799872  3.226921
C    2.241185  -5.763178  2.205674
H    -1.644191  -0.880005  1.529532
H    -0.937406  -1.399706  3.065074
H    -1.294122  -2.424173  -0.641456
H    -0.114573  -4.601791  -1.099572
H    1.243949  -2.929585  3.857630
H    1.670899  -6.365584  0.204088
H    2.650508  -4.945473  4.164120
H    2.871072  -6.637243  2.369231
O    2.659276  -0.011427  2.516049
H    2.487656  0.162457  1.543084
