27
Energy: -18678.684278 eV PBE+vdW (tier 2 basis)
N    -0.371684  0.844896  0.713754
C    0.853137  0.194134  1.215604
C    1.834396  -0.033440  0.042194
O    1.423084  0.530542  -1.108002
H    -0.677292  1.587818  1.339218
H    -1.141141  0.175160  0.664138
H    1.361850  0.902804  1.886531
C    0.614150  -1.125576  1.983018
C    -0.219673  -0.942593  3.208778
C    -1.526919  -1.340277  3.385156
C    0.162401  -0.263125  4.420044
N    -1.976456  -0.947434  4.631825
C    -0.963637  -0.285315  5.292819
C    1.349259  0.349900  4.860266
C    -0.932966  0.286064  6.567808
C    1.382411  0.920288  6.126990
C    0.253359  0.890560  6.970452
H    1.599239  -1.548601  2.225665
H    0.132124  -1.844708  1.301058
H    -2.175830  -1.896018  2.715476
H    -2.889203  -1.151826  5.013927
H    2.235859  0.367172  4.225463
H    -1.802604  0.258375  7.224874
H    2.297163  1.395464  6.480121
H    0.312260  1.345752  7.958645
O    2.874896  -0.643642  0.154772
H    0.547817  0.945626  -0.852591
