27
Energy: -18678.512786 eV PBE+vdW (tier 2 basis)
N    0.613875  -0.369352  -0.085377
C    -0.119839  -0.165455  1.157657
C    0.817741  0.494602  2.182630
O    1.896814  0.959116  1.886720
H    0.053398  -0.111795  -0.894546
H    1.447929  0.222138  -0.069723
H    -0.958919  0.550280  1.045964
C    -0.719132  -1.519399  1.646043
C    -1.724732  -1.431159  2.754159
C    -1.582801  -1.903407  4.046675
C    -3.053465  -0.871319  2.677989
N    -2.735576  -1.666240  4.764909
C    -3.656570  -1.031328  3.957563
C    -3.797182  -0.266832  1.649544
C    -4.954546  -0.593381  4.234109
C    -5.089461  0.166006  1.918782
C    -5.660151  0.008199  3.197990
H    0.111162  -2.184587  1.921868
H    -1.188252  -1.973479  0.760420
H    -0.738853  -2.409344  4.504779
H    -2.871784  -1.899398  5.738971
H    -3.371664  -0.143735  0.653275
H    -5.399817  -0.720342  5.220976
H    -5.676096  0.635580  1.129832
H    -6.675093  0.361260  3.377429
O    0.362841  0.569460  3.454815
H    -0.479826  0.062913  3.531548
