27
Energy: -18678.409451 eV PBE+vdW (tier 2 basis)
N    1.287639  -0.795875  2.422808
C    0.750413  -0.649270  1.082765
C    0.924144  0.803526  0.644294
O    0.866715  1.744226  1.399834
H    1.068538  0.045591  2.960897
H    0.860742  -1.600173  2.885273
H    1.319372  -1.306024  0.399186
C    -0.769928  -1.012933  0.934125
C    -1.052639  -2.419611  1.342238
C    -1.581268  -2.838181  2.545381
C    -0.768141  -3.613636  0.588719
N    -1.644588  -4.217382  2.576983
C    -1.154542  -4.724702  1.392286
C    -0.234680  -3.856892  -0.688836
C    -1.020092  -6.045706  0.956991
C    -0.098958  -5.168898  -1.125790
C    -0.486304  -6.251666  -0.310771
H    -1.083011  -0.849794  -0.110378
H    -1.344148  -0.309080  1.553901
H    -1.937251  -2.248428  3.383882
H    -2.012721  -4.766395  3.341296
H    0.063618  -3.030091  -1.334772
H    -1.321509  -6.884811  1.584411
H    0.312115  -5.368790  -2.114896
H    -0.366947  -7.269176  -0.681529
O    1.085167  1.010352  -0.695449
H    1.172264  0.150820  -1.143847
