27
Energy: -18678.6063058 eV PBE+vdW (tier 2 basis)
N    -0.675236  0.959803  0.471270
C    -0.089646  0.230489  1.583117
C    1.306954  -0.334234  1.288266
O    1.887266  -0.275806  0.226244
H    -0.024472  1.672693  0.139929
H    -0.813948  0.325460  -0.318600
H    0.040604  0.930705  2.425786
C    -1.040268  -0.893799  2.073683
C    -1.254412  -1.992931  1.077582
C    -0.528719  -3.161757  0.987828
C    -2.225140  -2.038487  0.013145
N    -0.989063  -3.922878  -0.067397
C    -2.030074  -3.265364  -0.686096
C    -3.249149  -1.172892  -0.414395
C    -2.813428  -3.636727  -1.782261
C    -4.030669  -1.540961  -1.502576
C    -3.815112  -2.758161  -2.180674
H    -1.996646  -0.411317  2.318968
H    -0.635602  -1.306732  3.006464
H    0.288916  -3.513125  1.608594
H    -0.623240  -4.824907  -0.338357
H    -3.417740  -0.223495  0.093847
H    -2.647846  -4.578626  -2.306043
H    -4.825416  -0.877338  -1.842583
H    -4.444492  -3.015470  -3.032179
O    1.864984  -0.912442  2.395335
H    2.751445  -1.213980  2.116578
