27
Energy: -18678.5313642 eV PBE+vdW (tier 2 basis)
N    0.778533  -0.000146  -0.988182
C    0.475554  -0.254825  0.418985
C    1.672071  0.023441  1.319802
O    1.873282  -0.494424  2.398080
H    -0.073891  -0.130704  -1.534669
H    1.093803  0.958978  -1.126537
H    -0.316027  0.415240  0.823767
C    -0.012531  -1.707226  0.599497
C    -1.297498  -1.967469  -0.120345
C    -1.454298  -2.644503  -1.310243
C    -2.612940  -1.527332  0.269331
N    -2.786650  -2.650310  -1.678409
C    -3.524796  -1.974110  -0.730614
C    -3.113986  -0.809528  1.369809
C    -4.897145  -1.720123  -0.658903
C    -4.478085  -0.554267  1.443791
C    -5.359894  -1.003082  0.439729
H    -0.120165  -1.902605  1.675049
H    0.773801  -2.377459  0.224756
H    -0.706620  -3.132004  -1.927271
H    -3.162310  -3.103216  -2.499726
H    -2.444885  -0.463932  2.158588
H    -5.581714  -2.070797  -1.431794
H    -4.877643  -0.000293  2.292901
H    -6.424369  -0.787220  0.527116
O    2.486397  0.991957  0.811718
H    3.188005  1.122959  1.478773
