27
Energy: -18678.4632115 eV PBE+vdW (tier 2 basis)
N    1.147174  -0.313073  3.210902
C    0.644736  -0.611061  1.873753
C    0.275616  0.602460  1.018154
O    0.529843  0.735517  -0.161172
H    0.497136  0.297645  3.707416
H    2.038012  0.180493  3.160986
H    1.437060  -1.128202  1.316488
C    -0.585408  -1.559010  1.938085
C    -0.256823  -2.956131  2.361433
C    0.002134  -4.006760  1.507527
C    -0.149458  -3.484126  3.696710
N    0.268363  -5.150025  2.233707
C    0.175834  -4.866853  3.579778
C    -0.306934  -2.938175  4.982211
C    0.344182  -5.696696  4.691962
C    -0.147039  -3.760089  6.090353
C    0.176909  -5.125130  5.948354
H    -1.050673  -1.581090  0.941449
H    -1.328974  -1.112221  2.616953
H    0.010758  -4.027853  0.422309
H    0.468706  -6.058080  1.838710
H    -0.536423  -1.881013  5.107874
H    0.595666  -6.751930  4.580717
H    -0.266890  -3.344619  7.090782
H    0.299886  -5.742273  6.838033
O    -0.418079  1.543841  1.727545
H    -0.630315  2.253456  1.090983
