27
Energy: -18678.4335965 eV PBE+vdW (tier 2 basis)
N    -0.832341  0.097516  0.369265
C    -0.406681  -0.510692  1.641769
C    0.672512  0.402975  2.226051
O    0.451255  1.279134  3.035976
H    -1.513483  -0.512148  -0.085517
H    -1.302792  0.986182  0.545298
H    -1.200853  -0.527491  2.409160
C    0.078200  -1.949471  1.393870
C    0.458715  -2.674440  2.646499
C    1.734163  -2.906246  3.111273
C    -0.436412  -3.240644  3.621859
N    1.681190  -3.583605  4.313709
C    0.364479  -3.805277  4.656304
C    -1.835373  -3.335352  3.723034
C    -0.190317  -4.446672  5.766836
C    -2.391190  -3.972982  4.825548
C    -1.577598  -4.521763  5.837473
H    0.915172  -1.922657  0.684349
H    -0.743738  -2.487666  0.891656
H    2.686394  -2.631559  2.670362
H    2.483598  -3.873363  4.854927
H    -2.478531  -2.914835  2.948873
H    0.437468  -4.872542  6.550071
H    -3.474525  -4.051032  4.914273
H    -2.043742  -5.013762  6.690650
O    1.911836  0.176025  1.713833
H    2.488592  0.851367  2.120598
