27
Energy: -18678.7160218 eV PBE+vdW (tier 2 basis)
N    -0.317429  0.899308  0.797519
C    0.953371  0.306739  1.243922
C    1.850925  0.029402  0.023399
O    1.182661  0.075632  -1.146550
H    -0.272860  1.917769  0.810159
H    -1.070202  0.626004  1.434270
H    1.519911  0.967961  1.917407
C    0.696188  -1.039278  1.969856
C    -0.181346  -0.891794  3.169942
C    -1.494575  -1.298954  3.282425
C    0.153927  -0.257988  4.419588
N    -1.988668  -0.956627  4.525955
C    -1.002596  -0.318029  5.248718
C    1.320878  0.342060  4.924856
C    -1.021574  0.203755  6.545087
C    1.305324  0.862091  6.213244
C    0.146695  0.795502  7.013476
H    1.676047  -1.456392  2.240750
H    0.238289  -1.740578  1.255415
H    -2.114434  -1.832284  2.568506
H    -2.916047  -1.172492  4.864289
H    2.227451  0.391487  4.321074
H    -1.914589  0.148365  7.168069
H    2.203867  1.327583  6.617156
H    0.167697  1.212354  8.019946
O    3.028255  -0.240224  0.111120
H    0.260834  0.348626  -0.871597
