27
Energy: -18678.5038428 eV PBE+vdW (tier 2 basis)
N    2.367170  -0.894293  1.649659
C    0.935834  -0.676387  1.831850
C    0.432670  0.745320  1.587078
O    -0.624290  1.034651  1.065596
H    2.901023  -0.207847  2.184501
H    2.628449  -0.775070  0.671358
H    0.396437  -1.303528  1.109482
C    0.501060  -1.111506  3.262341
C    0.524536  -2.592246  3.445645
C    1.522970  -3.346644  4.017773
C    -0.481433  -3.520154  2.999619
N    1.191294  -4.686264  3.960717
C    -0.032475  -4.828626  3.341367
C    -1.716748  -3.376954  2.343670
C    -0.779954  -5.973817  3.055390
C    -2.461407  -4.514729  2.055052
C    -1.999002  -5.798777  2.407501
H    -0.512854  -0.726719  3.451348
H    1.165143  -0.617003  3.987224
H    2.462532  -3.027705  4.455815
H    1.756534  -5.442135  4.320938
H    -2.086276  -2.389983  2.062257
H    -0.423992  -6.968178  3.326780
H    -3.420186  -4.416336  1.546432
H    -2.606710  -6.670882  2.167547
O    1.297021  1.693006  2.062979
H    0.865656  2.552805  1.894080
