27
Energy: -18678.4778199 eV PBE+vdW (tier 2 basis)
N    -0.267687  0.053498  0.058366
C    -0.183589  -0.020435  1.524960
C    1.267656  0.161842  2.012557
O    1.705865  1.233863  2.366859
H    0.288291  -0.684270  -0.378868
H    0.120496  0.941883  -0.261640
H    -0.714346  0.857423  1.917167
C    -0.915300  -1.270654  2.068561
C    -0.406444  -2.617809  1.635446
C    0.336697  -3.493897  2.408190
C    -0.647734  -3.297786  0.383185
N    0.575605  -4.656201  1.707372
C    -0.012360  -4.570054  0.463070
C    -1.361379  -2.970281  -0.784657
C    -0.048845  -5.495361  -0.584024
C    -1.406551  -3.891629  -1.823157
C    -0.753562  -5.137427  -1.727330
H    -1.965804  -1.167909  1.758096
H    -0.903562  -1.216415  3.167145
H    0.693652  -3.379486  3.427080
H    1.110467  -5.442344  2.050401
H    -1.859618  -2.005300  -0.871846
H    0.450225  -6.461434  -0.506606
H    -1.956329  -3.649286  -2.732163
H    -0.805266  -5.834471  -2.563158
O    2.085916  -0.925386  1.945269
H    1.548073  -1.724927  1.737758
