27
Energy: -18678.5820567 eV PBE+vdW (tier 2 basis)
N    0.734203  0.398553  0.451364
C    0.318169  -0.043461  1.781648
C    0.470951  -1.552467  1.976153
O    0.167167  -2.388650  1.147648
H    0.267108  -0.177344  -0.253504
H    1.734818  0.239733  0.325587
H    0.938458  0.465575  2.531753
C    -1.160710  0.366882  2.013176
C    -1.690268  0.097970  3.386887
C    -1.653569  0.969431  4.453213
C    -2.301524  -1.111737  3.875301
N    -2.199285  0.371026  5.571474
C    -2.608870  -0.905430  5.251745
C    -2.625927  -2.349178  3.289916
C    -3.216368  -1.886259  6.040448
C    -3.229561  -3.326556  4.071789
C    -3.521035  -3.099401  5.432393
H    -1.777426  -0.147598  1.259140
H    -1.211172  1.439298  1.780348
H    -1.278475  1.986808  4.500047
H    -2.305717  0.811030  6.474709
H    -2.402044  -2.544999  2.241337
H    -3.443893  -1.709522  7.092144
H    -3.484545  -4.288306  3.627133
H    -3.994830  -3.887129  6.017592
O    0.982318  -1.869965  3.193801
H    0.972029  -2.846305  3.248759
