27
Energy: -18678.5423946 eV PBE+vdW (tier 2 basis)
N    2.275720  -0.886934  2.038028
C    0.847389  -0.681652  1.828795
C    0.572395  0.513490  0.935303
O    -0.364510  0.607348  0.170833
H    2.405412  -1.646558  2.709216
H    2.699828  -0.051005  2.443261
H    0.452841  -1.551413  1.285497
C    -0.010138  -0.508471  3.132369
C    0.068478  -1.709672  4.013329
C    0.836802  -1.856461  5.148760
C    -0.597646  -2.971077  3.810657
N    0.679424  -3.129274  5.662844
C    -0.195003  -3.838478  4.866311
C    -1.500839  -3.450491  2.845682
C    -0.666165  -5.149358  4.978113
C    -1.970783  -4.753746  2.953509
C    -1.557815  -5.593920  4.007410
H    -1.053772  -0.314294  2.839689
H    0.349404  0.383449  3.667305
H    1.479411  -1.136032  5.644407
H    1.116687  -3.476056  6.505128
H    -1.830918  -2.811059  2.026325
H    -0.349668  -5.800452  5.793426
H    -2.671478  -5.136786  2.212131
H    -1.944933  -6.610922  4.063395
O    1.460719  1.530092  1.136304
H    1.171158  2.254733  0.548975
