27
Energy: -18678.3654951 eV PBE+vdW (tier 2 basis)
N    1.775929  -1.395251  2.485051
C    1.016911  -1.372950  1.220218
C    1.469775  -0.113726  0.473360
O    0.930800  0.967348  0.478288
H    1.457001  -2.179569  3.055196
H    2.767610  -1.548469  2.298953
H    1.244268  -2.240251  0.571402
C    -0.479928  -1.333577  1.513834
C    -1.368072  -1.516778  0.321044
C    -1.020074  -1.827076  -0.975451
C    -2.802173  -1.397433  0.334288
N    -2.155813  -1.906346  -1.761992
C    -3.265765  -1.647981  -0.988932
C    -3.741557  -1.102043  1.337161
C    -4.621591  -1.611643  -1.325506
C    -5.090937  -1.064806  1.006331
C    -5.526279  -1.317101  -0.310502
H    -0.706375  -0.377245  2.009404
H    -0.698292  -2.122214  2.255335
H    -0.044973  -1.995307  -1.420265
H    -2.163524  -2.103842  -2.752545
H    -3.417910  -0.901098  2.358869
H    -4.960236  -1.804763  -2.343854
H    -5.828669  -0.834794  1.774737
H    -6.591228  -1.279192  -0.538379
O    2.636147  -0.355974  -0.202147
H    2.895955  0.498081  -0.599895
