27
Energy: -18678.5375516 eV PBE+vdW (tier 2 basis)
N    0.216351  0.800988  3.265324
C    -0.352151  -0.260944  2.436243
C    0.754690  -0.765713  1.521148
O    1.443461  -0.048787  0.822797
H    -0.520835  1.265329  3.796432
H    0.650358  1.504381  2.663805
H    -0.664214  -1.089587  3.086272
C    -1.561195  0.173480  1.549933
C    -2.131929  -0.917919  0.703474
C    -1.923753  -1.103812  -0.645505
C    -2.949713  -2.018023  1.142648
N    -2.565540  -2.252468  -1.066532
C    -3.207821  -2.835851  0.004738
C    -3.496207  -2.392485  2.382326
C    -3.985968  -3.994269  0.077106
C    -4.270368  -3.543949  2.458683
C    -4.512353  -4.336700  1.318426
H    -1.228233  1.011262  0.919584
H    -2.329698  0.570859  2.232721
H    -1.355435  -0.498263  -1.344078
H    -2.583368  -2.594663  -2.017007
H    -3.317611  -1.789629  3.273609
H    -4.175054  -4.608490  -0.803767
H    -4.698907  -3.843636  3.414744
H    -5.122914  -5.234453  1.410914
O    0.874392  -2.115425  1.542861
H    1.576018  -2.335233  0.898102
