27
Energy: -18678.5092848 eV PBE+vdW (tier 2 basis)
N    -0.243047  -1.721028  1.227159
C    -0.130459  -0.280735  1.452328
C    1.328133  0.159301  1.529060
O    1.745813  1.108628  2.157486
H    -1.221970  -1.964764  1.072062
H    0.280594  -2.000992  0.398944
H    -0.543084  0.327436  0.614699
C    -0.889969  0.140915  2.725982
C    -2.373215  -0.042467  2.618358
C    -3.279685  0.907486  2.198834
C    -3.139754  -1.228549  2.908721
N    -4.556087  0.379335  2.205348
C    -4.507437  -0.927191  2.640392
C    -2.811828  -2.512926  3.382330
C    -5.531530  -1.860168  2.825671
C    -3.828505  -3.441442  3.568700
C    -5.173421  -3.120253  3.292729
H    -0.650404  1.192560  2.927516
H    -0.492447  -0.444729  3.567946
H    -3.111112  1.937805  1.902275
H    -5.397076  0.884964  1.964456
H    -1.774652  -2.775717  3.589985
H    -6.572119  -1.611461  2.615036
H    -3.585307  -4.438498  3.935291
H    -5.946541  -3.872013  3.449475
O    2.136256  -0.604794  0.739368
H    3.030071  -0.220292  0.825563
