27
Energy: -18678.5227719 eV PBE+vdW (tier 2 basis)
N    -0.130917  0.744578  0.397977
C    0.101138  -0.018594  1.616646
C    1.387503  -0.833474  1.552395
O    1.895549  -1.372422  2.516156
H    -0.254158  0.122786  -0.402080
H    -0.988699  1.288558  0.489033
H    0.260276  0.698148  2.437978
C    -1.045042  -0.981206  2.079467
C    -1.319944  -2.105711  1.132208
C    -0.749284  -3.360483  1.175824
C    -2.176226  -2.092459  -0.025970
N    -1.197454  -4.118773  0.113042
C    -2.076393  -3.374250  -0.642869
C    -3.033601  -1.136207  -0.600006
C    -2.788060  -3.708495  -1.798297
C    -3.744708  -1.465237  -1.747327
C    -3.621019  -2.737134  -2.342969
H    -1.947207  -0.366199  2.218741
H    -0.772802  -1.375312  3.068602
H    -0.046581  -3.770160  1.894148
H    -0.940353  -5.079498  -0.065703
H    -3.144044  -0.149175  -0.149923
H    -2.696311  -4.693591  -2.256671
H    -4.411514  -0.730212  -2.197486
H    -4.189933  -2.963877  -3.244120
O    1.892967  -0.949850  0.298532
H    2.681491  -1.519929  0.387287
