27
Energy: -18678.5668221 eV PBE+vdW (tier 2 basis)
N    0.407029  -2.168028  1.140820
C    0.737417  -0.944243  0.429246
C    1.876117  -0.254374  1.157706
O    2.066076  -0.297320  2.355406
H    -0.508895  -2.509730  0.849626
H    0.373320  -1.982791  2.144820
H    1.082155  -1.198801  -0.584811
C    -0.422558  0.102048  0.271783
C    -1.623996  -0.470790  -0.408688
C    -1.863460  -0.498228  -1.766402
C    -2.738483  -1.142604  0.210273
N    -3.055057  -1.146827  -2.021707
C    -3.619711  -1.553406  -0.832315
C    -3.089881  -1.429208  1.542456
C    -4.813411  -2.235194  -0.579931
C    -4.276345  -2.105440  1.796719
C    -5.128384  -2.506310  0.747106
H    -0.039178  0.962979  -0.295667
H    -0.692999  0.470442  1.273261
H    -1.270956  -0.093381  -2.580476
H    -3.459711  -1.281769  -2.937785
H    -2.440472  -1.126152  2.364209
H    -5.474192  -2.543697  -1.390498
H    -4.557109  -2.332154  2.824897
H    -6.050910  -3.037175  0.980069
O    2.646151  0.488390  0.314233
H    3.304442  0.937763  0.879648
