27
Energy: -18678.509577 eV PBE+vdW (tier 2 basis)
N    -0.006739  0.619425  1.526122
C    0.626373  -0.357477  2.405498
C    1.757236  -1.035321  1.651021
O    1.833360  -1.131697  0.443695
H    0.062736  0.288789  0.561427
H    -0.995658  0.709797  1.759607
H    1.085839  0.155518  3.268078
C    -0.317852  -1.460037  2.955973
C    -1.466466  -0.924136  3.758593
C    -1.562220  0.286449  4.412609
C    -2.696955  -1.623176  4.024472
N    -2.775785  0.371460  5.068609
C    -3.496995  -0.781509  4.849763
C    -3.201457  -2.880760  3.649657
C    -4.767028  -1.158193  5.294992
C    -4.464105  -3.258568  4.090042
C    -5.238663  -2.406821  4.903679
H    0.271156  -2.165323  3.565744
H    -0.706986  -2.036359  2.100607
H    -0.859472  1.111644  4.462037
H    -3.093837  1.170849  5.598345
H    -2.612939  -3.551792  3.023326
H    -5.366719  -0.501082  5.925394
H    -4.866169  -4.230286  3.804396
H    -6.224899  -2.732835  5.232844
O    2.682530  -1.567918  2.494512
H    3.336715  -2.018640  1.925958
