27
Energy: -18678.561796 eV PBE+vdW (tier 2 basis)
N    -0.384841  0.453061  0.558016
C    -0.215327  -0.516289  1.631363
C    1.099424  -0.237372  2.340420
O    1.783853  0.752588  2.183755
H    -1.370065  0.562276  0.327203
H    -0.003588  1.356834  0.836964
H    -0.982434  -0.432225  2.430872
C    -0.295114  -1.962692  1.073905
C    -1.631109  -2.252741  0.468921
C    -1.949871  -2.244691  -0.870873
C    -2.854064  -2.539078  1.173974
N    -3.295443  -2.513017  -1.037068
C    -3.880035  -2.699422  0.197451
C    -3.185771  -2.682259  2.532971
C    -5.201756  -2.993431  0.542496
C    -4.500163  -2.972307  2.879791
C    -5.497519  -3.125606  1.895615
H    -0.082238  -2.670757  1.886626
H    0.494695  -2.074489  0.318184
H    -1.310836  -2.058965  -1.727563
H    -3.769732  -2.584251  -1.926339
H    -2.423407  -2.573127  3.305286
H    -5.974363  -3.115277  -0.217278
H    -4.768210  -3.086121  3.929934
H    -6.518724  -3.353649  2.199688
O    1.422772  -1.218179  3.229421
H    2.253545  -0.926647  3.652031
