27
Energy: -18678.5882326 eV PBE+vdW (tier 2 basis)
N    0.489087  -3.330327  0.488427
C    0.429152  -2.104979  1.306495
C    0.857783  -0.907580  0.434991
O    1.591916  -1.274057  -0.640062
H    0.680093  -4.150840  1.063286
H    1.553730  -2.270487  -0.620049
H    -0.576534  -1.883789  1.694522
C    1.405905  -2.244417  2.507184
C    1.293173  -1.160779  3.526036
C    2.101484  -0.053971  3.651745
C    0.274385  -1.039041  4.533875
N    1.647114  0.742490  4.680943
C    0.525530  0.170914  5.243090
C    -0.825915  -1.827909  4.911128
C    -0.280192  0.598353  6.301016
C    -1.631403  -1.405097  5.962183
C    -1.361814  -0.204608  6.649521
H    2.433622  -2.309139  2.119256
H    1.189429  -3.216984  2.982330
H    2.960544  0.243259  3.059952
H    2.054883  1.625277  4.955287
H    -1.048626  -2.759836  4.389147
H    -0.073753  1.527304  6.833190
H    -2.487788  -2.008490  6.262485
H    -2.012776  0.100914  7.468120
O    0.607073  0.245555  0.700304
H    -0.390104  -3.496736  -0.000402
