27
Energy: -18678.5359678 eV PBE+vdW (tier 2 basis)
N    0.127758  0.011726  -0.062421
C    0.007331  -0.071194  1.386984
C    1.364312  -0.180629  2.066452
O    1.570188  0.128833  3.223223
H    0.524309  -0.853241  -0.433971
H    -0.797203  0.121457  -0.479744
H    -0.415871  0.876645  1.749903
C    -0.922384  -1.212871  1.936986
C    -0.510275  -2.593883  1.542919
C    -0.912430  -3.273711  0.412343
C    0.416890  -3.461653  2.225575
N    -0.290220  -4.505356  0.354729
C    0.530260  -4.653158  1.452566
C    1.158194  -3.356293  3.416425
C    1.352501  -5.718140  1.830921
C    1.976167  -4.413643  3.795459
C    2.074122  -5.581515  3.011749
H    -1.932681  -0.998245  1.557183
H    -0.971094  -1.119006  3.031917
H    -1.617602  -2.976095  -0.356979
H    -0.436962  -5.200054  -0.364064
H    1.099968  -2.457858  4.030823
H    1.426484  -6.622164  1.225761
H    2.553937  -4.342021  4.716694
H    2.725274  -6.392242  3.337521
O    2.316534  -0.725263  1.268180
H    3.109843  -0.825015  1.829483
