27
Energy: -18678.5811204 eV PBE+vdW (tier 2 basis)
N    1.243395  0.063887  0.409457
C    0.050831  0.094302  1.242675
C    0.166219  0.742774  2.632000
O    -0.755252  0.857846  3.415430
H    1.962733  -0.517192  0.843407
H    1.642531  0.996969  0.314554
H    -0.712053  0.698332  0.722512
C    -0.542039  -1.328090  1.413857
C    0.344613  -2.268403  2.173176
C    0.320052  -2.484445  3.534989
C    1.397776  -3.102458  1.650963
N    1.296073  -3.396088  3.884564
C    1.972980  -3.799366  2.753919
C    1.906824  -3.342273  0.360983
C    3.024504  -4.707172  2.601227
C    2.951119  -4.245799  0.206552
C    3.505294  -4.920382  1.313639
H    -0.737335  -1.716692  0.405015
H    -1.508707  -1.230587  1.923672
H    -0.330131  -2.049635  4.287104
H    1.465971  -3.736186  4.820766
H    1.493717  -2.819033  -0.501432
H    3.452423  -5.230536  3.456796
H    3.352570  -4.438654  -0.788085
H    4.324379  -5.622007  1.158029
O    1.418228  1.201908  2.909136
H    1.359686  1.590434  3.803861
