27
Energy: -18678.5110134 eV PBE+vdW (tier 2 basis)
N    0.620219  -0.963458  -0.062529
C    -0.257603  -0.496283  1.001789
C    0.369775  0.615916  1.868951
O    1.561581  0.811842  1.943029
H    1.544614  -1.151198  0.334524
H    0.769616  -0.213606  -0.739003
H    -1.165221  -0.084966  0.531565
C    -0.675306  -1.704983  1.886755
C    -1.658459  -1.384089  2.966618
C    -1.423330  -1.396541  4.324027
C    -3.019593  -0.936078  2.797876
N    -2.553532  -0.990942  5.003489
C    -3.550147  -0.694163  4.099921
C    -3.849870  -0.725520  1.680033
C    -4.858251  -0.246710  4.303661
C    -5.150020  -0.278741  1.880778
C    -5.647858  -0.039265  3.177807
H    0.236169  -2.136782  2.327098
H    -1.078165  -2.458938  1.194527
H    -0.517898  -1.656309  4.862336
H    -2.629013  -0.905082  6.007674
H    -3.484735  -0.921225  0.671287
H    -5.247490  -0.067321  5.306057
H    -5.801084  -0.113413  1.022911
H    -6.671840  0.311836  3.300807
O    -0.496879  1.400214  2.567060
H    -1.399682  1.031805  2.494952
