27
Energy: -18678.5436415 eV PBE+vdW (tier 2 basis)
N    0.751023  0.110284  0.346820
C    0.258528  -0.161635  1.693889
C    0.412015  -1.653609  1.943114
O    0.138310  -2.513094  1.128680
H    0.438358  1.028555  0.031228
H    0.369040  -0.585650  -0.297168
H    0.878105  0.375075  2.426799
C    -1.234228  0.250359  1.931015
C    -1.747122  0.050240  3.321479
C    -1.684201  0.959989  4.354405
C    -2.354428  -1.137236  3.865989
N    -2.212997  0.406451  5.503673
C    -2.635118  -0.878566  5.238843
C    -2.690734  -2.394674  3.332941
C    -3.231568  -1.827147  6.074075
C    -3.282869  -3.340440  4.161204
C    -3.550284  -3.061028  5.517029
H    -1.852707  -0.301505  1.206512
H    -1.302839  1.314527  1.657292
H    -1.301111  1.975473  4.358359
H    -2.295359  0.878121  6.393358
H    -2.485155  -2.630429  2.288626
H    -3.439374  -1.611034  7.122455
H    -3.547309  -4.317680  3.757831
H    -4.015891  -3.824689  6.139472
O    0.850082  -1.928088  3.194649
H    0.822564  -2.901161  3.285939
