27
Energy: -18678.7590519 eV PBE+vdW (tier 2 basis)
N    -0.629292  -0.246864  -0.246117
C    -0.131907  -0.199341  1.140163
C    1.417629  -0.242059  1.114258
O    1.926926  -0.065860  -0.115622
H    -0.883435  -1.204877  -0.499820
H    1.105473  0.002168  -0.687813
H    -0.381938  0.789474  1.557207
C    -0.689867  -1.287466  2.084532
C    -0.511872  -2.671789  1.539192
C    0.610692  -3.464124  1.661848
C    -1.441528  -3.410564  0.723699
N    0.426846  -4.645493  0.974219
C    -0.818138  -4.648355  0.385116
C    -2.743064  -3.159737  0.249340
C    -1.449400  -5.613271  -0.404027
C    -3.372624  -4.117423  -0.536562
C    -2.732228  -5.330579  -0.861641
H    -1.756103  -1.085417  2.263492
H    -0.174981  -1.183368  3.048433
H    1.537893  -3.261736  2.187434
H    1.105302  -5.392205  0.913373
H    -3.256200  -2.230039  0.499634
H    -0.957226  -6.553685  -0.653239
H    -4.380693  -3.932919  -0.907040
H    -3.252530  -6.061135  -1.480145
O    2.099521  -0.394319  2.105442
H    -1.454513  0.334972  -0.373932
