27
Energy: -18678.4740193 eV PBE+vdW (tier 2 basis)
N    0.807802  -0.121327  -0.022057
C    0.238706  -0.081123  1.327607
C    1.205453  -0.763058  2.289087
O    1.710233  -0.262672  3.267543
H    0.235823  0.434710  -0.658221
H    0.813416  -1.078575  -0.377713
H    0.208142  0.967095  1.651798
C    -1.185180  -0.697648  1.466772
C    -1.744853  -0.634774  2.851352
C    -1.796106  -1.662795  3.766772
C    -2.273706  0.526711  3.516999
N    -2.328882  -1.207169  4.956533
C    -2.633012  0.131934  4.837868
C    -2.486094  1.860745  3.128801
C    -3.188879  1.022669  5.759853
C    -3.038758  2.749846  4.042537
C    -3.385659  2.335528  5.344509
H    -1.145080  -1.740068  1.117969
H    -1.837601  -0.153312  0.764639
H    -1.487611  -2.697543  3.658766
H    -2.469796  -1.768226  5.784805
H    -2.221655  2.197195  2.125464
H    -3.457182  0.704172  6.767540
H    -3.206473  3.786848  3.752702
H    -3.814880  3.057253  6.038884
O    1.438400  -2.061102  1.922178
H    2.076933  -2.408437  2.574098
