27
Energy: -18678.6093191 eV PBE+vdW (tier 2 basis)
N    1.360936  -0.773385  0.510415
C    0.054524  -0.554582  1.110341
C    0.116461  0.100479  2.494508
O    1.114225  0.240227  3.167542
H    1.869861  0.109274  0.451709
H    1.912638  -1.368180  1.133512
H    -0.516515  0.132318  0.465639
C    -0.742618  -1.889503  1.157887
C    -0.112004  -2.950874  2.005490
C    0.839202  -3.863679  1.599796
C    -0.346238  -3.206905  3.403812
N    1.209630  -4.661741  2.663730
C    0.500936  -4.287561  3.784940
C    -1.199957  -2.647051  4.370889
C    0.523230  -4.801354  5.084371
C    -1.182484  -3.156794  5.663087
C    -0.327675  -4.220099  6.018049
H    -0.817936  -2.233237  0.117478
H    -1.762744  -1.680302  1.507009
H    1.278179  -4.008102  0.618016
H    1.882489  -5.414282  2.620775
H    -1.867753  -1.825930  4.110616
H    1.180684  -5.627196  5.357599
H    -1.840834  -2.730091  6.419577
H    -0.335735  -4.595149  7.041068
O    -1.112552  0.538980  2.900947
H    -0.977248  0.918611  3.791040
