16
Energy: -168056.9496189  eV PBE+vdW (tier 2 basis)
N    0.686572  -0.370905  0.054232
C    0.314425  -0.006644  1.398958
C    1.642962  0.014270  2.205490
O    2.340317  -0.971298  2.475876
H    0.915993  -1.361241  -0.037615
H    -0.025707  -0.120572  -0.629153
H    -0.070326  1.024336  1.369747
C    -0.857387  -0.845493  2.065116
C    -0.240402  -2.156444  2.477524
O    0.040839  -2.310449  3.712910
O    0.228137  -2.912164  1.553707
H    -1.631972  -0.980765  1.301546
H    -1.272847  -0.328481  2.936502
O    2.117870  1.192756  2.573497
H    1.549873  1.925639  2.269708
Cd    1.946735  -3.190712  2.968823
