16
Energy: -168057.0875176  eV PBE+vdW (tier 2 basis)
N    -0.446538  -0.038306  -0.149234
C    -0.098986  -0.103262  1.310853
C    1.215310  -0.864619  1.533243
O    1.667689  -1.078510  2.625166
H    -1.177943  0.663096  -0.302680
H    0.384535  0.256130  -0.668848
H    0.076356  0.928740  1.661844
C    -1.220037  -0.683265  2.233351
C    -1.765075  -1.814656  1.374172
O    -2.766756  -1.531719  0.644178
O    -0.959308  -2.780664  1.133958
H    -1.997863  0.055659  2.442499
H    -0.746249  -1.024258  3.159825
O    1.809257  -1.212904  0.357992
H    2.656116  -1.649637  0.582724
Cd    -1.291333  -2.150494  -0.982872
