16
Energy: -168057.3093326  eV PBE+vdW (tier 2 basis)
 N    0.05636    1.12592    0.82298
 C    0.30717   -0.14212    1.59462
 C    1.54186   -0.76482    0.79419
 O    2.21866   -1.75722    1.23129
 H   -0.90072    1.21359    0.47014
 H    0.80074    0.92986    0.00765
 H    0.65165    0.10976    2.60450
 C   -0.99678   -0.97839    1.70030
 C   -0.53307   -2.33104    2.20816
 O    0.00797   -2.34785    3.36555
 O   -0.42864   -3.27320    1.36129
 H   -1.47646   -1.09717    0.72112
 H   -1.68440   -0.49904    2.40807
 O    1.83271   -0.12300   -0.23340
 H    0.29884    1.97344    1.34306
Cd    1.60312   -3.53472    2.30949
