16
Energy: -168057.1105931  eV PBE+vdW (tier 2 basis)
N    -0.174349  0.197011  -0.312885
C    0.072300  -0.015767  1.148410
C    1.264452  -0.937542  1.401002
O    1.860834  -1.005606  2.434272
H    -0.962518  0.839513  -0.439579
H    0.637009  0.632779  -0.759550
H    0.347556  0.944863  1.610209
C    -1.180296  -0.508753  1.918555
C    -1.770714  -1.927485  1.753284
O    -1.617310  -2.668429  0.657946
O    -2.438508  -2.371091  2.665162
H    -2.003991  0.199146  1.730170
H    -0.952147  -0.411814  2.987030
O    1.570438  -1.726440  0.295036
H    2.299619  -2.327796  0.556784
Cd    -0.579374  -1.961588  -0.988847
