16
Energy: -168057.4452203  eV PBE+vdW (tier 2 basis)
N    -0.770668  0.852866  0.187159
C    -0.478074  0.517669  1.601227
C    0.735182  -0.427355  1.579594
O    1.106656  -1.041337  0.576273
H    -1.686962  1.300043  0.097750
H    -0.060176  1.478522  -0.198848
H    -0.195769  1.411574  2.179233
C    -1.712875  -0.125591  2.324729
C    -2.147661  -1.200431  1.322508
O    -2.905735  -0.823588  0.381975
O    -1.395125  -2.235782  1.274935
H    -2.489699  0.630781  2.476638
H    -1.394325  -0.540900  3.285715
O    1.352018  -0.483040  2.744537
H    2.093974  -1.122548  2.697124
Cd    -0.872758  -1.378886  -0.751551
