16
Energy: -168057.1779889  eV PBE+vdW (tier 2 basis)
N    0.542418  -0.968183  0.272329
C    0.245146  -0.198041  1.546001
C    1.423734  -0.376440  2.558002
O    1.561198  0.457055  3.423521
H    0.034196  -0.597625  -0.539219
H    0.235574  -1.964117  0.476563
H    0.136018  0.863774  1.298038
C    -1.099171  -0.743913  2.137571
C    -0.750786  -2.144630  2.611567
O    -0.548031  -2.319852  3.857248
O    -0.363148  -2.986123  1.724717
H    -1.885301  -0.735224  1.370384
H    -1.400526  -0.109822  2.976074
O    2.159634  -1.469699  2.359624
H    1.551338  -0.975574  0.079974
Cd    1.414203  -3.211521  3.337625
