16
Energy: -168057.1173899  eV PBE+vdW (tier 2 basis)
N    -0.283465  -0.108636  -0.096207
C    -0.369678  -0.099957  1.321958
C    0.973411  -0.034357  2.067426
O    1.099370  0.296731  3.254571
H    0.539209  -0.518189  -0.523363
H    -0.659069  0.689739  -0.592668
H    -0.938468  0.774375  1.666566
C    -1.218345  -1.377656  1.780751
C    -1.135444  -1.420587  3.291033
O    -1.732803  -0.504045  3.948024
O    -0.257726  -2.193423  3.802446
H    -0.793600  -2.282322  1.336150
H    -2.241063  -1.218654  1.425843
O    2.011915  -0.363737  1.311440
H    2.832369  -0.307052  1.843882
Cd    0.086389  -0.521231  5.257150
