16
Energy: -168057.0157201  eV PBE+vdW (tier 2 basis)
N    -0.580727  0.368723  0.369185
C    -0.042646  -0.087784  1.600527
C    1.438514  0.309432  1.642097
O    1.959617  1.012655  0.809736
H    -1.572736  0.560758  0.296517
H    0.046945  0.913134  -0.221445
H    -0.534826  0.361077  2.487869
C    -0.250937  -1.626671  1.705439
C    -0.083759  -2.144930  3.133650
O    0.430834  -3.301033  3.261050
O    -0.492835  -1.442789  4.108712
H    0.403089  -2.179435  1.022426
H    -1.291116  -1.863839  1.432256
O    2.075273  -0.222984  2.708021
H    3.005883  0.076784  2.664545
Cd    0.190426  -3.124095  5.489415
