16
Energy: -168057.1818230  eV PBE+vdW (tier 2 basis)
N    -0.146792  0.467809  0.338487
C    0.051219  -0.156553  1.606655
C    1.537954  -0.330819  1.932850
O    2.002795  -0.450088  3.075891
H    0.286498  0.010650  -0.460382
H    -1.108345  0.736195  0.146404
H    -0.349970  0.489894  2.401273
C    -0.738560  -1.540795  1.739704
C    -0.315747  -2.115688  3.074193
O    0.602378  -3.001249  3.064727
O    -0.681390  -1.491522  4.126693
H    -0.473732  -2.214078  0.918564
H    -1.808123  -1.305840  1.720547
O    2.311053  -0.335692  0.858600
H    3.246254  -0.445048  1.130043
Cd    1.395595  -1.899954  4.856542
