16
Energy: -168057.5787354  eV PBE+vdW (tier 2 basis)
N    -0.717846  0.618856  -0.485989
C    -0.337636  0.544812  0.947630
C    0.933998  -0.294319  1.077948
O    1.281779  -1.157975  0.264535
H    -0.075647  1.216273  -1.012730
H    -1.653978  1.021471  -0.580075
H    -0.097688  1.545232  1.338769
C    -1.482622  -0.007495  1.838777
C    -2.097142  -1.424340  1.678189
O    -1.891320  -2.205078  0.626924
O    -2.828174  -1.797091  2.574184
H    -2.326479  0.696473  1.765351
H    -1.150782  0.054636  2.882864
O    1.613038  -0.012575  2.171776
H    2.388986  -0.608218  2.249865
Cd    -0.640486  -1.672661  -0.950019
