16
Energy: -168057.1750619  eV PBE+vdW (tier 2 basis)
N    -0.111415  0.273388  0.094561
C    0.079769  -0.018306  1.564317
C    1.653803  -0.204255  1.644656
O    2.289027  0.302290  0.716822
H    0.864364  0.626830  -0.163136
H    -0.856983  0.942263  -0.119661
H    -0.184056  0.897843  2.110758
C    -0.812032  -1.187703  2.056774
C    0.005649  -2.462781  1.911439
O    0.654597  -2.588656  0.816095
O    0.233332  -3.166041  2.946968
H    -1.748809  -1.226998  1.483010
H    -1.077243  -1.048136  3.108369
O    2.120280  -0.851661  2.661732
H    -0.260731  -0.605643  -0.420971
Cd    2.379448  -2.972437  2.337268
