16
Energy: -168057.2690126  eV PBE+vdW (tier 2 basis)
N    -0.755708  0.545163  0.060543
C    -0.095012  0.339432  1.403739
C    1.416712  0.154545  1.190898
O    2.097229  -0.105832  2.236112
H    -0.061456  0.885745  -0.620395
H    -1.560879  1.177587  0.101391
H    -0.352868  1.155216  2.086891
C    -0.547843  -1.051094  1.953040
C    -0.184984  -2.099916  0.883515
O    -0.853988  -2.070582  -0.162276
O    0.824771  -2.911617  1.071332
H    -1.637030  -1.049491  2.093665
H    -0.061066  -1.222810  2.915869
O    1.800672  -0.061171  0.006354
H    -1.053531  -0.444805  -0.267591
Cd    2.723981  -1.969368  1.140913
