16
Energy: -168057.0848952  eV PBE+vdW (tier 2 basis)
N    -0.222273  -0.094822  -0.189833
C    -0.203722  -0.134900  1.306245
C    1.084269  0.496354  1.880806
O    1.094811  1.103866  2.917964
H    0.675097  -0.434043  -0.555521
H    -0.307662  0.880478  -0.488073
H    -1.048619  0.468627  1.652992
C    -0.331330  -1.561954  1.945440
C    -1.294472  -2.244395  0.988825
O    -2.483513  -1.784617  0.939304
O    -0.755128  -2.928264  0.058324
H    -0.732464  -1.447602  2.957516
H    0.624061  -2.094569  1.965120
O    2.152070  0.241273  1.094138
H    2.948407  0.619650  1.520528
Cd    -1.958534  -1.517082  -1.234772
