36
Energy: -108382.65927 eV PBE+vdW (tier 2 basis)
C    -0.746114  -0.791434  1.375878
C    -1.642816  -0.439685  2.520443
O    -1.323439  -0.717878  3.707766
H    -0.009782  0.011179  1.212757
H    -1.291163  -0.959337  0.440900
H    -0.182351  -1.692333  1.641480
N    -2.822138  0.198410  2.291328
C    -2.961939  1.298524  1.345942
C    -2.175484  2.513612  1.917535
O    -1.764553  2.493845  3.117511
H    -3.388667  0.337790  3.135651
H    -2.478809  1.002542  0.403506
C    -4.450151  1.587906  1.020318
C    -5.323955  2.375042  2.015011
C    -5.743483  1.694953  3.324108
N    -4.613168  1.648190  4.260738
C    -4.609366  1.052602  5.507199
N    -5.725842  0.420849  5.910405
N    -3.468334  1.096734  6.178771
H    -4.909109  0.611426  0.806162
H    -4.478157  2.134428  0.069249
H    -6.252143  2.621676  1.481453
H    -4.867317  3.352809  2.247919
H    -6.088935  0.668847  3.127506
H    -6.588457  2.260023  3.751972
H    -4.041170  2.488666  4.241207
H    -6.622809  0.577477  5.466791
H    -5.729805  -0.125375  6.763562
H    -3.595752  0.785073  7.144044
N    -1.929267  3.565249  1.143684
C    -2.263104  3.777332  -0.266602
H    -1.428497  4.320962  1.610758
H    -3.236408  4.272813  -0.373904
H    -2.270519  2.830757  -0.816193
H    -1.494413  4.419007  -0.708436
Sr    -1.242928  1.208408  5.112383
