36
Energy: -108380.86999 eV PBE+vdW (tier 2 basis)
C    -0.290508  1.408668  -0.159656
C    -0.097068  0.784281  1.181453
O    1.049276  0.736206  1.733276
H    -0.706855  2.423862  -0.058872
H    -0.994854  0.830371  -0.773605
H    0.679093  1.487125  -0.660410
N    -1.156972  0.270819  1.845247
C    -2.446371  0.952934  1.932271
C    -2.233654  2.233389  2.777829
O    -1.125199  2.401251  3.407817
H    -0.903872  -0.265694  2.676116
H    -2.774312  1.272097  0.925667
C    -3.513418  0.024590  2.546969
C    -3.669871  -1.360709  1.885895
C    -3.728964  -1.415794  0.344968
N    -4.499224  -0.322181  -0.246091
C    -3.945466  0.628561  -1.082445
N    -3.153448  0.111227  -2.095144
N    -4.137124  1.886727  -0.816190
H    -4.468445  0.562322  2.511898
H    -3.299450  -0.122285  3.618107
H    -4.590635  -1.793456  2.303243
H    -2.863971  -2.036358  2.208741
H    -4.142575  -2.393863  0.057419
H    -2.716727  -1.370839  -0.078383
H    -5.257270  0.057934  0.311039
H    -2.860550  0.776141  -2.804146
H    -3.449659  -0.778068  -2.490797
H    -3.887139  2.491663  -1.603601
N    -3.174384  3.153557  2.857040
C    -4.473495  3.218957  2.173085
H    -2.953592  3.924516  3.488062
H    -4.698359  4.275088  1.991544
H    -5.261039  2.803922  2.815328
H    -4.437395  2.701613  1.199778
Sr    1.124124  2.047141  3.648219
