36
Energy: -108382.75608 eV PBE+vdW (tier 2 basis)
C    1.457688  1.798702  1.670988
C    0.690374  1.300822  2.853042
O    1.096966  1.495634  4.028668
H    1.610386  2.880940  1.774258
H    0.967694  1.592297  0.713829
H    2.453764  1.335564  1.670745
N    -0.461160  0.628731  2.634976
C    -1.300763  0.159616  3.733840
C    -0.732212  -1.108204  4.409240
O    -0.176636  -0.956587  5.535885
H    -0.778815  0.508347  1.677462
H    -1.186254  0.918697  4.517684
C    -2.799103  0.134539  3.405619
C    -3.456966  1.512997  3.583022
C    -3.256128  2.150785  4.972945
N    -2.220508  3.211048  4.965138
C    -1.566107  3.615148  6.107829
N    -1.568222  4.944944  6.354472
N    -0.922272  2.733766  6.865776
H    -3.284351  -0.581063  4.086181
H    -2.982155  -0.245589  2.390346
H    -4.532408  1.393845  3.400545
H    -3.101620  2.208688  2.807704
H    -2.967094  1.407613  5.727291
H    -4.207006  2.585186  5.316175
H    -2.469326  3.987723  4.355640
H    -0.952278  5.347463  7.051129
H    -2.274598  5.558869  5.964904
H    -0.770596  3.145876  7.792391
N    -0.808721  -2.311476  3.851731
C    -1.419854  -2.709053  2.583203
H    -0.409286  -3.056898  4.421806
H    -0.957751  -3.647156  2.261607
H    -1.234381  -1.963913  1.803582
H    -2.499512  -2.871558  2.692277
Sr    0.826351  1.047872  6.334612
