36
Energy: -108382.993304 eV PBE+vdW (tier 2 basis)
C    -0.037439  0.100285  0.228536
C    -0.152532  -0.045181  1.715089
O    0.859208  -0.276608  2.422992
H    -0.986463  0.324422  -0.269383
H    0.372268  -0.830800  -0.185926
H    0.684488  0.895740  0.001855
N    -1.386874  0.081725  2.256202
C    -1.751165  -0.107964  3.674754
C    -1.126131  1.019266  4.525602
O    0.022788  0.895738  5.028585
H    -2.149412  0.249924  1.607601
H    -2.840738  0.014107  3.709959
C    -1.405918  -1.526918  4.160100
C    -1.583096  -1.809784  5.659734
C    -0.644217  -2.933204  6.115221
N    0.773979  -2.502645  6.094073
C    1.368454  -1.806899  7.184033
N    0.749222  -1.826420  8.377783
N    2.455575  -1.150294  6.871048
H    -0.373235  -1.754909  3.865421
H    -2.023758  -2.222479  3.574918
H    -2.618211  -2.104915  5.877587
H    -1.382143  -0.916229  6.268627
H    -0.719041  -3.790233  5.432933
H    -0.950484  -3.316788  7.099872
H    1.398807  -3.255225  5.804968
H    1.125446  -1.292955  9.153696
H    0.064282  -2.535823  8.610745
H    2.966196  -0.796179  7.682646
N    -1.828242  2.134833  4.716371
C    -3.156737  2.481005  4.203040
H    -1.346986  2.841289  5.271494
H    -3.169314  2.504965  3.106348
H    -3.406176  3.482596  4.563760
H    -3.924175  1.790075  4.573436
Sr    1.979778  -0.339254  4.546486
