36
Energy: -108382.260883 eV PBE+vdW (tier 2 basis)
C    -0.554360  -0.269784  1.735215
C    -1.068270  -0.398456  3.145352
O    -0.463473  0.275613  4.071863
H    -0.402010  -1.247552  1.259388
H    0.391288  0.279052  1.737593
H    -1.274908  0.281855  1.115084
N    -2.076447  -1.169263  3.565420
C    -2.600912  -2.287772  2.772565
C    -1.481397  -3.361771  2.749520
O    -0.678547  -3.393782  3.730462
H    -1.788009  2.015318  3.897539
H    -3.361426  -2.756189  3.425249
C    -3.354355  -1.968656  1.464428
C    -4.640043  -1.125730  1.659321
C    -4.545721  0.398881  1.531966
N    -3.777130  1.011391  2.621831
C    -3.454566  2.305324  2.714112
N    -4.093064  3.221167  1.971646
N    -2.474240  2.685053  3.551312
H    -3.689105  -2.926584  1.037535
H    -2.700414  -1.510251  0.710827
H    -5.117169  -1.383111  2.618174
H    -5.359263  -1.430595  0.887616
H    -5.575473  0.789270  1.540326
H    -4.094116  0.675290  0.564850
H    -3.314062  0.363246  3.268727
H    -3.793167  4.188285  1.957601
H    -4.966042  3.004716  1.507182
H    -2.324660  3.662789  3.767666
N    -1.418087  -4.237944  1.755655
C    -0.479931  -5.358797  1.681067
H    -2.092516  -4.144616  1.002022
H    0.066110  -5.319498  0.731626
H    -1.025758  -6.308229  1.742315
H    0.223454  -5.288044  2.513468
Sr    -0.548213  -1.701678  5.423644
