36
Energy: -108381.071704 eV PBE+vdW (tier 2 basis)
C    -1.486421  -2.574439  0.739013
C    -1.044129  -1.794069  1.929683
O    0.173973  -1.853748  2.320567
H    -0.888158  -2.279984  -0.133694
H    -2.547576  -2.436366  0.518094
H    -1.293513  -3.641129  0.917012
N    -1.924292  -1.039745  2.586250
C    -1.485414  -0.204877  3.704592
C    -0.895071  -1.044164  4.860338
O    0.331899  -0.819387  5.158271
H    -2.877513  -0.895828  2.172306
H    -0.593677  0.331825  3.341731
C    -2.437313  0.946124  4.114955
C    -3.735234  0.772043  4.927135
C    -5.055607  0.506118  4.175118
N    -5.341511  -0.872933  3.825455
C    -5.049350  -1.565965  2.680874
N    -4.643609  -0.762408  1.576850
N    -5.044656  -2.852641  2.710912
H    -2.652423  1.501815  3.187729
H    -1.787479  1.616217  4.696716
H    -3.613448  0.042707  5.739528
H    -3.877390  1.735282  5.439346
H    -5.106713  1.147718  3.282969
H    -5.878665  0.848043  4.816808
H    -5.726444  -1.470586  4.549449
H    -4.789799  -1.255729  0.697081
H    -5.109626  0.144810  1.519608
H    -4.961687  -3.281126  1.786815
N    -1.549573  -1.979475  5.530243
C    -2.873378  -2.575314  5.338269
H    -0.997207  -2.377156  6.291578
H    -2.770799  -3.663001  5.426010
H    -3.283668  -2.355929  4.351345
H    -3.563003  -2.231241  6.117885
Sr    1.959019  -1.403481  3.650586
