36
Energy: -108382.01596 eV PBE+vdW (tier 2 basis)
C    -0.173857  -0.411131  -0.208587
C    -0.125870  -0.132846  1.260651
O    1.004614  0.008600  1.854379
H    0.362579  0.377406  -0.752600
H    -1.196272  -0.477679  -0.593409
H    0.341746  -1.359751  -0.411986
N    -1.261968  -0.042829  1.924342
C    -1.437084  0.183862  3.356403
C    -2.931648  -0.189252  3.582769
O    -3.690046  -0.062300  2.618053
H    -2.181416  -0.120358  1.456657
H    -0.744603  -0.471425  3.904034
C    -1.160728  1.666575  3.714807
C    -0.789471  1.901704  5.180627
C    -0.142633  3.270786  5.457070
N    0.928803  3.647594  4.514914
C    1.986460  2.895476  4.184737
N    2.717051  3.251206  3.005380
N    2.405818  1.781631  4.734583
H    -2.029527  2.274271  3.423186
H    -0.330330  1.993634  3.073343
H    -0.128520  1.092418  5.525830
H    -1.676580  1.850199  5.825910
H    0.238797  3.308069  6.488414
H    -0.892778  4.065999  5.372878
H    0.857995  4.569892  4.096707
H    3.641050  3.622558  3.242218
H    2.241296  3.922718  2.400801
H    1.992809  1.586923  5.646612
N    -3.356362  -0.583087  4.799236
C    -2.603429  -0.951592  5.990397
H    -4.362241  -0.744880  4.826117
H    -2.956750  -1.921716  6.359867
H    -2.726918  -0.211507  6.792726
H    -1.537889  -1.052746  5.763383
Sr    3.020354  0.534936  2.708097
