36
Energy: -108381.997186 eV PBE+vdW (tier 2 basis)
C    -0.322306  -0.845550  -0.800646
C    -0.033815  -0.427860  0.601714
O    1.178831  -0.363926  1.015204
H    -0.053546  -1.903709  -0.928843
H    0.321194  -0.271577  -1.479504
H    -1.368203  -0.707588  -1.089109
N    -0.986734  -0.107290  1.459911
C    -2.444202  -0.150168  1.419158
C    -2.827626  0.589966  2.729826
O    -1.984093  0.614623  3.650376
H    -0.703283  0.205150  2.402081
H    -2.805663  0.389576  0.533907
C    -3.045377  -1.582183  1.423892
C    -3.104067  -2.345565  2.761871
C    -1.875858  -3.124683  3.240501
N    -0.737212  -2.290793  3.647162
C    0.423090  -2.796510  4.126629
N    0.478748  -4.119562  4.387030
N    1.489091  -1.990258  4.276394
H    -2.526295  -2.182042  0.661677
H    -4.077486  -1.480992  1.060911
H    -3.889346  -3.106594  2.651558
H    -3.460187  -1.690606  3.571321
H    -2.215479  -3.740510  4.091391
H    -1.536037  -3.813572  2.451146
H    -0.932088  -1.313260  3.870338
H    1.355971  -4.556380  4.639688
H    -0.358206  -4.678480  4.503081
H    2.119329  -2.402900  4.972163
N    -4.049182  1.115367  2.855167
C    -5.137409  1.164632  1.881128
H    -4.228970  1.519877  3.772989
H    -4.749721  1.171672  0.857465
H    -5.699439  2.092377  2.029322
H    -5.824388  0.316540  2.003133
Sr    2.591597  -0.469624  2.782172
