36
Energy: -108381.859611 eV PBE+vdW (tier 2 basis)
C    -0.765277  2.123358  -0.276597
C    -1.001841  2.081226  1.210994
O    -0.957499  3.253385  1.813592
H    -1.471603  2.832299  -0.728217
H    -0.895917  1.149457  -0.754205
H    0.243840  2.495979  -0.505300
N    -1.221249  0.934809  1.788719
C    -1.666923  0.849264  3.174318
C    -0.849282  1.544960  4.266915
O    0.340860  1.964332  4.093819
H    -1.138816  -0.669597  0.849247
H    -2.676690  1.297399  3.237968
C    -1.783973  -0.660167  3.512384
C    -2.895362  -1.317477  2.683472
C    -2.691846  -2.804876  2.404553
N    -1.388562  -3.186511  1.811350
C    -0.842206  -2.759278  0.655830
N    -0.105538  -3.633138  -0.057166
N    -0.988160  -1.505058  0.222489
H    -1.961398  -0.826962  4.582123
H    -0.805550  -1.111262  3.289800
H    -3.022895  -0.779878  1.735373
H    -3.860108  -1.224819  3.203696
H    -3.502788  -3.169617  1.756458
H    -2.744402  -3.375767  3.340131
H    -1.025994  -4.075478  2.140392
H    0.539427  -3.317813  -0.771365
H    -0.227061  -4.633396  0.046833
H    -0.706948  -1.306731  -0.730791
N    -1.403152  1.708683  5.473794
C    -2.740405  1.353842  5.947331
H    -0.762816  2.080942  6.173547
H    -3.038198  2.075416  6.715059
H    -2.755656  0.348923  6.389232
H    -3.468516  1.401077  5.132097
Sr    0.786667  3.920994  2.971900
