36
Energy: -108382.355802 eV PBE+vdW (tier 2 basis)
C    -0.778369  -1.018821  -0.159801
C    -0.696575  -0.594253  1.278123
O    0.506119  -0.372154  1.746746
H    -1.808319  -1.030248  -0.529374
H    -0.341164  -2.019553  -0.282269
H    -0.188063  -0.334336  -0.782124
N    -1.798140  -0.461913  1.975418
C    -1.655290  0.056383  3.339923
C    -0.994228  -0.962835  4.280896
O    0.180826  -0.727063  4.722087
H    -3.950241  -1.888982  -0.040404
H    -0.936704  0.897412  3.333073
C    -2.975511  0.632298  3.894678
C    -3.556923  1.761196  3.014012
C    -4.738627  1.354569  2.129232
N    -4.379791  0.244453  1.244344
C    -5.219146  -0.337824  0.397353
N    -6.444977  0.160833  0.169685
N    -4.850290  -1.472058  -0.235333
H    -2.764704  1.025647  4.898667
H    -3.726023  -0.157065  4.032715
H    -2.767656  2.201519  2.386080
H    -3.917342  2.574159  3.656986
H    -5.044760  2.231597  1.535953
H    -5.593306  1.061520  2.761889
H    -3.399998  -0.140211  1.366665
H    -7.117237  -0.328806  -0.406964
H    -6.725529  1.055500  0.548201
H    -5.355318  -1.813152  -1.043080
N    -1.590689  -2.096420  4.634939
C    -2.879000  -2.639457  4.209346
H    -1.050127  -2.661573  5.288930
H    -2.781306  -3.726719  4.118387
H    -3.150423  -2.231823  3.232302
H    -3.663411  -2.420168  4.945091
Sr    1.968344  -0.163536  3.378835
