36
Energy: -108381.927091 eV PBE+vdW (tier 2 basis)
C    -0.241228  0.313840  -0.532308
C    -0.233907  0.300355  0.964956
O    0.875864  0.388249  1.603019
H    0.267037  1.214668  -0.900610
H    -1.251149  0.276651  -0.952169
H    0.323795  -0.554821  -0.897716
N    -1.386043  0.192574  1.594717
C    -1.648005  0.100675  3.026907
C    -3.206415  -0.025687  3.062847
O    -3.832888  0.208603  2.026153
H    -2.294100  0.201117  1.086442
H    -1.194029  -0.826764  3.411002
C    -1.114207  1.319496  3.838413
C    -0.049360  0.936197  4.875050
C    0.711272  2.096419  5.516337
N    1.722695  2.709951  4.599051
C    1.357003  3.787515  3.706503
N    0.451500  4.687295  4.113871
N    1.968548  3.737793  2.555423
H    -1.950027  1.822506  4.345203
H    -0.725828  2.051210  3.116938
H    0.675104  0.231147  4.430111
H    -0.520171  0.372353  5.692814
H    1.280627  1.722363  6.375836
H    0.009687  2.843664  5.918633
H    2.519647  3.035612  5.153944
H    0.160165  4.748902  5.082787
H    0.157260  5.444261  3.504672
H    1.811761  4.549587  1.954209
N    -3.805435  -0.375433  4.215885
C    -3.204618  -0.759553  5.485162
H    -4.820504  -0.405375  4.147772
H    -3.906701  -1.405818  6.021359
H    -2.989978  0.109528  6.124528
H    -2.285901  -1.338905  5.331390
Sr    2.713219  1.393862  2.424137
