36
Energy: -108381.36151 eV PBE+vdW (tier 2 basis)
C    -0.890169  -0.851317  -0.076609
C    -0.864544  -0.035249  1.175528
O    -0.101611  -0.382796  2.140500
H    -1.600746  -0.472129  -0.817128
H    -1.140737  -1.890646  0.174754
H    0.115213  -0.864178  -0.519367
N    -1.646754  1.037948  1.240661
C    -1.852494  1.905046  2.417526
C    -0.541963  2.589911  2.834277
O    0.195598  2.086094  3.746297
H    -2.363349  1.187671  0.476727
H    -2.510818  2.701699  2.054974
C    -2.571080  1.168721  3.576470
C    -4.105682  1.328090  3.626481
C    -4.938054  1.082226  2.342688
N    -5.140015  2.278997  1.521667
C    -4.387825  2.693250  0.443180
N    -3.857421  1.641750  -0.363120
N    -4.093431  3.894586  0.091762
H    -2.172681  1.534346  4.534530
H    -2.325613  0.096453  3.512760
H    -4.348106  2.334699  4.000830
H    -4.468881  0.637303  4.400947
H    -5.928708  0.718150  2.645810
H    -4.502154  0.285909  1.725516
H    -5.607326  3.042608  2.002313
H    -3.589563  2.056497  -1.257922
H    -4.535669  0.896067  -0.529235
H    -4.453600  4.596778  0.744424
N    -0.175564  3.721872  2.253667
C    -0.798516  4.493921  1.174905
H    0.700002  4.102116  2.617577
H    -1.761674  4.077214  0.861815
H    -0.125369  4.509449  0.308602
H    -0.952665  5.523973  1.517523
Sr    0.893171  -0.047525  4.129096
