36
Energy: -108382.537059 eV PBE+vdW (tier 2 basis)
C    0.535862  0.713239  -0.202288
C    0.390239  0.560331  1.278048
O    1.376263  0.653292  2.051364
H    -0.417165  0.683647  -0.740753
H    1.183677  -0.089686  -0.580542
H    1.046316  1.660440  -0.418792
N    -0.847118  0.317162  1.778364
C    -1.058248  0.166368  3.214473
C    -0.523784  -1.191848  3.737627
O    0.562755  -1.170626  4.381507
H    -1.630049  0.246729  1.135102
H    -0.353566  0.866899  3.669614
C    -2.444462  0.569700  3.733594
C    -2.755776  2.083979  3.724063
C    -1.628684  3.062996  4.115642
N    -0.845423  2.630633  5.284013
C    0.495892  2.442998  5.329423
N    1.306227  3.017619  4.320532
N    1.176245  1.682408  6.149727
H    -2.501845  0.191364  4.765389
H    -3.247255  0.049593  3.194159
H    -3.617759  2.239529  4.387757
H    -3.098275  2.399439  2.728257
H    -2.066134  4.054452  4.296737
H    -0.945833  3.171750  3.263580
H    -1.368560  2.204030  6.044008
H    2.073273  3.536303  4.751758
H    0.833232  3.621239  3.652216
H    0.626175  1.289917  6.916301
N    -1.154322  -2.341740  3.517670
C    -2.411617  -2.601831  2.816564
H    -0.687424  -3.149603  3.929762
H    -3.273217  -2.503678  3.489094
H    -2.384251  -3.627310  2.435437
H    -2.533014  -1.933421  1.959037
Sr    2.340519  0.431389  4.257453
