36
Energy: -108381.588556 eV PBE+vdW (tier 2 basis)
C    1.468710  1.215284  0.518894
C    0.689225  1.145715  1.791117
O    1.022022  1.880585  2.785951
H    1.320221  2.206962  0.066954
H    2.539470  1.127658  0.741506
H    1.175277  0.439786  -0.195715
N    -0.349012  0.315542  1.855784
C    -1.255290  0.207692  3.013759
C    -0.548372  -0.567488  4.148337
O    0.157691  0.065048  4.997878
H    -0.589608  -0.208093  0.963417
H    -1.410123  1.223201  3.413716
C    -2.611445  -0.395445  2.617410
C    -3.516182  0.511845  1.744472
C    -4.288416  -0.246943  0.641464
N    -3.491990  -0.492719  -0.578510
C    -2.281811  -1.172038  -0.454496
N    -2.380446  -2.453145  0.045228
N    -1.099111  -0.677684  -0.699415
H    -3.147860  -0.640810  3.544503
H    -2.441397  -1.349878  2.094449
H    -2.922948  1.305464  1.262815
H    -4.237642  1.027192  2.393411
H    -5.159283  0.339789  0.327340
H    -4.684349  -1.197176  1.025496
H    -3.368292  0.367135  -1.109782
H    -1.549424  -3.013703  -0.119381
H    -3.245440  -2.941250  -0.168302
H    -1.193082  0.279475  -1.053305
N    -0.687630  -1.880543  4.199310
C    -0.075672  -2.763862  5.191461
H    -1.275910  -2.310169  3.488464
H    -0.806053  -3.522185  5.492134
H    0.221273  -2.177571  6.064231
H    0.804335  -3.263620  4.766223
Sr    1.378745  2.007203  4.994784
