36
Energy: -108380.845293 eV PBE+vdW (tier 2 basis)
C    -0.122484  0.282777  0.255575
C    -0.180665  0.161020  1.738781
O    0.873195  -0.012513  2.433028
H    0.639068  1.012474  -0.047909
H    -1.092970  0.513694  -0.197819
H    0.218418  -0.691105  -0.131291
N    -1.370303  0.244215  2.375560
C    -2.370730  1.278310  2.065668
C    -1.646735  2.630245  2.193100
O    -0.676004  2.747181  3.028729
H    -1.338544  -0.032723  3.358441
H    -2.745921  1.117588  1.033276
C    -3.513835  1.120660  3.102022
C    -4.816496  1.913748  2.906632
C    -5.846737  1.278334  1.952517
N    -5.425915  1.229619  0.557340
C    -4.728229  0.191374  -0.032974
N    -5.247571  -1.059441  0.196308
N    -3.642507  0.480833  -0.698641
H    -3.096876  1.363024  4.094184
H    -3.752485  0.045689  3.115760
H    -4.611242  2.952770  2.605040
H    -5.297909  1.995500  3.892435
H    -6.785078  1.845818  2.020949
H    -6.074380  0.257006  2.283760
H    -5.189971  2.123127  0.141396
H    -4.789921  -1.842316  -0.255958
H    -6.257303  -1.147008  0.262229
H    -3.350409  -0.294940  -1.299697
N    -1.985199  3.668516  1.449585
C    -2.905796  3.739442  0.310414
H    -1.484468  4.528018  1.678745
H    -3.076089  2.741863  -0.116593
H    -2.445047  4.373582  -0.455116
H    -3.854209  4.200677  0.613472
Sr    1.251367  1.796291  3.838988
