36
Energy: -108382.974171 eV PBE+vdW (tier 2 basis)
C    -1.076007  -0.117748  -0.283293
C    -1.187634  0.235936  1.165108
O    -0.529006  1.191403  1.656317
H    -1.342060  0.763037  -0.883119
H    -1.711723  -0.958806  -0.578704
H    -0.030121  -0.357674  -0.516395
N    -2.022191  -0.492455  1.935797
C    -2.288598  -0.195792  3.346775
C    -1.181000  -0.821071  4.224325
O    -0.130809  -0.151531  4.428290
H    -2.529674  -1.256706  1.497510
H    -2.128814  0.883242  3.451490
C    -3.755361  -0.474799  3.700079
C    -4.191953  -0.112132  5.135188
C    -3.608467  1.172445  5.754404
N    -3.715907  2.366981  4.918042
C    -2.663310  3.077459  4.432496
N    -2.915029  3.932104  3.403401
N    -1.403424  2.928351  4.831795
H    -4.019916  -1.527905  3.507600
H    -4.347976  0.106579  2.978967
H    -3.938807  -0.923120  5.833829
H    -5.289547  -0.059138  5.140271
H    -2.546694  1.023244  5.985258
H    -4.103340  1.355949  6.718060
H    -4.650816  2.719486  4.734533
H    -2.326958  4.754130  3.328991
H    -3.852093  4.027629  3.028813
H    -1.389241  2.533605  5.776362
N    -1.362301  -2.045115  4.707091
C    -0.384659  -2.792082  5.498967
H    -2.240556  -2.509972  4.493450
H    -0.851836  -3.142732  6.426251
H    0.455221  -2.135079  5.735643
H    -0.023088  -3.657863  4.930463
Sr    0.517890  2.008216  3.592642
