36
Energy: -108381.562711 eV PBE+vdW (tier 2 basis)
C    2.117275  0.149834  0.265358
C    1.274239  0.602059  1.413074
O    1.806195  1.261127  2.373931
H    2.527693  1.027043  -0.253821
H    1.557339  -0.460506  -0.450535
H    2.972765  -0.418692  0.653864
N    -0.017417  0.300606  1.385894
C    -1.007736  0.467444  2.467500
C    -1.313622  1.952706  2.731126
O    -0.571174  2.667710  3.472527
H    -0.333651  -0.423631  0.669340
H    -1.918436  0.035590  2.031974
C    -0.692470  -0.323362  3.771518
C    -1.830567  -1.261335  4.238206
C    -1.838352  -2.690955  3.651890
N    -1.983764  -2.776520  2.198434
C    -0.963191  -2.537057  1.307384
N    0.306347  -2.884678  1.730679
N    -1.070195  -1.936130  0.149599
H    -0.490721  0.394081  4.582286
H    0.226981  -0.902605  3.613250
H    -2.806115  -0.781265  4.054557
H    -1.765735  -1.374339  5.330289
H    -2.670164  -3.247717  4.102454
H    -0.927457  -3.220878  3.958823
H    -2.908405  -2.557690  1.840673
H    0.954235  -2.958305  0.951300
H    0.370096  -3.680734  2.358099
H    -2.043615  -1.723444  -0.084869
N    -2.399591  2.453591  2.161048
C    -2.854413  3.838569  2.285330
H    -2.943944  1.836278  1.564698
H    -3.948051  3.855242  2.251493
H    -2.461614  4.447526  1.460537
H    -2.512311  4.249421  3.238876
Sr    1.647690  2.723275  4.047454
