36
Energy: -108381.426612 eV PBE+vdW (tier 2 basis)
C    0.191135  -0.859951  0.971738
C    -0.284041  -0.405736  2.318354
O    0.561372  -0.229878  3.251937
H    -0.127357  -1.893775  0.772675
H    1.283913  -0.817827  0.950426
H    -0.208026  -0.227211  0.170779
N    -1.592725  -0.151078  2.565216
C    -2.711745  -1.050234  2.211844
C    -2.486469  -2.454815  2.875592
O    -1.338681  -2.647665  3.494865
H    -1.707166  0.272914  3.485551
H    -3.571082  -0.612240  2.739022
C    -3.065769  -1.113660  0.714292
C    -3.833841  0.101098  0.167070
C    -5.313370  0.219845  0.578353
N    -6.137095  -0.918486  0.143818
C    -6.159991  -2.113200  0.760869
N    -6.418166  -3.227573  0.060802
N    -5.924732  -2.237458  2.080111
H    -3.633630  -2.039293  0.560234
H    -2.158446  -1.251123  0.117076
H    -3.784228  0.072621  -0.931324
H    -3.333538  1.036408  0.462957
H    -5.750119  1.117597  0.125512
H    -5.427572  0.357795  1.661897
H    -6.547478  -0.858950  -0.783900
H    -6.741826  -4.054776  0.549244
H    -6.435673  -3.237141  -0.952094
H    -6.009363  -1.380240  2.616744
N    -3.457482  -3.296652  2.808217
C    -3.291613  -4.599820  3.447413
H    -5.087850  -2.829448  2.377836
H    -4.181851  -5.209685  3.263047
H    -3.166080  -4.503906  4.537212
H    -2.416688  -5.137944  3.053816
Sr    0.510080  -2.146669  4.589680
