36
Energy: -108381.970286 eV PBE+vdW (tier 2 basis)
C    -0.099889  -0.569819  0.011391
C    -0.181193  0.002733  1.390042
O    0.894505  0.174724  2.061443
H    0.387752  -1.552912  0.046863
H    0.549041  0.080615  -0.591401
H    -1.067146  -0.664479  -0.488931
N    -1.333039  0.351609  1.941337
C    -2.712828  0.186632  1.490139
C    -3.488379  1.179651  2.401911
O    -2.940258  1.543532  3.456007
H    -1.335550  0.868980  2.840340
H    -2.805873  0.467121  0.433310
C    -3.213120  -1.266537  1.699091
C    -3.293762  -1.697591  3.181853
C    -2.560618  -2.993932  3.550778
N    -1.124700  -3.043801  3.199449
C    -0.089353  -2.501430  3.862202
N    -0.327872  -1.451436  4.795174
N    1.187215  -2.757452  3.690729
H    -2.544886  -1.931089  1.132081
H    -4.196902  -1.362970  1.223159
H    -4.342766  -1.850335  3.469979
H    -2.961607  -0.872184  3.830261
H    -3.014521  -3.845930  3.030092
H    -2.674429  -3.195070  4.625594
H    -0.869915  -3.707235  2.473705
H    -0.154655  -1.765870  5.752917
H    -1.260770  -1.039785  4.744400
H    1.381886  -3.594604  3.138716
N    -4.722448  1.563140  2.048061
C    -5.484435  1.237011  0.846242
H    -5.169664  2.172407  2.731025
H    -6.088892  2.105673  0.564977
H    -6.157584  0.384639  1.011618
H    -4.819806  1.012684  0.005492
Sr    2.087141  -0.485036  3.868962
