36
Energy: -108383.016183 eV PBE+vdW (tier 2 basis)
C    0.588738  1.640886  1.211286
C    0.243104  0.710058  2.334742
O    1.128222  -0.007451  2.866393
H    -0.262454  2.217572  0.834740
H    1.015257  1.054081  0.386672
H    1.370380  2.334478  1.547827
N    -1.049000  0.683642  2.732378
C    -1.678704  -0.192335  3.741674
C    -1.194324  0.195133  5.154753
O    -0.039871  -0.111416  5.554381
H    -1.676451  1.304243  2.230716
H    -2.748227  0.038218  3.680204
C    -1.491800  -1.686095  3.403209
C    -1.918668  -2.660820  4.504871
C    -1.517023  -4.124622  4.221069
N    -0.145444  -4.290943  3.716019
C    0.957687  -3.761340  4.280762
N    2.092713  -3.580983  3.456779
N    1.077858  -3.239124  5.475397
H    -0.441292  -1.854504  3.140410
H    -2.057496  -1.879014  2.480020
H    -3.010635  -2.655110  4.632764
H    -1.501050  -2.340839  5.469239
H    -2.166717  -4.549608  3.446726
H    -1.671693  -4.732887  5.124631
H    -0.031841  -4.846361  2.874755
H    2.924280  -4.037483  3.833613
H    1.972651  -3.812886  2.471995
H    0.323739  -3.493927  6.113712
N    -2.024080  0.865540  5.953374
C    -3.389031  1.333774  5.690739
H    -1.627746  1.090666  6.865241
H    -3.417195  2.045535  4.856680
H    -3.742069  1.853247  6.585818
H    -4.071754  0.497649  5.496491
Sr    2.012935  -1.029977  4.814920
