36
Energy: -108381.787929 eV PBE+vdW (tier 2 basis)
C    1.679628  1.290868  1.967197
C    0.735474  0.374149  2.690891
O    1.285258  -0.630353  3.336317
H    2.269194  0.719493  1.237215
H    1.151659  2.103752  1.461339
H    2.394520  1.723147  2.680578
N    -0.544090  0.626150  2.631100
C    -1.518706  -0.276487  3.278920
C    -1.256650  -0.442700  4.784657
O    -0.726840  -1.487480  5.284904
H    -1.456632  1.314956  1.147276
H    -2.474447  0.267172  3.228220
C    -1.713794  -1.617461  2.528575
C    -3.171314  -2.020672  2.238438
C    -3.991367  -1.088785  1.323375
N    -3.364845  -0.824863  0.018601
C    -2.418873  0.103671  -0.190982
N    -1.517853  -0.053518  -1.171218
N    -2.328950  1.217065  0.567960
H    -1.261033  -2.438604  3.102961
H    -1.145192  -1.559581  1.590172
H    -3.736829  -2.118443  3.178573
H    -3.163487  -3.026822  1.793664
H    -4.969790  -1.541522  1.123845
H    -4.208868  -0.132475  1.814362
H    -3.534086  -1.504078  -0.718614
H    -1.039870  0.764533  -1.533197
H    -1.433546  -0.918778  -1.691885
H    -3.165093  1.448618  1.094677
N    -1.593780  0.561249  5.589545
C    -2.186959  1.848584  5.222676
H    -1.427332  0.390954  6.580043
H    -3.280254  1.774663  5.145594
H    -1.947273  2.571906  6.008048
H    -1.758332  2.208740  4.282008
Sr    1.398529  -2.230930  4.808811
