36
Energy: -108382.324006 eV PBE+vdW (tier 2 basis)
C    -0.097099  0.720712  -0.043528
C    -0.204577  0.477758  1.432543
O    0.828791  0.136699  2.085610
H    0.212838  -0.216715  -0.526304
H    0.693118  1.456168  -0.239719
H    -1.029578  1.063724  -0.503522
N    -1.409209  0.629305  1.997284
C    -1.900774  0.313062  3.360183
C    -1.384998  1.239562  4.477523
O    -0.092624  1.402479  4.609101
H    -2.135945  0.927853  1.354267
H    -2.974211  0.519461  3.287555
C    -1.725096  -1.183287  3.704922
C    -2.345874  -1.630276  5.041191
C    -3.872749  -1.539580  5.176136
N    -4.330406  -0.161538  5.364658
C    -5.598449  0.199411  5.531247
N    -6.586936  -0.705520  5.620662
N    -5.899116  1.512691  5.580317
H    -0.654880  -1.435927  3.722175
H    -2.158770  -1.769759  2.880892
H    -1.879717  -1.099234  5.884923
H    -2.086306  -2.689056  5.176762
H    -4.165598  -2.149355  6.046668
H    -4.355740  -1.979137  4.286214
H    -3.601245  0.616447  5.364680
H    -7.555731  -0.423924  5.701231
H    -6.388440  -1.694844  5.682736
H    -6.802772  1.837715  5.898564
N    -2.295367  1.709499  5.266722
C    -1.872394  2.502614  6.417095
H    -5.157107  2.197207  5.499018
H    -2.686635  2.542085  7.149934
H    -1.645401  3.535389  6.113220
H    -0.975820  2.095811  6.907435
Sr    1.924692  0.860944  3.954724
