36
Energy: -108381.379709 eV PBE+vdW (tier 2 basis)
C    0.668490  -1.760432  0.723773
C    0.441145  -0.667416  1.714339
O    1.344699  0.213174  1.916270
H    1.740637  -1.918270  0.577495
H    0.218471  -1.471278  -0.240393
H    0.189705  -2.696401  1.032034
N    -0.723751  -0.623884  2.363284
C    -1.185668  0.491030  3.203111
C    -0.537851  0.441170  4.608349
O    0.661557  0.844781  4.748279
H    -1.473898  -1.289805  2.059328
H    -0.785094  1.420423  2.765731
C    -2.722120  0.598021  3.164192
C    -3.559495  -0.672725  3.471306
C    -4.143892  -1.385953  2.240765
N    -3.109999  -1.944706  1.345719
C    -2.857939  -1.472365  0.024104
N    -3.195184  -0.141576  -0.204982
N    -2.209341  -2.124659  -0.866506
H    -2.970974  0.959437  2.157217
H    -3.005602  1.412049  3.845767
H    -4.406811  -0.393085  4.114007
H    -2.983549  -1.425024  4.037201
H    -4.810291  -0.702638  1.697928
H    -4.784690  -2.208836  2.582800
H    -3.115741  -2.962125  1.348338
H    -3.030951  0.091567  -1.182986
H    -4.130783  0.139924  0.076545
H    -1.957497  -3.072150  -0.572949
N    -1.243380  0.014094  5.640296
C    -0.772036  -0.061363  7.023003
H    -2.195029  -0.293645  5.456661
H    -1.548760  0.331925  7.687643
H    0.137340  0.533977  7.129026
H    -0.562503  -1.103876  7.294881
Sr    2.483519  1.368670  3.461162
