36
Energy: -108382.255361 eV PBE+vdW (tier 2 basis)
C    0.407485  -1.150965  0.681972
C    0.066132  -0.502232  1.999517
O    1.024686  0.045695  2.661899
H    -0.178202  -0.731026  -0.145123
H    0.203216  -2.231350  0.710307
H    1.470096  -1.003560  0.471528
N    -1.136509  -0.501962  2.603787
C    -2.175628  -1.493050  2.286495
C    -1.684111  -2.867123  2.808917
O    -0.863563  -2.885359  3.773385
H    -0.960770  3.117385  2.289416
H    -2.996004  -1.260796  2.989817
C    -2.813218  -1.482463  0.875330
C    -3.043395  -0.072655  0.312074
C    -3.887415  0.844931  1.213682
N    -3.746917  2.261620  0.873795
C    -2.714875  3.030720  1.249393
N    -2.688835  4.324538  0.893523
N    -1.719566  2.519922  1.986866
H    -3.780606  -2.007480  0.931702
H    -2.196752  -2.035594  0.153726
H    -3.524705  -0.156930  -0.671811
H    -2.071926  0.407210  0.129268
H    -3.621535  0.730119  2.274109
H    -4.954268  0.601871  1.140030
H    -4.426663  2.666989  0.239627
H    -1.897169  4.917680  1.107480
H    -3.479242  4.766537  0.440555
H    -1.627981  1.515231  2.185973
N    -2.168517  -3.981393  2.273629
C    -1.865468  -5.336618  2.734400
H    -2.812974  -3.888296  1.494188
H    -2.784573  -5.828970  3.074083
H    -1.154878  -5.278465  3.561612
H    -1.428612  -5.918832  1.914598
Sr    0.250008  -0.961428  4.632300
