36
Energy: -108380.210324 eV PBE+vdW (tier 2 basis)
C    -0.357681  -0.043755  0.549393
C    -0.589747  -0.380290  1.985048
O    0.281544  -1.016834  2.656823
H    0.247807  0.872949  0.464941
H    -1.287531  0.100969  -0.009658
H    0.225975  -0.852856  0.094391
N    -1.727187  0.013878  2.602271
C    -2.305863  1.348999  2.450276
C    -1.243934  2.371384  2.930259
O    -0.235399  1.988796  3.613039
H    -1.870482  -0.401653  3.524286
H    -2.519088  1.534808  1.387451
C    -3.623273  1.407923  3.264569
C    -4.478282  2.672254  3.141509
C    -4.969219  2.988568  1.711567
N    -6.046324  3.964018  1.657965
C    -7.260887  3.708071  2.335172
N    -7.702696  2.393431  2.182245
N    -7.925860  4.533694  3.051922
H    -3.381689  1.229373  4.325725
H    -4.218832  0.546199  2.925478
H    -3.980643  3.547293  3.589229
H    -5.371257  2.500460  3.759621
H    -5.303075  2.053879  1.236374
H    -4.157517  3.374610  1.066910
H    -5.749472  4.928651  1.773851
H    -8.614089  2.274811  2.619792
H    -7.708564  2.057413  1.221181
H    -7.441267  5.423357  3.197369
N    -1.419925  3.641247  2.617289
C    -0.544254  4.738633  3.038797
H    -2.237905  3.876362  2.059242
H    -1.022306  5.684146  2.770481
H    0.425919  4.674062  2.530774
H    -0.392455  4.707028  4.123265
Sr    1.242711  0.333373  4.280754
