36
Energy: -108381.711379 eV PBE+vdW (tier 2 basis)
C    0.003424  1.797476  0.410177
C    -0.341850  1.328471  1.789059
O    0.308271  1.761166  2.793115
H    -0.344115  2.829163  0.251564
H    -0.406115  1.160605  -0.379073
H    1.097858  1.817312  0.330074
N    -1.341044  0.437724  1.972221
C    -2.658157  0.624190  1.335668
C    -3.486810  1.568069  2.256023
O    -2.792054  2.468312  2.928311
H    -1.388550  0.095609  2.932825
H    -2.478909  1.189181  0.409063
C    -3.351219  -0.681330  0.953723
C    -3.712959  -1.621909  2.113997
C    -4.815999  -2.633141  1.727714
N    -6.138018  -2.408238  2.338867
C    -7.066455  -1.519627  1.936877
N    -8.364303  -1.821803  2.125305
N    -6.713263  -0.368461  1.358678
H    -2.707196  -1.210439  0.236533
H    -4.254398  -0.406046  0.393682
H    -4.056615  -1.053059  2.989113
H    -2.822048  -2.181544  2.430587
H    -4.531133  -3.644017  2.037152
H    -4.941803  -2.661605  0.635706
H    -6.466454  -3.130992  2.970041
H    -9.079819  -1.105963  2.090249
H    -8.672573  -2.779235  2.246350
H    -7.443568  0.164033  0.897475
N    -4.765934  1.428093  2.286433
C    -5.528409  2.373247  3.099283
H    -5.856979  0.189128  1.650138
H    -5.385581  3.409944  2.760662
H    -5.240663  2.325617  4.161082
H    -6.595688  2.135232  3.028693
Sr    -1.029538  3.260194  3.993301
