36
Energy: -108381.998256 eV PBE+vdW (tier 2 basis)
C    0.952813  0.998771  0.018948
C    0.438946  1.043210  1.424248
O    1.174489  0.623204  2.393498
H    1.877595  1.587051  -0.052622
H    0.231901  1.387347  -0.707133
H    1.196657  -0.038385  -0.248512
N    -0.771041  1.515462  1.635386
C    -1.491216  1.647886  2.898668
C    -2.965225  1.836877  2.427668
O    -3.156283  2.252491  1.283530
H    -1.372842  1.847328  0.858403
H    -1.364756  0.724438  3.483395
C    -0.976897  2.883266  3.678054
C    -1.430655  3.027284  5.137242
C    -1.121211  1.852078  6.074183
N    0.272846  1.422404  5.949040
C    0.829243  0.323157  6.514366
N    0.131107  -0.315768  7.474418
N    2.010487  -0.101141  6.048749
H    -1.279865  3.785248  3.127796
H    0.122440  2.866264  3.626104
H    -2.512190  3.212684  5.189749
H    -0.963354  3.937913  5.540824
H    -1.760401  0.982156  5.853627
H    -1.349852  2.169151  7.105031
H    0.929246  2.085078  5.553892
H    0.461712  -1.196832  7.848461
H    -0.605536  0.148771  7.992992
H    2.464150  -0.706596  6.738602
N    -3.934515  1.576362  3.322853
C    -5.356816  1.749225  3.025041
H    -3.683436  1.134837  4.199771
H    -5.861624  2.202140  3.885193
H    -5.828753  0.786164  2.791760
H    -5.450248  2.408988  2.158270
Sr    2.759858  -0.193946  3.755933
