36
Energy: -108382.515092 eV PBE+vdW (tier 2 basis)
C    -0.377454  -0.613529  0.977079
C    -0.380567  -0.237740  2.436443
O    0.549864  -0.722422  3.188055
H    0.347861  0.006318  0.430382
H    -1.355556  -0.503760  0.495535
H    -0.038168  -1.651002  0.884633
N    -1.242765  0.593356  3.021638
C    -2.036452  1.563874  2.307216
C    -1.486422  2.958547  2.723598
O    -0.593695  3.052121  3.608698
H    -5.132361  -2.281414  3.760558
H    -1.914769  1.490887  1.209510
C    -3.539564  1.417915  2.640750
C    -4.138031  0.128149  2.065234
C    -5.623832  -0.022412  2.422163
N    -6.288212  -1.144377  1.745414
C    -6.530158  -2.359579  2.252994
N    -7.384338  -3.182997  1.627581
N    -5.934575  -2.766581  3.382590
H    -4.099829  2.283313  2.254235
H    -3.649878  1.437196  3.736487
H    -3.564875  -0.740082  2.426151
H    -4.036751  0.132627  0.968304
H    -6.177495  0.882463  2.135397
H    -5.772518  -0.135065  3.505459
H    -6.612343  -0.980043  0.797485
H    -7.422249  -4.170808  1.849160
H    -8.035868  -2.840988  0.931447
H    -6.268125  -3.580483  3.884662
N    -1.968411  4.042105  2.117667
C    -1.516478  5.402934  2.412385
H    -2.643143  3.918083  1.370503
H    -0.495354  5.562887  2.043710
H    -1.533589  5.578270  3.493274
H    -2.190817  6.109044  1.920622
Sr    0.501351  1.144373  4.608540
