36
Energy: -108381.87175 eV PBE+vdW (tier 2 basis)
C    1.149842  -1.086839  0.944871
C    0.806721  -0.448447  2.255039
O    1.708989  0.194420  2.911736
H    1.528126  -0.325384  0.249561
H    0.294634  -1.590521  0.483624
H    1.949806  -1.823754  1.099257
N    -0.423468  -0.567784  2.706575
C    -0.991530  -0.041349  3.946925
C    -2.385852  -0.736653  3.994689
O    -2.865946  -1.098249  2.915924
H    -1.168114  -1.033089  2.154347
H    -0.344902  -0.329581  4.788579
C    -1.116600  1.498833  3.866080
C    -1.300340  2.227247  5.204076
C    -0.690918  3.634613  5.172708
N    0.766916  3.530950  5.046889
C    1.603005  4.286750  4.291183
N    1.152256  5.465770  3.821722
N    2.817269  3.792805  4.016936
H    -1.931865  1.750225  3.173108
H    -0.189031  1.859303  3.398922
H    -0.823450  1.668121  6.025916
H    -2.361228  2.308719  5.473286
H    -0.962638  4.193309  6.080419
H    -1.072244  4.191790  4.306023
H    1.230568  2.919973  5.710397
H    0.369188  5.944797  4.251131
H    1.690029  5.989420  3.142026
H    3.451692  4.549897  3.747076
N    -3.033313  -0.886239  5.165234
C    -2.575870  -0.676168  6.532198
H    -3.955892  -1.302780  5.049221
H    -2.913076  -1.513209  7.154092
H    -2.974705  0.253528  6.959958
H    -1.482363  -0.652767  6.579980
Sr    3.436319  1.509223  3.497910
