36
Energy: -108380.752962 eV PBE+vdW (tier 2 basis)
C    -0.565010  1.897479  -0.531887
C    -0.394269  1.668023  0.928470
O    0.407377  2.370333  1.631395
H    0.411458  2.172391  -0.949984
H    -1.228280  2.761826  -0.701953
H    -0.984246  1.018986  -1.050054
N    -1.119411  0.715881  1.555350
C    -2.536316  0.474964  1.281990
C    -3.287615  1.750235  1.710715
O    -2.723458  2.577536  2.514117
H    -0.820766  0.515027  2.510963
H    -2.627579  0.283651  0.191671
C    -2.953150  -0.805343  2.055643
C    -4.202171  -1.593759  1.638990
C    -4.220110  -2.202216  0.211013
N    -2.954797  -2.741350  -0.245160
C    -2.003967  -1.992876  -0.906773
N    -0.722987  -2.480718  -0.844133
N    -2.205631  -0.841316  -1.494834
H    -3.042324  -0.560715  3.126347
H    -2.086864  -1.476069  1.958902
H    -5.121645  -1.008219  1.783152
H    -4.275782  -2.416531  2.365302
H    -4.574186  -1.466497  -0.523276
H    -4.967635  -3.005134  0.189105
H    -2.749634  -3.710095  -0.029124
H    -0.117881  -2.213773  -1.612475
H    -0.550933  -3.400382  -0.456090
H    -3.198921  -0.711036  -1.700613
N    -4.501480  2.027256  1.261326
C    -5.285439  1.362558  0.220850
H    -4.915799  2.867060  1.666762
H    -4.653265  0.681020  -0.351539
H    -5.681002  2.126521  -0.458029
H    -6.124900  0.809909  0.658244
Sr    -0.773392  3.622391  3.173998
