36
Energy: -108381.733875 eV PBE+vdW (tier 2 basis)
C    -1.364329  0.407574  -1.507504
C    -0.414117  0.217824  -0.365603
O    0.841042  0.247079  -0.569685
H    -1.415354  1.467552  -1.798116
H    -2.376439  0.053504  -1.291443
H    -0.963216  -0.140036  -2.369506
N    -0.886209  0.008501  0.881884
C    -1.953306  0.850313  1.450162
C    -1.262916  2.127282  2.020678
O    -0.209401  2.547775  1.339612
H    -0.153479  -0.241398  1.547926
H    -2.567400  1.187107  0.600648
C    -2.844412  0.085402  2.433668
C    -4.227861  0.730885  2.581609
C    -5.072236  0.177021  3.729096
N    -4.435041  0.149356  5.065641
C    -4.058498  1.209670  5.806980
N    -4.169875  1.127254  7.145727
N    -3.569289  2.314199  5.239899
H    -2.339016  0.021246  3.408715
H    -2.955087  -0.944269  2.064728
H    -4.813769  0.565866  1.664236
H    -4.133946  1.819252  2.678939
H    -5.335865  -0.868856  3.528570
H    -6.013858  0.741954  3.792921
H    -4.586066  -0.704790  5.591854
H    -3.672443  1.765624  7.754703
H    -4.808917  0.474205  7.583186
H    -3.468638  3.138423  5.821311
N    -1.750080  2.685108  3.073025
C    -1.119705  3.920182  3.533873
H    -3.017192  2.307102  4.343435
H    -0.246684  3.700353  4.168589
H    -1.833198  4.491668  4.140173
H    -0.786016  4.561303  2.706463
Sr    1.670935  2.287533  0.219077
