36
Energy: -108380.834491 eV PBE+vdW (tier 2 basis)
C    0.509909  -0.634792  -1.241053
C    0.867799  -0.651346  0.206915
O    2.048190  -0.983456  0.554255
H    -0.440995  -0.144958  -1.452869
H    0.515736  -1.648375  -1.665678
H    1.316616  -0.087692  -1.751916
N    0.013247  -0.233434  1.179343
C    -1.322992  -0.778252  1.506319
C    -1.082822  -1.970602  2.464749
O    -0.037559  -2.705588  2.319686
H    0.531341  -0.011324  2.031401
H    -1.862924  0.002697  2.060483
C    -2.197707  -1.216110  0.315217
C    -2.913024  -0.049514  -0.403629
C    -4.334275  0.239093  0.116774
N    -4.390180  0.441478  1.560672
C    -4.636598  -0.584987  2.454482
N    -4.279043  -0.270996  3.786426
N    -4.961792  -1.808040  2.226755
H    -2.945305  -1.911902  0.718834
H    -1.600531  -1.812336  -0.385453
H    -2.997327  -0.281210  -1.475264
H    -2.306523  0.867095  -0.332986
H    -5.013670  -0.576665  -0.172210
H    -4.725169  1.138835  -0.373642
H    -4.536366  1.392030  1.882928
H    -4.878018  -0.757039  4.452891
H    -4.207905  0.719111  4.011504
H    -5.253946  -1.974195  1.262131
N    -1.990254  -2.184861  3.385685
C    -2.056989  -3.343900  4.269594
H    -2.762015  -1.493593  3.494327
H    -3.082091  -3.731816  4.241737
H    -1.814047  -3.050568  5.299028
H    -1.362066  -4.116090  3.931677
Sr    2.177052  -2.903251  1.851886
