36
Energy: -108382.078273 eV PBE+vdW (tier 2 basis)
C    0.432516  0.919391  0.932403
C    -0.023517  -0.424973  1.401795
O    0.801891  -1.407353  1.436651
H    1.287347  1.254308  1.534885
H    -0.358276  1.674343  0.979736
H    0.779799  0.834262  -0.106646
N    -1.276414  -0.574763  1.782787
C    -1.987835  -1.816201  2.072303
C    -3.445191  -1.472517  1.606065
O    -3.748207  -0.281772  1.498545
H    -1.975221  0.185536  1.655540
H    -1.560227  -2.626438  1.461758
C    -2.011979  -2.214242  3.562912
C    -0.695861  -2.634610  4.241348
C    0.185055  -1.484458  4.766186
N    1.125616  -1.896208  5.800264
C    2.439452  -2.179971  5.640742
N    3.175171  -2.263112  6.771790
N    2.969531  -2.374003  4.429220
H    -2.713695  -3.055344  3.649418
H    -2.469406  -1.391417  4.134258
H    -0.128230  -3.318527  3.578448
H    -0.959847  -3.257586  5.108187
H    -0.467833  -0.720827  5.211891
H    0.746584  -0.971793  3.974947
H    0.767775  -1.917259  6.748996
H    4.114689  -2.637952  6.756989
H    2.826161  -1.946529  7.668364
H    3.989202  -2.385195  4.531966
N    -4.271785  -2.506417  1.388055
C    -5.673018  -2.344429  0.999663
H    -3.908745  -3.450467  1.464441
H    -6.328603  -2.825513  1.735208
H    -5.847792  -2.788624  0.012459
H    -5.896015  -1.275113  0.959214
Sr    2.342000  -2.858847  2.155833
