36
Energy: -108382.19943 eV PBE+vdW (tier 2 basis)
C    -0.715326  -0.605531  -0.164486
C    -0.040156  0.472109  0.618019
O    0.997235  1.048062  0.146218
H    -0.885704  -0.234782  -1.183788
H    -1.667124  -0.931808  0.263693
H    -0.046373  -1.472737  -0.253491
N    -0.490216  0.872285  1.803608
C    -1.527799  0.354480  2.692996
C    -1.646008  1.455525  3.778401
O    -0.661068  2.188000  4.001106
H    -0.029765  1.685393  2.226454
H    -2.474193  0.274892  2.139209
C    -1.181741  -1.041002  3.297807
C    -0.468483  -1.148531  4.660285
C    0.885724  -0.456778  4.889200
N    1.855746  -0.665418  3.806811
C    2.582930  0.254520  3.154546
N    2.263267  1.639710  3.279088
N    3.555888  0.026470  2.297790
H    -0.614174  -1.593693  2.535594
H    -2.126961  -1.590931  3.404325
H    -0.352902  -2.225440  4.854920
H    -1.130684  -0.787141  5.460916
H    0.749388  0.618290  5.027808
H    1.319766  -0.842172  5.823458
H    2.094886  -1.633670  3.602564
H    2.977146  2.120649  3.832128
H    1.338964  1.841685  3.689280
H    3.891482  -0.938266  2.283635
N    -2.802949  1.518926  4.440696
C    -3.078097  2.457062  5.528473
H    -3.559262  0.909053  4.143726
H    -3.887877  3.138431  5.241330
H    -2.172841  3.035558  5.727947
H    -3.373251  1.909707  6.431450
Sr    3.097565  1.790224  0.676577
