36
Energy: -108382.540206 eV PBE+vdW (tier 2 basis)
C    0.128613  0.745761  0.057832
C    -0.358944  -0.214526  1.096318
O    0.415677  -1.043975  1.639199
H    0.509570  1.659549  0.540230
H    -0.648905  1.031385  -0.658712
H    0.971152  0.287463  -0.471083
N    -1.668558  -0.185315  1.475177
C    -2.406418  1.049865  1.688476
C    -1.618556  1.923702  2.712144
O    -0.711288  1.410406  3.422741
H    -1.956700  -0.957720  2.079599
H    -2.469360  1.602045  0.738681
C    -3.849018  0.758878  2.165722
C    -4.035954  0.288921  3.627013
C    -4.224395  -1.212733  3.900886
N    -3.084804  -2.107494  3.604811
C    -1.920942  -2.106747  4.312336
N    -0.905620  -2.985825  3.880980
N    -1.539703  -1.266677  5.235707
H    -4.294281  0.045920  1.455881
H    -4.420402  1.686941  2.033919
H    -4.962167  0.744421  4.004008
H    -3.243827  0.707204  4.265147
H    -5.057469  -1.590259  3.295363
H    -4.523853  -1.345305  4.952436
H    -3.337896  -2.988219  3.162532
H    -0.562438  -3.582190  4.634688
H    -1.090612  -3.529186  3.039188
H    -2.296971  -0.713999  5.638508
N    -1.959631  3.204517  2.789720
C    -1.373548  4.189169  3.699458
H    -2.680868  3.538967  2.155057
H    -0.869562  4.975446  3.124478
H    -0.649995  3.689603  4.346966
H    -2.161556  4.643728  4.311267
Sr    0.542600  -0.575738  4.011368
