36
Energy: -108380.842526 eV PBE+vdW (tier 2 basis)
C    -0.957541  -1.022067  0.516814
C    -1.098859  -0.930536  1.987737
O    -0.206090  -1.389636  2.779587
H    -0.953272  -0.028913  0.042729
H    -1.851971  -1.543087  0.085740
H    -0.036638  -1.551116  0.259338
N    -2.187854  -0.340909  2.541633
C    -2.777352  0.887417  2.020273
C    -1.681539  1.978573  2.042464
O    -0.620531  1.809552  2.738516
H    -2.242139  -0.451133  3.554836
H    -3.112776  0.728817  0.979774
C    -3.986505  1.323144  2.879018
C    -5.158819  0.334286  3.005194
C    -5.978258  0.008401  1.734492
N    -5.499869  -1.132199  0.960411
C    -4.523961  -1.127055  -0.007551
N    -4.355338  0.095878  -0.688462
N    -3.739953  -2.103427  -0.328081
H    -4.364100  2.271384  2.472376
H    -3.621687  1.564028  3.892028
H    -5.845628  0.783222  3.737802
H    -4.825697  -0.611212  3.460687
H    -6.055988  0.892344  1.087334
H    -7.006447  -0.222369  2.041990
H    -5.640333  -2.037058  1.398169
H    -5.236388  0.554670  -0.918253
H    -3.829185  -0.080927  -1.543612
H    -3.887145  -2.929780  0.257975
N    -1.836418  3.090604  1.343437
C    -2.930865  3.460628  0.442243
H    -1.094866  3.780533  1.466167
H    -3.451529  2.567462  0.082695
H    -2.505354  3.987828  -0.418238
H    -3.638619  4.129506  0.948580
Sr    0.932421  0.386586  3.694198
