36
Energy: -108382.666546 eV PBE+vdW (tier 2 basis)
C    -1.077231  -0.081176  -0.106108
C    -1.222511  -0.520346  1.319744
O    -0.680618  -1.580857  1.722149
H    -1.509772  -0.854949  -0.755338
H    -0.010719  -0.013733  -0.356380
H    -1.559014  0.876900  -0.327051
N    -1.957929  0.269916  2.133063
C    -2.369584  0.024280  3.532690
C    -1.138166  0.063321  4.456135
O    -0.358805  -0.921447  4.545321
H    -2.357570  1.095460  1.697453
H    -3.001747  0.884526  3.782226
C    -3.247468  -1.236356  3.660136
C    -3.897745  -1.501246  5.035034
C    -3.147503  -2.448436  5.993191
N    -2.795704  -3.709273  5.319427
C    -1.540320  -4.082865  4.972274
N    -0.455742  -3.681574  5.785651
N    -1.158171  -4.724014  3.894044
H    -2.688114  -2.116857  3.319993
H    -4.048319  -1.100490  2.920743
H    -4.892397  -1.933797  4.853457
H    -4.095990  -0.561756  5.573484
H    -3.780247  -2.657378  6.865849
H    -2.230017  -1.977135  6.364124
H    -3.522143  -4.074614  4.706930
H    0.109827  -4.496520  6.029457
H    -0.702202  -3.173833  6.632179
H    -1.928705  -5.069717  3.317625
N    -0.909992  1.169670  5.165772
C    -1.666215  2.426894  5.189679
H    -0.066822  1.130525  5.736950
H    -1.165433  3.105152  5.886100
H    -2.691414  2.274873  5.548511
H    -1.679711  2.907026  4.203543
Sr    0.460259  -2.839828  3.355616
