36
Energy: -108381.061525 eV PBE+vdW (tier 2 basis)
C    -0.434720  -1.222976  0.563242
C    -0.454938  -0.893939  2.017479
O    0.605430  -0.959147  2.718181
H    0.556843  -1.037683  0.139431
H    -1.205225  -0.706584  -0.022996
H    -0.626177  -2.305514  0.474268
N    -1.612253  -0.535360  2.624044
C    -2.535901  0.442840  2.050310
C    -1.788084  1.795005  1.909338
O    -0.650729  1.974583  2.476265
H    -1.547746  -0.506931  3.642940
H    -2.792513  0.123031  1.031221
C    -3.810349  0.567548  2.913693
C    -4.857413  -0.543448  2.731751
C    -5.794994  -0.390180  1.516857
N    -5.176337  -0.621698  0.212961
C    -4.420473  0.261907  -0.519585
N    -4.678031  1.642787  -0.292717
N    -3.478056  -0.014405  -1.357304
H    -4.274633  1.541349  2.706853
H    -3.499266  0.613737  3.970762
H    -5.494053  -0.550383  3.628703
H    -4.373448  -1.532560  2.703569
H    -6.269882  0.601216  1.532872
H    -6.617582  -1.110191  1.615895
H    -4.993130  -1.595668  -0.007719
H    -4.449211  2.134370  -1.158912
H    -5.648039  1.840139  -0.045869
H    -3.348011  -1.023578  -1.473837
N    -2.382502  2.703845  1.174779
C    -1.879924  4.048206  0.910595
H    -3.272284  2.405676  0.702070
H    -2.721476  4.749131  0.914916
H    -1.394965  4.086044  -0.074066
H    -1.163338  4.341106  1.682233
Sr    1.294737  1.161661  3.355305
