36
Energy: -108379.465049 eV PBE+vdW (tier 2 basis)
C    0.406097  1.760997  1.077082
C    -0.117441  0.676175  1.958375
O    0.725415  0.004817  2.685974
H    0.999162  2.462637  1.678250
H    -0.379954  2.313920  0.556509
H    1.081309  1.322676  0.328898
N    -1.388151  0.369881  2.031751
C    -2.567551  0.934377  1.360180
C    -3.707522  0.491886  2.326712
O    -3.509607  -0.536077  2.991876
H    -1.725847  -0.386266  2.666934
H    -2.476053  2.026082  1.300174
C    -2.720651  0.303086  -0.044760
C    -3.921021  0.779729  -0.868108
C    -3.897093  0.162700  -2.271832
N    -5.019521  0.623015  -3.065347
C    -5.004215  0.565118  -4.457300
N    -6.180406  0.960329  -5.045283
N    -4.033737  0.171954  -5.223343
H    -2.764201  -0.789371  0.084726
H    -1.793817  0.515527  -0.601311
H    -3.919758  1.875414  -0.967114
H    -4.858196  0.498829  -0.363734
H    -3.865666  -0.940775  -2.196441
H    -2.975294  0.475691  -2.784015
H    -5.936464  0.486929  -2.647452
H    -6.161039  0.973944  -6.059389
H    -6.755491  1.666454  -4.601458
H    -3.228159  -0.182833  -4.704848
N    -4.845274  1.199329  2.403603
C    -5.209587  2.475751  1.799100
H    -5.525288  0.783628  3.038822
H    -5.605849  3.143567  2.573086
H    -5.974793  2.344878  1.023193
H    -4.338983  2.959918  1.348652
Sr    2.134390  -1.087643  3.941254
