36
Energy: -108381.603946 eV PBE+vdW (tier 2 basis)
C    -0.596809  -1.541714  0.904768
C    -0.223307  -0.404031  1.802383
O    0.995488  -0.148911  2.050714
H    -0.658528  -1.192724  -0.138296
H    -1.561541  -1.986825  1.170434
H    0.188249  -2.303287  0.954680
N    -1.190732  0.374020  2.337264
C    -2.325260  0.861573  1.542555
C    -1.790207  1.730280  0.352623
O    -0.505108  2.024684  0.366540
H    -0.826812  1.063657  2.996237
H    -2.825177  -0.009916  1.098928
C    -3.306943  1.624619  2.449861
C    -4.275970  0.758849  3.271336
C    -5.409018  0.070766  2.486949
N    -6.286095  1.008193  1.770668
C    -5.976968  1.583379  0.594156
N    -6.470991  2.792532  0.287615
N    -5.170562  0.986356  -0.300604
H    -3.857716  2.339791  1.826518
H    -2.723329  2.253443  3.141412
H    -4.727639  1.393529  4.047727
H    -3.726246  -0.026821  3.812667
H    -6.044355  -0.493303  3.179808
H    -5.019804  -0.673322  1.779338
H    -7.072229  1.388682  2.290038
H    -6.509516  3.078853  -0.684035
H    -6.944239  3.371099  0.971447
H    -5.043547  -0.012072  -0.170930
N    -2.637425  2.069941  -0.554059
C    -2.175562  2.884463  -1.675120
H    -4.265079  1.491369  -0.571623
H    -1.867403  3.886984  -1.342565
H    -2.989279  2.998554  -2.398574
H    -1.319718  2.424375  -2.191830
Sr    1.630694  1.775368  0.867013
