36
Energy: -108381.959069 eV PBE+vdW (tier 2 basis)
C    1.208924  -1.297722  1.365362
C    0.674323  -0.081582  2.063250
O    1.335820  0.522268  2.927269
H    0.583415  -1.644384  0.535595
H    1.295459  -2.107742  2.103143
H    2.221414  -1.087597  1.001530
N    -0.579314  0.334888  1.703385
C    -1.391836  1.327166  2.428820
C    -0.806889  2.738878  2.272374
O    -1.508925  3.671297  1.741470
H    -1.060926  -0.202714  0.990703
H    -2.355090  1.356578  1.903415
C    -1.641998  0.878899  3.897375
C    -2.825824  1.487551  4.671437
C    -2.602270  2.794823  5.437955
N    -2.619214  3.951356  4.541358
C    -2.333930  5.233795  4.854559
N    -2.059697  5.525433  6.141415
N    -2.295120  6.147408  3.870218
H    -0.716486  0.973418  4.481001
H    -1.833675  -0.200164  3.818720
H    -3.116333  0.745897  5.427810
H    -3.714524  1.587277  4.024693
H    -1.636406  2.762377  5.965763
H    -3.398472  2.892081  6.194932
H    -3.070734  3.811244  3.646394
H    -1.765847  6.456092  6.409257
H    -2.279701  4.883418  6.893332
H    -2.304169  7.088413  4.271777
N    0.417491  2.944029  2.708052
C    1.096516  4.222599  2.616488
H    0.934020  2.049939  2.985987
H    1.145902  4.576360  1.573091
H    2.124091  4.107371  2.973591
H    0.605030  4.975044  3.255584
Sr    -1.894352  5.898046  1.520478
