36
Energy: -108381.823409 eV PBE+vdW (tier 2 basis)
C    -0.439373  2.402554  0.142176
C    -0.371270  1.234684  0.878514
O    0.626752  0.972233  1.675984
H    0.503055  2.900640  -0.093812
H    -1.286011  2.659887  -0.489480
H    0.691356  -1.030076  -1.703541
N    -1.444006  0.295464  0.961627
C    -2.824289  0.786014  1.039048
C    -3.075130  1.486579  2.407176
O    -2.132722  2.062645  3.018161
H    -1.222951  -0.329845  1.740747
H    -2.923086  1.585144  0.287467
C    -3.842551  -0.311324  0.671914
C    -3.557914  -0.957291  -0.698656
C    -2.756257  -2.269290  -0.593752
N    -2.100476  -2.657480  -1.842183
C    -0.900128  -2.202738  -2.231812
N    -0.323882  -2.707405  -3.333944
N    -0.279350  -1.253503  -1.523238
H    -4.845845  0.135938  0.629545
H    -3.877920  -1.080792  1.460125
H    -3.017817  -0.241571  -1.336161
H    -4.504412  -1.163444  -1.214741
H    -3.413335  -3.098701  -0.304228
H    -1.983265  -2.205895  0.183466
H    -2.611105  -3.249934  -2.488027
H    0.508548  -2.291058  -3.731684
H    -0.679162  -3.542727  -3.782421
H    -0.740562  -0.766457  -0.746716
N    -4.305596  1.489843  2.908797
C    -4.672364  2.165647  4.154582
H    -5.037181  1.005752  2.400378
H    -4.054224  1.799689  4.982333
H    -5.722847  1.952475  4.368230
H    -4.538388  3.250052  4.058898
Sr    0.080828  2.881624  2.830597
