36
Energy: -108381.102676 eV PBE+vdW (tier 2 basis)
C    -0.900004  0.566822  -0.821304
C    -0.405216  0.258341  0.547649
O    0.843356  0.161328  0.794240
H    -0.476005  1.512249  -1.186154
H    -1.992701  0.579154  -0.879977
H    -0.512015  -0.219598  -1.486803
N    -1.277433  0.071513  1.559735
C    -2.441534  0.923940  1.805904
C    -1.913566  2.304886  2.225277
O    -0.660581  2.475512  2.460986
H    -0.858469  -0.327154  2.402268
H    -3.034142  1.000895  0.858185
C    -3.342404  0.234845  2.851925
C    -4.048343  -0.992444  2.244368
C    -5.527221  -0.786949  1.887735
N    -5.881845  0.470905  1.205414
C    -5.568679  0.722289  -0.125797
N    -6.583033  1.314276  -0.838197
N    -4.360443  0.501115  -0.560169
H    -4.077403  0.951330  3.238534
H    -2.721619  -0.053382  3.715884
H    -4.012569  -1.828313  2.956148
H    -3.501623  -1.326755  1.353252
H    -6.116948  -0.783061  2.813839
H    -5.860845  -1.655549  1.298229
H    -6.806534  0.800086  1.464855
H    -6.401728  1.570869  -1.801641
H    -7.545903  1.060048  -0.644118
H    -4.316429  0.633122  -1.573542
N    -2.729367  3.339560  2.330865
C    -4.164275  3.420748  2.055663
H    -2.279159  4.200892  2.640767
H    -4.533540  2.490895  1.615303
H    -4.344497  4.248331  1.359699
H    -4.708349  3.617384  2.988130
Sr    1.526415  1.832205  2.234248
