36
Energy: -108381.913623 eV PBE+vdW (tier 2 basis)
C    -0.732106  1.985140  0.181753
C    -0.496086  1.511541  1.589144
O    0.205886  2.080402  2.410662
H    -1.544301  2.726854  0.192424
H    -1.013271  1.179283  -0.507040
H    0.166727  2.490691  -0.184882
N    -1.139115  0.312463  1.953425
C    -1.223935  0.000118  3.367878
C    0.015180  -0.745440  3.882061
O    0.131905  -0.978411  5.132331
H    -1.866501  -0.040855  1.338904
H    -1.175743  0.960842  3.912532
C    -2.518418  -0.720862  3.774763
C    -2.755055  -2.125268  3.174109
C    -3.479168  -3.096201  4.123773
N    -2.561642  -3.767667  5.064231
C    -2.115138  -3.288388  6.234118
N    -0.945563  -3.889386  6.787560
N    -2.530429  -2.251547  6.922600
H    -3.363265  -0.061272  3.533450
H    -2.499388  -0.781650  4.868942
H    -1.805112  -2.592090  2.869774
H    -3.356004  -2.046657  2.257581
H    -3.966506  -3.896910  3.555716
H    -4.279891  -2.594445  4.685234
H    -2.217917  -4.677302  4.771097
H    -0.465762  -4.547490  6.172883
H    -1.147909  -4.345322  7.680734
H    -3.439447  -1.891286  6.629159
N    0.926543  -1.098115  3.001103
C    2.226444  -1.692581  3.279392
H    0.707407  -0.811353  2.044276
H    3.013084  -0.931476  3.194068
H    2.426482  -2.491253  2.556942
H    2.232653  -2.105503  4.291505
Sr    -0.313381  -1.281902  7.333109
