36
Energy: -108381.382582 eV PBE+vdW (tier 2 basis)
C    0.416263  1.116247  0.534509
C    0.033791  0.717304  1.924206
O    0.580831  1.260771  2.932168
H    1.437143  1.510819  0.542954
H    -0.254586  1.915095  0.178714
H    0.342113  0.281582  -0.170506
N    -0.933177  -0.210478  2.108883
C    -2.204503  -0.175127  1.355371
C    -2.771497  1.271387  1.442066
O    -2.459858  1.948235  2.532880
H    -1.051991  -0.466672  3.090123
H    -1.996315  -0.394999  0.301589
C    -3.107424  -1.266684  1.978604
C    -4.523610  -1.459566  1.412132
C    -4.709205  -2.462967  0.257962
N    -3.874365  -2.270016  -0.943317
C    -3.694195  -1.104895  -1.578266
N    -2.632827  -0.937839  -2.393510
N    -4.497673  -0.046726  -1.377380
H    -3.214953  -1.018801  3.047256
H    -2.549797  -2.215331  1.939301
H    -4.965270  -0.483123  1.176928
H    -5.150850  -1.863739  2.219427
H    -5.772788  -2.491386  -0.026005
H    -4.465554  -3.472262  0.612460
H    -3.437273  -3.100520  -1.331621
H    -2.693275  -0.223846  -3.111655
H    -1.956750  -1.679339  -2.536090
H    -5.394146  -0.268218  -0.954201
N    -3.451280  1.725874  0.445639
C    -3.988867  3.082023  0.534514
H    -4.036685  0.788326  -0.892245
H    -4.519223  3.259876  1.480949
H    -4.682779  3.251811  -0.295478
H    -3.185501  3.831352  0.451930
Sr    -0.956275  2.715455  3.960866
