36
Energy: -108382.848437 eV PBE+vdW (tier 2 basis)
C    -0.920966  0.445609  0.556220
C    -0.672178  0.299490  2.025611
O    0.497685  0.296006  2.487411
H    -1.980586  0.415678  0.282210
H    -0.387479  -0.351155  0.021635
H    -0.490349  1.398232  0.218613
N    -1.747897  0.171900  2.832071
C    -1.746855  0.079740  4.304371
C    -0.842199  1.175716  4.917505
O    0.298391  0.898763  5.372974
H    -2.656728  0.160908  2.379202
H    -2.774606  0.338070  4.589573
C    -1.445604  -1.323040  4.903200
C    -0.670130  -2.334423  4.038005
C    0.166870  -3.315041  4.855608
N    1.322420  -2.653812  5.571901
C    2.608332  -3.133249  5.173197
N    3.150289  -4.134547  5.889703
N    3.136927  -2.505073  4.158241
H    -2.402691  -1.779267  5.185534
H    -0.907317  -1.146014  5.844312
H    -0.014816  -1.845987  3.302054
H    -1.370852  -2.918670  3.425062
H    0.567865  -4.093876  4.194211
H    -0.454460  -3.821499  5.606537
H    1.201701  -2.739447  6.581302
H    4.089821  -4.469517  5.700828
H    2.605540  -4.665808  6.559209
H    3.997418  -2.932807  3.808511
N    -1.316217  2.419665  4.977880
C    -2.623305  2.920429  4.546361
H    -0.682713  3.088656  5.412723
H    -3.440641  2.433526  5.093996
H    -2.766230  2.789899  3.466959
H    -2.664273  3.990599  4.766303
Sr    2.047832  -0.238653  4.215969
