36
Energy: -108381.339878 eV PBE+vdW (tier 2 basis)
C    -1.675949  0.702938  -1.012000
C    -1.092031  0.061978  0.198310
O    -0.042574  -0.660251  0.123625
H    -0.909339  1.262073  -1.564031
H    -2.542867  1.339030  -0.795887
H    -1.994343  -0.114026  -1.679247
N    -1.675326  0.226724  1.405140
C    -2.145675  1.520304  1.897973
C    -0.904159  2.382586  2.172170
O    0.271035  1.862856  2.111184
H    -1.317490  -0.404278  2.124925
H    -2.768500  2.023145  1.108456
C    -3.046509  1.338493  3.136869
C    -4.216972  0.369314  2.914621
C    -5.114138  0.652297  1.699403
N    -5.708378  1.979930  1.665516
C    -5.368632  2.933018  0.739168
N    -6.288685  3.940691  0.591941
N    -4.207288  2.875755  0.133734
H    -3.443434  2.322967  3.412933
H    -2.448150  0.996313  3.996734
H    -4.823539  0.378911  3.832051
H    -3.850476  -0.664286  2.816518
H    -5.919491  -0.096100  1.689693
H    -4.558139  0.526153  0.761586
H    -6.580417  2.111697  2.163871
H    -6.101998  4.654604  -0.101038
H    -7.273116  3.747004  0.740961
H    -4.151384  3.573979  -0.609859
N    -1.022014  3.667411  2.459788
C    -2.230498  4.496890  2.489224
H    -0.142189  4.133706  2.679210
H    -3.000640  4.067940  1.837336
H    -1.966918  5.491103  2.113277
H    -2.604705  4.598368  3.515756
Sr    1.707196  0.267370  1.316199
