36
Energy: -108381.512717 eV PBE+vdW (tier 2 basis)
C    0.133049  0.511817  -0.382976
C    0.142879  -0.102687  0.981493
O    0.994446  -0.993675  1.285122
H    -0.871498  0.815147  -0.696005
H    0.545583  -0.206505  -1.098758
H    0.776072  1.406317  -0.394633
N    -0.748393  0.314829  1.908288
C    -1.037819  1.741791  2.122590
C    0.299152  2.496209  2.421578
O    1.339497  1.753464  2.743443
H    -0.705957  -0.226347  2.772855
H    -1.434885  2.153742  1.186084
C    -2.082178  1.876320  3.251350
C    -3.559122  1.704938  2.834139
C    -4.347119  2.982485  2.491796
N    -4.014662  3.622563  1.208086
C    -2.916833  4.357859  0.967375
N    -2.495320  4.529561  -0.302726
N    -2.180179  4.894849  1.947277
H    -1.932928  2.839604  3.753321
H    -1.840819  1.124177  4.019427
H    -4.101003  1.250075  3.675675
H    -3.644818  0.983769  2.006651
H    -4.268169  3.717365  3.306780
H    -5.413241  2.734713  2.429982
H    -4.661238  3.470312  0.440345
H    -1.920272  5.338387  -0.511942
H    -2.983907  4.100484  -1.079700
H    -2.616939  4.913503  2.863477
N    0.288208  3.778064  2.307315
C    1.508160  4.525324  2.602274
H    -1.135553  4.627378  1.988312
H    2.283507  4.336537  1.843648
H    1.285257  5.597128  2.595202
H    1.925800  4.261414  3.584566
Sr    2.615644  -0.048063  2.699858
