36
Energy: -108380.737197 eV PBE+vdW (tier 2 basis)
C    -2.002606  0.866500  0.893812
C    -2.581605  0.142293  2.058033
O    -2.799512  0.731346  3.152115
H    -2.823273  1.053482  0.181556
H    -1.225135  0.295469  0.371405
H    -1.605422  1.830929  1.222429
N    -2.812895  -1.235368  2.092443
C    -2.174967  -2.218913  1.197561
C    -0.672491  -2.242145  1.588593
O    -0.330847  -1.801966  2.731846
H    -3.807969  -1.448324  2.378207
H    -2.537258  -3.193230  1.572425
C    -2.548386  -2.136000  -0.304331
C    -3.651425  -3.105875  -0.754436
C    -5.022062  -2.920079  -0.075176
N    -5.488471  -1.540373  -0.089529
C    -5.532943  -0.669714  0.966627
N    -5.671322  -1.288926  2.248409
N    -5.356041  0.590637  0.772588
H    -1.665820  -2.304338  -0.937567
H    -2.858358  -1.109738  -0.531655
H    -3.334072  -4.151188  -0.612777
H    -3.775287  -2.978471  -1.839919
H    -4.986630  -3.267336  0.966191
H    -5.753085  -3.567323  -0.580468
H    -5.497836  -1.058806  -0.985185
H    -6.002281  -0.610313  2.933635
H    -6.301450  -2.094154  2.252503
H    -5.606016  1.164378  1.581749
N    0.198279  -2.788021  0.759027
C    1.623216  -2.987386  1.030330
H    -0.152165  -3.122619  -0.134985
H    1.847115  -4.060760  1.058373
H    1.872893  -2.533864  1.991530
H    2.214355  -2.518820  0.235099
Sr    -1.553802  -0.809730  4.456906
