36
Energy: -108381.963549 eV PBE+vdW (tier 2 basis)
C    1.905141  0.616262  0.684682
C    1.127860  0.356144  1.938627
O    1.651726  -0.361121  2.875962
H    2.847469  1.122583  0.934593
H    1.356508  1.234237  -0.032929
H    2.154007  -0.338653  0.201190
N    -0.074632  0.879567  2.042668
C    -1.104023  0.686800  3.065445
C    -2.398287  0.536677  2.203157
O    -2.367512  0.984104  1.052815
H    -0.528201  1.287511  1.201241
H    -0.883705  -0.220038  3.642292
C    -1.270628  1.938019  3.964951
C    -0.078346  2.406132  4.812634
C    0.248374  1.590845  6.067076
N    0.931377  0.343964  5.720399
C    1.535501  -0.511636  6.568835
N    1.351820  -0.337982  7.891749
N    2.294330  -1.498364  6.060709
H    -2.135486  1.763770  4.621704
H    -1.562973  2.765560  3.302059
H    -0.312651  3.423907  5.153197
H    0.828793  2.513774  4.195852
H    -0.680987  1.375462  6.621623
H    0.897138  2.193335  6.722632
H    1.086798  0.168830  4.729927
H    1.830285  -0.921133  8.565837
H    0.748137  0.385910  8.260314
H    2.602057  -2.123731  6.808697
N    -3.489931  -0.028923  2.747944
C    -3.683757  -0.554221  4.092318
H    -4.300971  -0.013723  2.131665
H    -2.733511  -0.888717  4.523046
H    -4.348932  -1.423371  4.044717
H    -4.136569  0.191400  4.761636
Sr    3.050502  -1.891692  3.837069
