36
Energy: -108381.402457 eV PBE+vdW (tier 2 basis)
C    -1.826250  1.814314  1.816948
C    -1.426182  0.587978  2.572074
O    -0.316402  0.014999  2.306907
H    -1.820226  1.592898  0.741339
H    -1.077843  2.601002  1.984828
H    -2.810815  2.192934  2.107776
N    -2.250015  0.135718  3.514115
C    -2.143932  -1.120269  4.282860
C    -0.856040  -1.186530  5.111112
O    0.205416  -1.717676  4.640636
H    -3.214531  0.531642  3.556375
H    -2.965620  -1.057487  4.999991
C    -2.403761  -2.379827  3.427881
C    -3.694009  -2.303284  2.590229
C    -5.035231  -2.520515  3.328622
N    -5.191103  -1.853342  4.620347
C    -5.259058  -0.501168  4.896214
N    -5.131936  0.362666  3.774267
N    -5.299539  0.053442  6.055401
H    -2.426864  -3.247283  4.104547
H    -1.560824  -2.552100  2.739076
H    -3.643495  -3.079900  1.814112
H    -3.712285  -1.351808  2.040698
H    -5.152436  -3.590547  3.540081
H    -5.856023  -2.266196  2.636598
H    -5.448165  -2.448669  5.398186
H    -5.461831  1.285431  4.062746
H    -5.660076  0.055369  2.956700
H    -5.358992  -0.624288  6.820367
N    -0.848783  -0.709368  6.346845
C    -1.891364  -0.026545  7.118373
H    0.041869  -0.838594  6.830121
H    -2.138170  -0.625463  8.003657
H    -2.800431  0.140984  6.532205
H    -1.507054  0.945980  7.449023
Sr    1.340513  -1.456645  2.687158
