36
Energy: -108381.7323 eV PBE+vdW (tier 2 basis)
C    -1.072499  -1.182333  2.993724
C    -2.292723  -1.539976  2.205799
O    -2.449390  -2.747999  1.831962
H    -1.176886  -0.258783  3.564738
H    -0.193771  -1.103650  2.336919
H    -0.876969  -2.016943  3.679386
N    -3.277473  -0.648949  1.930109
C    -3.155931  0.656777  1.239206
C    -3.074605  0.363376  -0.289000
O    -2.545421  -0.785396  -0.655807
H    -4.107864  -1.143287  1.599609
H    -4.111762  1.166499  1.417759
C    -2.018902  1.557781  1.754972
C    -1.901860  2.960281  1.128985
C    -3.095509  3.910815  1.278763
N    -4.145276  3.601882  0.306761
C    -5.243427  4.326970  0.131650
N    -5.480200  5.434141  0.854129
N    -6.159464  3.927661  -0.775288
H    -1.050847  1.064502  1.596067
H    -2.150206  1.666172  2.842052
H    -1.630619  2.890597  0.066304
H    -1.047657  3.443840  1.621578
H    -2.731062  4.937590  1.112521
H    -3.497339  3.862523  2.306137
H    -3.986962  2.745183  -0.308714
H    -6.324032  5.978693  0.729911
H    -4.805731  5.777132  1.524342
H    -6.927220  4.527687  -1.047293
N    -3.539621  1.275949  -1.071247
C    -3.438590  1.086172  -2.515103
H    -5.961127  3.134141  -1.370360
H    -3.590545  2.047977  -3.018235
H    -4.213829  0.392351  -2.876918
H    -2.461038  0.686180  -2.820023
Sr    -2.252411  -2.968935  -0.483846
