36
Energy: -108381.962108 eV PBE+vdW (tier 2 basis)
C    -0.468697  1.714204  -0.825763
C    -0.834086  2.232792  0.536801
O    -0.097704  3.218186  0.992713
H    0.581926  1.395482  -0.838159
H    -0.562883  2.522664  -1.563719
H    -1.093674  0.867943  -1.125993
N    -1.843635  1.692111  1.169550
C    -2.240253  2.250524  2.470736
C    -1.279916  1.760102  3.565573
O    -0.263528  2.454932  3.886894
H    -2.991088  0.581377  0.245390
H    -2.117523  3.350447  2.470099
C    -3.721129  1.941801  2.766645
C    -4.691226  2.696272  1.826007
C    -5.914935  1.891985  1.318132
N    -5.845064  1.557272  -0.119255
C    -4.774569  0.988785  -0.688174
N    -4.482489  1.209534  -1.976610
N    -3.947382  0.189852  0.024740
H    -3.941577  2.203387  3.810726
H    -3.888603  0.855604  2.686786
H    -4.140432  3.068216  0.950343
H    -5.059699  3.589195  2.346201
H    -6.834879  2.474918  1.431347
H    -6.069541  0.977345  1.911264
H    -6.575482  1.927359  -0.720462
H    -3.887902  0.549286  -2.464988
H    -4.960228  1.915373  -2.525072
H    -4.376974  -0.183974  0.866353
N    -1.507337  0.590361  4.146820
C    -0.646731  -0.019992  5.158892
H    -2.322299  0.067277  3.842860
H    0.163234  -0.592846  4.688194
H    -1.249256  -0.693995  5.774663
H    -0.215550  0.760912  5.791946
Sr    1.029668  3.961774  2.717945
