36
Energy: -108382.788454 eV PBE+vdW (tier 2 basis)
C    1.033521  0.697457  1.065390
C    0.233751  -0.323349  1.808447
O    0.672416  -1.490661  1.993897
H    0.535667  1.669465  0.986910
H    1.251275  0.321596  0.056941
H    1.999010  0.827329  1.572812
N    -0.976348  0.039813  2.290069
C    -1.787339  -0.867110  3.102555
C    -2.600989  -1.805835  2.178053
O    -2.063639  -2.883606  1.798625
H    -1.302657  0.986585  2.116069
H    -1.049105  -1.529400  3.571965
C    -2.549683  -0.202455  4.257115
C    -2.810275  -1.231263  5.377918
C    -1.512485  -1.557085  6.162728
N    -1.336186  -2.937436  6.624781
C    -0.744258  -3.900136  5.864415
N    -0.021944  -4.846870  6.496764
N    -0.845614  -3.917461  4.534254
H    -3.492362  0.261117  3.930908
H    -1.936557  0.623103  4.649618
H    -3.248117  -2.150189  4.956632
H    -3.571886  -0.841643  6.064286
H    -1.460499  -0.918387  7.052294
H    -0.629015  -1.300480  5.557205
H    -1.395857  -3.097856  7.624917
H    0.228296  -4.769931  7.475053
H    0.137433  -5.736959  6.042641
H    -1.713188  -3.427361  4.299413
N    -3.814828  -1.434258  1.791415
C    -4.673805  -2.185776  0.876012
H    -4.178992  -0.558188  2.155667
H    -5.645156  -2.369239  1.349476
H    -4.193442  -3.137990  0.640700
H    -4.827179  -1.613912  -0.047402
Sr    0.106060  -3.777899  2.283960
