36
Energy: -108381.670458 eV PBE+vdW (tier 2 basis)
C    -0.105601  -0.464096  1.314271
C    -0.264092  -0.142313  2.804615
O    0.874728  -0.360937  3.485377
H    -0.909176  -0.081583  0.677029
H    -0.017694  -1.546016  1.157819
H    0.841261  -0.016893  0.992276
N    -1.377515  -0.907015  3.510272
C    -2.401770  -1.737782  2.839937
C    -1.723326  -3.063450  2.408179
O    -0.735675  -3.486752  3.071900
H    -1.820014  -0.272208  4.171233
H    -3.060054  -2.061886  3.667364
C    -3.316760  -1.074287  1.791030
C    -4.182773  0.096278  2.281763
C    -3.489158  1.372060  2.770243
N    -2.505973  1.950198  1.838766
C    -1.217757  2.197204  2.141075
N    -0.624158  3.282151  1.619363
N    -0.525191  1.382899  2.967859
H    -4.039064  -1.829581  1.443746
H    -2.742551  -0.772304  0.906603
H    -4.842656  -0.236576  3.098312
H    -4.858947  0.364274  1.456681
H    -2.977190  1.239276  3.728696
H    -4.259706  2.136842  2.945167
H    -2.887493  2.479654  1.058654
H    0.386197  3.362659  1.594182
H    -1.159350  4.077336  1.285696
H    0.337404  1.779821  3.339011
N    -2.225553  -3.750167  1.389303
C    -1.741586  -5.056823  0.943711
H    -3.006005  -3.346649  0.881418
H    -1.239690  -4.963975  -0.027529
H    -2.589308  -5.743850  0.844222
H    -1.038041  -5.447395  1.682047
Sr    0.625784  -2.294791  4.586373
