36
Energy: -108382.941263 eV PBE+vdW (tier 2 basis)
C    0.300909  -0.772172  0.731810
C    -0.167142  -0.696059  2.153719
O    0.349045  -1.427100  3.037299
H    -0.214202  -0.080453  0.057259
H    0.155974  -1.798901  0.369277
H    1.379513  -0.570543  0.697246
N    -1.157790  0.181925  2.427867
C    -1.865752  0.398219  3.706948
C    -0.914305  1.010387  4.760392
O    -0.048409  0.315404  5.349838
H    -1.496438  0.723366  1.638560
H    -2.630557  1.152732  3.477437
C    -2.578170  -0.882710  4.186477
C    -3.189217  -0.801603  5.591188
C    -3.580665  -2.183828  6.171676
N    -2.590415  -3.244211  5.928112
C    -1.283355  -3.205261  6.271621
N    -0.864424  -2.276535  7.246910
N    -0.291555  -3.868411  5.725651
H    -1.857024  -1.707244  4.137636
H    -3.351718  -1.122722  3.442751
H    -4.093151  -0.176212  5.593241
H    -2.482988  -0.303458  6.271969
H    -4.511366  -2.540981  5.716162
H    -3.789236  -2.098791  7.248390
H    -2.808570  -3.878983  5.166188
H    -0.318012  -2.744243  7.971565
H    -1.597409  -1.716875  7.676641
H    -0.585949  -4.603445  5.079166
N    -1.074711  2.308427  5.012340
C    -0.269548  3.080642  5.957189
H    -1.788036  2.811097  4.492354
H    -0.919734  3.773105  6.501904
H    0.500314  3.655294  5.426120
H    0.210810  2.396762  6.661339
Sr    1.063903  -1.793922  5.254843
