36
Energy: -108382.006531 eV PBE+vdW (tier 2 basis)
C    0.006835  0.279483  0.082477
C    -0.191690  -0.695401  1.203892
O    0.829225  -1.253223  1.751594
H    0.716554  1.064288  0.377253
H    0.450326  -0.252294  -0.771349
H    -0.927357  0.745123  -0.246918
N    -1.422369  -0.942515  1.601908
C    -1.931955  -1.941730  2.541850
C    -3.476769  -1.829841  2.327899
O    -3.909250  -0.846863  1.715176
H    -2.240645  -0.454628  1.177488
H    -1.578921  -2.933400  2.217622
C    -1.537805  -1.747225  4.022863
C    -2.064084  -0.510561  4.764463
C    -1.466019  0.845845  4.351802
N    -0.006079  0.835251  4.202617
C    0.924850  0.607955  5.158689
N    0.587129  0.854006  6.440470
N    2.119164  0.122524  4.790111
H    -0.440620  -1.792696  4.100138
H    -1.896604  -2.637092  4.559343
H    -1.876589  -0.674981  5.835036
H    -3.156622  -0.433789  4.663213
H    -1.773899  1.621566  5.068592
H    -1.863462  1.174797  3.385289
H    0.358310  0.856110  3.260672
H    -0.200811  1.448171  6.671127
H    1.230361  0.641143  7.192427
H    2.805850  0.284492  5.532194
N    -4.231361  -2.802296  2.857149
C    -5.690473  -2.834260  2.752659
H    -3.772605  -3.600551  3.283764
H    -6.009657  -3.658448  2.102963
H    -6.026549  -1.887375  2.322338
H    -6.134655  -2.964439  3.746152
Sr    2.698286  -1.384249  2.997765
