36
Energy: -108381.714911 eV PBE+vdW (tier 2 basis)
C    -2.398049  -0.212069  -1.744042
C    -2.784182  -0.174063  -0.300395
O    -3.490726  -1.106586  0.199586
H    -1.846651  0.675780  -2.070061
H    -3.294702  -0.330845  -2.365224
H    -1.772918  -1.100744  -1.912374
N    -2.358885  0.847855  0.447977
C    -2.464638  0.985904  1.910906
C    -3.875644  1.471147  2.336076
O    -4.868061  0.664040  2.224044
H    -1.805119  1.561596  -0.020276
H    -2.331002  -0.017698  2.347076
C    -1.445199  1.981324  2.425787
C    0.061658  1.866442  2.286215
C    0.615861  3.127426  2.992526
N    0.126649  4.394418  2.439549
C    -0.896912  5.176203  2.950059
N    -0.671536  6.520074  2.803253
N    -1.999282  4.662297  3.445868
H    -1.654286  2.102995  3.496629
H    -1.704697  2.947095  1.971501
H    0.395047  1.846844  1.237261
H    0.468925  0.972045  2.779485
H    1.710763  3.139483  2.930654
H    0.350403  3.083143  4.058999
H    0.801222  4.908819  1.885483
H    0.270487  6.888838  2.866865
H    -1.410863  7.168462  3.043322
H    -2.525360  5.397348  3.923945
N    -4.020226  2.682486  2.825309
C    -5.317090  3.195974  3.262959
H    -3.190220  3.336666  2.984744
H    -5.692028  2.625836  4.122684
H    -6.052701  3.138278  2.452106
H    -5.185468  4.240433  3.556550
Sr    -5.348974  -1.408231  1.470537
