36
Energy: -108382.65281 eV PBE+vdW (tier 2 basis)
C    0.600253  -0.189612  0.318284
C    0.559982  -0.007212  1.801055
O    1.604707  -0.073460  2.501799
H    -0.312215  -0.649978  -0.076602
H    1.468872  -0.806109  0.065056
H    0.738488  0.785034  -0.176117
N    -0.624247  0.261088  2.422803
C    -1.646021  1.142934  1.879359
C    -1.038090  2.570895  1.732056
O    0.036302  2.876954  2.324006
H    -0.564739  0.236285  3.446451
H    -1.911930  0.802023  0.867776
C    -2.939782  1.097291  2.740593
C    -2.761458  1.035802  4.264761
C    -2.103058  2.262392  4.925668
N    -1.607698  1.987069  6.269922
C    -0.546463  1.186790  6.539979
N    -0.473235  0.677131  7.789757
N    0.370137  0.928736  5.600220
H    -3.497764  0.202937  2.433848
H    -3.570149  1.955248  2.465294
H    -2.198455  0.130570  4.539506
H    -3.756537  0.885416  4.705821
H    -2.822069  3.086549  5.011652
H    -1.278884  2.657136  4.319722
H    -2.210554  2.238595  7.045148
H    0.380937  0.254666  8.130315
H    -1.240936  0.745156  8.447262
H    0.929895  0.130742  5.918966
N    -1.694725  3.422237  0.955309
C    -1.309988  4.809364  0.692809
H    -2.533717  3.083302  0.489743
H    -2.116819  5.483773  1.003353
H    -1.123129  4.945930  -0.379062
H    -0.402167  5.039690  1.254176
Sr    1.697071  1.951638  3.780784
