36
Energy: -108381.330053 eV PBE+vdW (tier 2 basis)
C    -2.141076  1.165770  -1.257196
C    -1.982754  0.471942  0.057414
O    -1.841083  -0.790272  0.105278
H    -2.324363  2.241163  -1.164331
H    -2.959846  0.705505  -1.824474
H    -1.222292  1.011470  -1.841530
N    -1.979483  1.215722  1.170110
C    -1.643006  0.785788  2.546532
C    -2.892949  0.123911  3.168666
O    -3.247504  -1.022738  2.718325
H    -2.110561  2.217353  1.045578
H    -0.889394  -0.013257  2.457823
C    -1.016924  2.002509  3.253738
C    -0.197457  1.766875  4.534629
C    -0.954309  1.354288  5.802617
N    -2.125093  2.215545  6.020685
C    -3.086196  1.946324  7.050023
N    -3.009357  0.667564  7.588852
N    -4.053022  2.721448  7.360064
H    -1.793257  2.765346  3.426389
H    -0.325523  2.445037  2.521530
H    0.334618  2.709336  4.733227
H    0.592501  1.024733  4.345833
H    -0.245056  1.378854  6.647184
H    -1.315248  0.318735  5.720958
H    -1.891757  3.208349  6.015619
H    -3.693833  0.556977  8.334892
H    -2.088226  0.349777  7.879336
H    -4.073717  3.589252  6.818242
N    -3.581846  0.747487  4.093187
C    -4.804072  0.204864  4.691913
H    -3.138666  1.555383  4.594680
H    -5.284389  1.002736  5.264359
H    -5.479134  -0.152263  3.907653
H    -4.561652  -0.619070  5.375394
Sr    -2.783220  -2.578412  1.144750
