36
Energy: -108381.66753 eV PBE+vdW (tier 2 basis)
C    -1.157334  1.319224  2.097120
C    -2.217874  1.489424  2.987042
O    -2.039325  2.148892  4.099651
H    -3.717080  3.468587  -3.216281
H    -1.186600  0.680647  1.220136
H    -0.328279  2.024739  2.171104
N    -3.472428  0.871449  2.887691
C    -3.728450  -0.458709  2.355813
C    -2.870972  -1.536941  3.099016
O    -2.008101  -1.219519  3.960282
H    -3.995638  1.073072  3.737312
H    -4.770641  -0.680747  2.640005
C    -3.660363  -0.571076  0.814026
C    -4.711811  0.244931  0.040473
C    -4.662360  1.776683  0.163057
N    -3.368226  2.374857  -0.182287
C    -3.051193  2.966119  -1.337279
N    -1.921014  3.689533  -1.418100
N    -3.828920  2.849020  -2.422961
H    -3.810130  -1.623135  0.533593
H    -2.651015  -0.329975  0.457301
H    -5.722804  -0.064712  0.348200
H    -4.622544  -0.039816  -1.019239
H    -4.882822  2.091129  1.188279
H    -5.438261  2.226446  -0.471081
H    -2.640940  2.344437  0.538965
H    -1.561081  4.007868  -2.309242
H    -1.452987  4.016452  -0.582439
H    -4.593678  2.188544  -2.457897
N    -3.123905  -2.814735  2.830321
C    -2.447434  -3.934401  3.487840
H    -3.853182  -3.034890  2.160231
H    -2.887954  -4.866842  3.125687
H    -2.576322  -3.873686  4.574915
H    -1.376557  -3.929707  3.251910
Sr    -0.563476  0.503694  4.713514
