36
Energy: -108382.212282 eV PBE+vdW (tier 2 basis)
C    0.532579  -0.698370  -0.027078
C    0.456590  -0.332439  1.425095
O    1.516028  -0.316682  2.125239
H    -0.426427  -0.625777  -0.550304
H    0.901643  -1.730753  -0.104476
H    1.267700  -0.059173  -0.531921
N    -0.747861  -0.045447  1.930829
C    -1.179951  0.184801  3.330919
C    -0.771827  1.559206  3.890656
O    0.499625  1.878529  3.867228
H    -1.507887  -0.070059  1.257891
H    -2.272703  0.216730  3.248884
C    -0.824751  -0.992077  4.277305
C    -1.945324  -1.293947  5.289410
C    -2.051712  -0.302684  6.469923
N    -3.404287  -0.188575  7.013517
C    -4.388744  0.555795  6.477551
N    -5.629680  0.447522  6.990359
N    -4.158687  1.372312  5.448725
H    0.129031  -0.804672  4.794976
H    -0.667637  -1.891134  3.666803
H    -1.806557  -2.309329  5.684245
H    -2.903803  -1.310304  4.749308
H    -1.715669  0.699479  6.181777
H    -1.406111  -0.618279  7.298165
H    -3.644276  -0.770483  7.807668
H    -6.364539  1.089223  6.722227
H    -5.841874  -0.198416  7.739750
H    -4.942574  1.893273  5.072543
N    -1.719243  2.266615  4.411551
C    -1.358970  3.546920  5.016748
H    -3.204856  1.629075  5.049237
H    -2.221509  3.942922  5.564149
H    -1.082213  4.282017  4.246828
H    -0.508998  3.459952  5.710982
Sr    2.550835  1.255348  3.420427
