36
Energy: -108381.245522 eV PBE+vdW (tier 2 basis)
C    0.095229  -1.077876  0.099426
C    -0.127858  -0.672532  1.515057
O    0.777219  -0.046198  2.164656
H    -0.559143  -0.462898  -0.551417
H    -0.181293  -2.127003  -0.064587
H    1.141402  -0.924716  -0.175701
N    -1.307472  -0.947667  2.087795
C    -1.699093  -0.413306  3.396555
C    -0.995644  -1.184760  4.543941
O    0.075923  -0.668134  5.012589
H    -2.029937  -1.380216  1.470613
H    -1.217019  0.572201  3.477506
C    -3.220187  -0.134849  3.543372
C    -4.252754  -1.053854  2.853689
C    -5.070993  -0.347531  1.749929
N    -4.271371  0.368786  0.762675
C    -3.395749  -0.182732  -0.148812
N    -3.246592  -1.591262  -0.042898
N    -2.630138  0.427892  -0.980939
H    -3.358741  0.880869  3.149379
H    -3.429056  -0.063181  4.619561
H    -4.971840  -1.430798  3.592889
H    -3.779840  -1.947974  2.429962
H    -5.728459  0.399835  2.211806
H    -5.745954  -1.082906  1.279200
H    -4.509193  1.338609  0.596437
H    -2.784726  -1.924595  -0.889420
H    -4.127960  -2.092085  0.073336
H    -2.742356  1.444378  -0.961638
N    -1.420616  -2.326412  5.061786
C    -2.570604  -3.161288  4.715135
H    -0.840120  -2.659890  5.831585
H    -2.397655  -4.157047  5.133290
H    -2.669820  -3.257745  3.630708
H    -3.496551  -2.759779  5.143286
Sr    1.869066  0.412128  4.074360
