36
Energy: -108381.000586 eV PBE+vdW (tier 2 basis)
C    -0.940239  -0.509253  -0.932706
C    -0.850037  -0.576739  0.555221
O    0.235868  -0.289822  1.153796
H    -0.731165  0.521918  -1.251179
H    -1.917998  -0.811305  -1.321372
H    -0.161552  -1.143949  -1.375867
N    -1.933535  -0.934430  1.253900
C    -2.043243  -0.902771  2.723329
C    -1.242400  -2.074157  3.338872
O    -0.058142  -1.816567  3.750491
H    -2.790770  -1.128059  0.738433
H    -1.495292  -0.010324  3.066649
C    -3.513540  -0.759125  3.113655
C    -3.779927  -0.668194  4.624775
C    -5.265559  -0.943615  4.984400
N    -6.209339  -0.428952  4.012549
C    -6.604781  -1.169963  2.898029
N    -7.328745  -0.453612  1.975767
N    -6.258305  -2.390346  2.621198
H    -4.112074  -1.567890  2.668983
H    -3.875784  0.161426  2.633024
H    -3.490092  0.331552  4.981629
H    -3.161978  -1.388067  5.186650
H    -5.488114  -0.488055  5.956318
H    -5.416844  -2.026521  5.125094
H    -6.820969  0.318359  4.320201
H    -7.889863  -1.011419  1.342286
H    -7.715373  0.447590  2.226415
H    -5.865231  -2.851218  3.444358
N    -1.696766  -3.312764  3.430718
C    -2.979920  -3.905366  3.037143
H    -1.037852  -3.948972  3.881452
H    -2.809922  -4.969136  2.845373
H    -3.381358  -3.450348  2.128923
H    -3.713733  -3.808016  3.846608
Sr    1.652800  -0.556129  2.909200
