36
Energy: -108381.484953 eV PBE+vdW (tier 2 basis)
C    0.112675  0.339358  0.846547
C    0.044976  -0.591247  1.879702
O    1.027912  -1.431954  2.063527
H    -0.630180  5.378759  3.453391
H    -0.676328  1.054570  0.638755
H    1.116960  0.633331  0.534003
N    -1.086202  -0.854003  2.674002
C    -2.460947  -0.905280  2.205064
C    -2.659896  -1.969418  1.088102
O    -1.691472  -2.390655  0.399129
H    -0.858833  -1.629425  3.293798
H    -3.037406  -1.262437  3.073249
C    -3.062610  0.469658  1.822794
C    -2.874539  1.489980  2.951492
C    -3.480846  2.872749  2.680295
N    -2.760402  3.688137  1.688912
C    -1.802786  4.584059  1.966007
N    -1.445638  5.484764  1.036445
N    -1.192580  4.589863  3.157394
H    -4.135743  0.338792  1.622147
H    -2.617256  0.824938  0.883826
H    -1.802943  1.576888  3.185580
H    -3.350626  1.108111  3.867959
H    -3.537851  3.452528  3.611948
H    -4.513792  2.784196  2.317641
H    -3.066911  3.638480  0.723578
H    -2.060857  5.719181  0.266729
H    -0.614331  6.052662  1.149058
H    -1.270831  3.810465  3.797688
N    -3.877444  -2.477515  0.877516
C    -5.133167  -2.216152  1.576397
H    -3.911114  -3.163951  0.124898
H    -5.725112  -3.137165  1.582836
H    -5.716814  -1.432464  1.075287
H    -4.953482  -1.926686  2.616704
Sr    0.633902  -2.200212  -0.051653
