36
Energy: -108382.971115 eV PBE+vdW (tier 2 basis)
C    0.125935  0.348929  0.867465
C    -0.633338  0.649560  2.118637
O    -0.534382  1.767024  2.692009
H    -0.126147  1.102874  0.109779
H    -0.073594  -0.649317  0.464392
H    1.201196  0.447672  1.068252
N    -1.443149  -0.306027  2.624278
C    -2.277890  -0.094059  3.806249
C    -1.486389  -0.353635  5.103468
O    -0.908044  0.633576  5.637882
H    -1.502041  -1.195049  2.134900
H    -2.452882  0.986961  3.839621
C    -3.668401  -0.715221  3.680848
C    -4.539753  0.054683  2.670401
C    -4.570525  1.580491  2.853359
N    -4.955651  1.984141  4.211769
C    -4.507394  3.098426  4.862578
N    -5.413120  3.705421  5.666845
N    -3.250819  3.528818  4.750392
H    -4.135999  -0.680259  4.675077
H    -3.622124  -1.777886  3.395322
H    -5.562787  -0.344247  2.726669
H    -4.207712  -0.141229  1.640372
H    -5.280675  2.003261  2.125538
H    -3.602429  2.046045  2.632298
H    -5.881790  1.675704  4.495400
H    -5.123970  4.396680  6.347316
H    -6.410644  3.571988  5.549645
H    -3.239682  4.498734  5.085795
N    -1.428811  -1.584520  5.595083
C    -0.689337  -1.977848  6.795182
H    -1.948895  -2.311736  5.111269
H    0.075893  -2.718661  6.534243
H    -1.377596  -2.415161  7.527954
H    -0.212408  -1.092922  7.222277
Sr    -0.855131  2.861790  4.751748
