36
Energy: -108381.303551 eV PBE+vdW (tier 2 basis)
C    1.350814  1.104943  2.517572
C    0.449964  0.052559  3.079706
O    0.842517  -0.682307  4.040472
H    1.555620  1.841740  3.307840
H    0.927752  1.623834  1.651288
H    2.314903  0.660983  2.239471
N    -0.773520  -0.082289  2.556824
C    -1.896906  -0.887274  3.070961
C    -1.759066  -2.384387  2.673351
O    -0.758583  -3.044738  3.125389
H    -1.007205  0.535942  1.783088
H    -1.841737  -0.863133  4.172465
C    -3.208996  -0.315163  2.565437
C    -3.791576  1.007828  3.063109
C    -5.102581  1.293428  2.261690
N    -5.932714  0.106202  2.006638
C    -5.553903  -0.867606  1.083439
N    -5.093917  -0.376592  -0.121243
N    -5.513502  -2.156308  1.284706
H    -3.959970  -1.070912  2.809830
H    -3.154424  -0.288450  1.463617
H    -3.110153  1.862025  2.930830
H    -4.011934  0.940524  4.139254
H    -4.844802  1.750849  1.299378
H    -5.714267  2.027563  2.798964
H    -6.368513  -0.284878  2.837703
H    -5.031418  -1.094016  -0.837638
H    -5.527863  0.479391  -0.453536
H    -5.857047  -2.393577  2.220552
N    -2.669539  -2.965729  1.920502
C    -2.611711  -4.379668  1.543603
H    -3.547462  -2.482293  1.619595
H    -1.734409  -4.575003  0.915160
H    -3.522667  -4.606345  0.983064
H    -2.561629  -5.017234  2.434688
Sr    1.018734  -2.895925  4.517012
