36
Energy: -108382.500531 eV PBE+vdW (tier 2 basis)
C    -1.584412  1.851846  1.257836
C    -1.267976  1.225249  2.586655
O    -0.208447  1.689713  3.200001
H    -1.595128  2.944457  1.361751
H    -2.550563  1.523867  0.862758
H    -0.798730  1.608420  0.529252
N    -2.050288  0.282785  3.049293
C    -1.809874  -0.232364  4.403893
C    -0.641151  -1.228479  4.413544
O    0.544410  -0.827078  4.644561
H    -3.817974  -0.544546  0.371050
H    -1.472857  0.589360  5.064319
C    -3.113013  -0.796005  5.002653
C    -4.256232  0.244201  5.047870
C    -5.351491  0.047593  3.995023
N    -4.777431  0.016191  2.648649
C    -5.472117  -0.207896  1.540580
N    -6.814917  -0.243793  1.549481
N    -4.820825  -0.418475  0.378241
H    -2.898167  -1.155592  6.017847
H    -3.451830  -1.675804  4.430144
H    -3.845735  1.260747  4.956634
H    -4.750464  0.204322  6.026474
H    -6.074803  0.874059  4.087257
H    -5.891762  -0.894368  4.187885
H    -3.721837  0.115582  2.604037
H    -7.343050  -0.506051  0.727003
H    -7.341016  0.047431  2.362542
H    -5.302750  -0.414912  -0.510953
N    -0.876899  -2.507028  4.155595
C    0.151379  -3.544711  4.096390
H    -1.838875  -2.778690  3.979665
H    -0.325789  -4.519527  4.229540
H    0.882169  -3.387351  4.895818
H    0.668723  -3.527743  3.128213
Sr    1.579295  1.213382  4.376212
