36
Energy: -108381.393646 eV PBE+vdW (tier 2 basis)
C    0.526233  1.385077  0.310111
C    0.256563  0.758706  1.633249
O    1.179289  0.135857  2.273438
H    -0.406681  1.543944  -0.249937
H    1.216442  0.755818  -0.263065
H    1.027335  2.352408  0.469343
N    -0.963728  0.865359  2.155535
C    -1.281042  0.361745  3.486829
C    -1.201391  -1.182428  3.534876
O    -0.258216  -1.688421  4.236078
H    -1.717585  1.430763  1.666362
H    -0.443922  0.641977  4.145160
C    -2.514960  1.023949  4.157809
C    -3.863461  1.245743  3.441999
C    -3.947518  2.467338  2.516430
N    -3.167201  2.321646  1.278625
C    -3.607480  1.542352  0.163387
N    -4.907862  1.097953  0.211482
N    -2.696689  1.262174  -0.700069
H    -2.159360  2.002391  4.515715
H    -2.699238  0.437582  5.070295
H    -4.603324  1.407985  4.239403
H    -4.209825  0.352565  2.910560
H    -3.547453  3.349995  3.034073
H    -5.007865  2.698867  2.323780
H    -2.770741  3.196419  0.940506
H    -5.609737  1.684444  0.652832
H    -5.247806  0.614249  -0.613466
H    -3.067047  0.800729  -1.534753
N    -2.009669  -1.999291  2.875496
C    -3.065205  -1.724405  1.901024
H    -1.824922  -2.984983  3.064137
H    -2.904551  -0.759714  1.416194
H    -4.054045  -1.756029  2.373238
H    -3.022820  -2.503378  1.131844
Sr    1.972947  -1.258797  3.850207
