36
Energy: -108381.996102 eV PBE+vdW (tier 2 basis)
C    -0.338764  1.749949  -0.078350
C    -0.395389  0.910412  1.158133
O    0.534020  1.000891  2.043926
H    -0.321058  2.812250  0.200269
H    -1.188548  1.574229  -0.745334
H    0.589706  1.534954  -0.624372
N    -1.405512  0.083673  1.319334
C    -1.637453  -0.831840  2.427714
C    -2.628116  -1.867421  1.811442
O    -3.275938  -1.524403  0.820803
H    -2.140936  -0.043366  0.598673
H    -0.683768  -1.306927  2.705297
C    -2.276230  -0.111609  3.650121
C    -1.865091  -0.697524  5.007553
C    -0.523486  -0.177604  5.530583
N    -0.655182  1.214212  5.976466
C    0.375957  2.038567  6.304334
N    0.133782  2.956430  7.264223
N    1.546788  1.954968  5.667608
H    -3.367855  -0.141337  3.538598
H    -1.999229  0.952073  3.615034
H    -1.817014  -1.795136  4.970079
H    -2.643869  -0.483482  5.755858
H    0.226103  -0.235393  4.726170
H    -0.157312  -0.808396  6.355565
H    -1.539420  1.419253  6.433545
H    0.767320  3.731114  7.418196
H    -0.664271  2.891340  7.885166
H    2.245060  2.486082  6.196186
N    -2.746385  -3.049164  2.440436
C    -3.683041  -4.088690  2.012678
H    -2.104160  -3.270314  3.192690
H    -4.383851  -3.647519  1.299039
H    -4.235013  -4.471142  2.878480
H    -3.150692  -4.915967  1.526654
Sr    2.246568  1.391312  3.426896
