36
Energy: -108382.921668 eV PBE+vdW (tier 2 basis)
C    0.170536  0.392395  0.720955
C    -0.447421  0.250705  2.073241
O    0.110694  0.713634  3.103962
H    0.317847  1.460143  0.509401
H    -0.427485  -0.053908  -0.080250
H    1.165992  -0.071045  0.729511
N    -1.638384  -0.383962  2.174991
C    -2.331947  -0.476632  3.454799
C    -1.794879  -1.653915  4.302482
O    -0.932660  -1.405723  5.190130
H    -2.082612  -0.730731  1.329343
H    -1.994859  0.413164  4.001461
C    -3.855871  -0.354928  3.402468
C    -4.364373  0.001124  4.812512
C    -3.981166  1.435575  5.241555
N    -3.731287  1.572355  6.672973
C    -2.623151  2.129820  7.229509
N    -2.802643  2.696401  8.447201
N    -1.431000  2.098329  6.626877
H    -4.339318  -1.274131  3.040023
H    -4.123112  0.435693  2.685101
H    -3.956467  -0.712037  5.545522
H    -5.454126  -0.120645  4.847118
H    -4.778564  2.134788  4.948685
H    -3.071644  1.789062  4.740553
H    -4.543820  1.507158  7.278279
H    -2.012127  2.929899  9.033781
H    -3.719115  2.961245  8.788217
H    -0.863276  2.834258  7.062343
N    -2.244679  -2.877607  4.056457
C    -1.802583  -4.091251  4.744032
H    -2.952492  -2.985733  3.335040
H    -2.670264  -4.613488  5.163252
H    -1.118034  -3.812784  5.548298
H    -1.290008  -4.756251  4.038217
Sr    0.225054  0.651816  5.481005
