36
Energy: -108381.747207 eV PBE+vdW (tier 2 basis)
C    -0.971301  3.538484  1.201237
C    -0.726103  2.192728  1.025569
O    0.477777  1.702002  0.894662
H    -1.968337  3.939848  1.366966
H    -1.808022  1.951456  -2.345843
H    -0.217371  4.244437  0.849540
N    -1.734398  1.192343  1.164056
C    -2.830029  1.365594  2.113487
C    -2.298796  1.666096  3.541584
O    -1.074226  1.520451  3.821678
H    -1.249366  0.305325  1.320131
H    -3.423363  2.239837  1.801253
C    -3.748576  0.120656  2.088164
C    -4.728534  0.033957  0.899086
C    -4.229610  -0.573391  -0.417796
N    -3.242598  0.269250  -1.095418
C    -2.997099  0.274672  -2.406603
N    -3.592576  -0.594518  -3.236185
N    -2.146877  1.185377  -2.913310
H    -4.347644  0.109009  3.006554
H    -3.121166  -0.783861  2.146321
H    -5.165761  1.024456  0.698329
H    -5.566580  -0.603256  1.214068
H    -5.100218  -0.691708  -1.078353
H    -3.811584  -1.577898  -0.233034
H    -2.580014  0.759597  -0.465559
H    -3.547360  -0.477634  -4.241054
H    -4.086826  -1.404920  -2.887356
H    -1.777593  1.099338  -3.851634
N    -3.144904  2.092721  4.479246
C    -4.576108  2.377556  4.384650
H    -2.718894  2.215999  5.397026
H    -4.803460  3.232877  5.029567
H    -5.176714  1.520903  4.717975
H    -4.857562  2.641122  3.360822
Sr    0.949064  2.461927  2.996213
