36
Energy: -108382.325278 eV PBE+vdW (tier 2 basis)
C    -0.039002  -0.088496  1.284839
C    -1.203503  -1.022150  1.396165
O    -1.064237  -2.171630  1.904496
H    0.053887  0.516693  2.200183
H    -0.115242  0.591037  0.428903
H    0.874847  -0.686229  1.199729
N    -2.433562  -0.643167  0.965381
C    -2.953933  0.698828  1.159129
C    -3.165441  0.921509  2.689919
O    -2.947600  -0.009714  3.512146
H    -3.112877  -1.416532  0.945177
H    -2.157615  1.399406  0.864536
C    -4.174724  1.028157  0.250322
C    -5.633937  0.777560  0.685848
C    -6.217812  -0.647095  0.696519
N    -5.932845  -1.391016  1.927905
C    -5.055192  -2.393107  2.130414
N    -4.416946  -2.927475  1.024805
N    -4.673016  -2.831605  3.320834
H    -3.978587  0.539287  -0.715664
H    -4.110987  2.102623  0.026450
H    -6.247646  1.343777  -0.029930
H    -5.838124  1.248431  1.660685
H    -5.876536  -1.216381  -0.177094
H    -7.309558  -0.579512  0.598930
H    -6.350340  -1.006862  2.770197
H    -4.051271  -3.861908  1.191863
H    -4.909846  -2.874878  0.137216
H    -5.299160  -2.479966  4.052106
N    -3.546316  2.136680  3.070622
C    -3.743904  2.566961  4.455505
H    -3.659889  2.844171  2.349239
H    -4.625610  3.214009  4.510356
H    -2.869083  3.125489  4.812638
H    -3.894447  1.689075  5.088150
Sr    -2.323930  -2.316173  3.914711
