36
Energy: -108382.055912 eV PBE+vdW (tier 2 basis)
C    -1.493697  -0.912869  0.234418
C    -1.280518  0.411988  0.893517
O    -0.641601  1.327607  0.268321
H    -0.525748  -1.345812  -0.049721
H    -2.048282  -0.744025  -0.699323
H    -2.045999  -1.630935  0.846009
N    -1.746090  0.677910  2.104049
C    -2.394213  -0.170850  3.100947
C    -3.031873  0.865901  4.072040
O    -2.565715  2.015073  4.087779
H    -1.693577  1.646455  2.468790
H    -3.171771  -0.790268  2.633591
C    -1.368932  -1.070319  3.837969
C    -0.328087  -0.286372  4.669835
C    1.143617  -0.630515  4.406195
N    1.588434  -0.506803  3.001096
C    1.929290  0.608817  2.335080
N    1.520413  1.877449  2.839633
N    2.541903  0.689623  1.176271
H    -0.876057  -1.700732  3.083010
H    -1.924775  -1.762469  4.483852
H    -0.495858  -0.463331  5.740857
H    -0.496233  0.795587  4.553937
H    1.344058  -1.672934  4.682351
H    1.793274  -0.014031  5.043773
H    1.818990  -1.376982  2.530542
H    2.323027  2.408635  3.185936
H    0.810751  1.834500  3.572306
H    2.968230  -0.182896  0.859392
N    -4.013139  0.417830  4.864096
C    -4.688845  1.242574  5.864907
H    -4.352013  -0.529465  4.726751
H    -5.740876  1.387355  5.590751
H    -4.190213  2.214251  5.906192
H    -4.636019  0.760024  6.847807
Sr    1.273375  2.530271  0.171202
