36
Energy: -108380.918337 eV PBE+vdW (tier 2 basis)
C    0.115155  -0.256625  0.746639
C    -0.202953  -0.552918  2.165040
O    0.721677  -0.681751  3.037988
H    0.985231  0.404876  0.672978
H    -0.736062  0.117980  0.152341
H    0.416090  -1.219310  0.297272
N    -1.482957  -0.734085  2.572606
C    -2.592326  0.147109  2.217992
C    -2.444051  1.424038  3.067717
O    -1.426360  1.601214  3.822366
H    -1.554967  -1.161167  3.498092
H    -2.465803  0.437427  1.143708
C    -3.921951  -0.638092  2.341281
C    -5.246261  -0.020508  1.855722
C    -5.321431  0.504783  0.401316
N    -4.796276  -0.396949  -0.603319
C    -3.481477  -0.396659  -1.013345
N    -3.036635  -1.559985  -1.579846
N    -2.624077  0.578062  -0.831366
H    -4.062065  -0.947570  3.389562
H    -3.743928  -1.559611  1.770266
H    -5.596737  0.777371  2.532446
H    -5.998480  -0.814211  1.974960
H    -4.808796  1.474341  0.300013
H    -6.372755  0.715058  0.166096
H    -5.425136  -1.098556  -0.977623
H    -2.262283  -1.471135  -2.227240
H    -3.675767  -2.325402  -1.755470
H    -3.107392  1.460215  -0.647514
N    -3.368664  2.364090  2.966149
C    -3.335718  3.645864  3.673936
H    -4.162541  2.177988  2.360724
H    -4.243754  4.200674  3.424454
H    -2.462853  4.233232  3.364681
H    -3.301771  3.485786  4.757853
Sr    0.639641  0.975838  4.624646
