36
Energy: -108381.75388 eV PBE+vdW (tier 2 basis)
C    0.119850  1.621515  0.571354
C    -0.062108  0.771388  1.785389
O    0.964334  0.248042  2.349252
H    0.829246  1.148007  -0.117484
H    0.576299  2.571116  0.889995
H    -0.812492  1.845236  0.046674
N    -1.256148  0.518738  2.307528
C    -2.618587  0.902465  1.930879
C    -3.276347  1.144078  3.327068
O    -2.762981  0.581186  4.304632
H    -1.315513  0.174908  3.293375
H    -2.615943  1.817412  1.324172
C    -3.377677  -0.246992  1.223442
C    -2.957278  -0.633620  -0.203765
C    -1.732476  -1.542413  -0.398688
N    -1.836139  -2.876105  0.207321
C    -1.024315  -3.354971  1.181003
N    -0.889177  -4.695546  1.290219
N    -0.346396  -2.554981  2.009310
H    -4.432683  0.059060  1.184140
H    -3.360666  -1.128506  1.884734
H    -2.791752  0.268191  -0.813996
H    -3.817558  -1.135166  -0.671581
H    -0.809170  -1.086822  -0.023742
H    -1.582941  -1.682655  -1.479289
H    -2.422402  -3.547036  -0.280888
H    -0.632350  -5.093187  2.184393
H    -1.292726  -5.328332  0.609874
H    -0.802546  -1.636243  1.975010
N    -4.373669  1.908470  3.359354
C    -5.140968  2.174372  4.575703
H    -4.685485  2.347261  2.498670
H    -5.165964  3.251709  4.777480
H    -4.655431  1.660211  5.408996
H    -6.167051  1.803327  4.465928
Sr    1.703865  -1.811116  2.975415
