36
Energy: -108382.399139 eV PBE+vdW (tier 2 basis)
C    -1.774858  -2.525053  -0.176025
C    -0.719316  -1.506749  -0.457730
O    0.186556  -1.750796  -1.323950
H    -2.150617  -2.911224  -1.131679
H    -2.611794  -2.138880  0.412804
H    -1.330553  -3.376982  0.358280
N    -0.689655  -0.333359  0.165939
C    -1.477018  0.221695  1.264452
C    -1.096049  1.727339  1.269885
O    -0.000487  2.080540  0.785819
H    0.016643  0.343318  -0.140219
H    -2.547652  0.112277  1.037712
C    -1.198456  -0.441859  2.640699
C    0.108379  -0.126423  3.391900
C    1.431994  -0.664327  2.830674
N    1.944774  0.171568  1.741955
C    2.597162  -0.268701  0.665900
N    2.664103  0.614794  -0.459603
N    3.108680  -1.456658  0.429520
H    -1.301371  -1.530588  2.518072
H    -2.027770  -0.148050  3.300471
H    -0.001033  -0.564261  4.393776
H    0.204098  0.956997  3.570252
H    1.307904  -1.691676  2.453314
H    2.177054  -0.701483  3.638534
H    1.588506  1.128982  1.703896
H    3.621319  0.945553  -0.607191
H    2.048500  1.429330  -0.372463
H    3.179654  -2.054548  1.253547
N    -1.966613  2.555213  1.849555
C    -1.759258  3.994840  2.003702
H    -2.849681  2.172513  2.175240
H    -2.543712  4.544808  1.470552
H    -0.784852  4.254670  1.583271
H    -1.787562  4.267775  3.065320
Sr    2.399739  -1.686723  -1.894782
