36
Energy: -108382.01628 eV PBE+vdW (tier 2 basis)
C    -0.519550  2.616860  -0.983277
C    -0.267643  1.986508  0.346780
O    0.930639  1.772555  0.748660
H    -0.013425  3.590136  -1.029945
H    -1.585055  2.755186  -1.191316
H    -0.081298  1.984901  -1.767923
N    -1.294877  1.643911  1.103146
C    -1.233004  1.001620  2.411834
C    -2.702493  0.543600  2.650739
O    -3.601240  1.175627  2.098386
H    -2.270369  1.835940  0.826935
H    -0.549494  0.139218  2.351481
C    -0.775069  2.016521  3.488930
C    -0.443850  1.458725  4.877274
C    0.705045  0.456326  5.003628
N    2.046090  0.932845  4.509701
C    2.544412  2.198418  5.022585
N    2.396978  2.466158  6.326616
N    3.099599  2.947503  4.112630
H    -1.575676  2.761829  3.600118
H    0.082689  2.582372  3.093320
H    -1.329588  0.960776  5.299089
H    -0.262435  2.314283  5.543499
H    0.505526  -0.458139  4.427834
H    0.773642  0.134164  6.055568
H    2.725132  0.211165  4.779567
H    2.720737  3.341599  6.726727
H    2.019655  1.783958  6.974355
H    3.506204  3.816151  4.467590
N    -2.894246  -0.491953  3.491355
C    -4.228882  -1.005268  3.806446
H    -2.094783  -1.048673  3.771074
H    -4.529457  -1.788668  3.098449
H    -4.945206  -0.181277  3.742934
H    -4.229367  -1.413831  4.822014
Sr    2.803959  1.694803  1.992005
