36
Energy: -108382.037483 eV PBE+vdW (tier 2 basis)
C    0.043398  1.484930  0.550968
C    -0.361630  0.500904  1.602478
O    0.353049  0.363583  2.663508
H    0.109043  2.488547  0.991947
H    -0.653962  1.512410  -0.291956
H    1.042174  1.223635  0.175614
N    -1.452214  -0.210027  1.415903
C    -2.037664  -1.223277  2.284128
C    -3.249353  -1.729951  1.433043
O    -3.545744  -1.113473  0.407822
H    -2.057437  -0.097177  0.575089
H    -1.320677  -2.052195  2.404600
C    -2.446200  -0.667970  3.676977
C    -1.650486  -1.258912  4.847565
C    -1.735022  -0.376269  6.099802
N    -1.078618  -0.929254  7.274195
C    0.178832  -0.642756  7.685080
N    0.493645  -0.997618  8.950653
N    1.053393  -0.046958  6.867687
H    -3.517754  -0.844650  3.842990
H    -2.331710  0.425171  3.652167
H    -0.595104  -1.408820  4.551132
H    -2.011032  -2.269227  5.093024
H    -2.789964  -0.210374  6.359304
H    -1.315570  0.624394  5.908336
H    -1.646984  -1.499062  7.890811
H    1.451210  -0.975313  9.276261
H    -0.210506  -1.265716  9.627696
H    1.845409  0.263985  7.440232
N    -3.895003  -2.811159  1.898943
C    -5.052838  -3.402989  1.228435
H    -3.528234  -3.286278  2.716592
H    -5.883730  -3.509441  1.935291
H    -4.797418  -4.387090  0.816522
H    -5.352468  -2.739950  0.412678
Sr    1.598688  0.339576  4.531270
