36
Energy: -108382.867861 eV PBE+vdW (tier 2 basis)
C    -0.192194  -0.412636  0.750449
C    -0.126127  -0.236331  2.237135
O    0.969328  -0.324421  2.846918
H    -1.204008  -0.333400  0.339749
H    0.224986  -1.394441  0.490692
H    0.446957  0.342227  0.273150
N    -1.282489  0.010841  2.884030
C    -1.505685  0.193814  4.332665
C    -0.791918  1.480573  4.821264
O    0.421565  1.445579  5.163151
H    -2.115696  0.042827  2.305167
H    -2.587645  0.344288  4.411890
C    -1.116131  -0.987545  5.246476
C    -1.205677  -2.404418  4.682334
C    -0.512369  -3.415847  5.620979
N    0.877288  -3.055146  5.907940
C    1.961834  -3.216063  5.093650
N    2.001478  -4.331321  4.327904
N    2.886575  -2.262143  5.085309
H    -1.738859  -0.902193  6.150259
H    -0.089358  -0.819219  5.596483
H    -0.722045  -2.462300  3.696657
H    -2.250404  -2.716022  4.542421
H    -0.564587  -4.419217  5.181969
H    -1.033197  -3.477451  6.585216
H    1.046896  -2.439749  6.694194
H    2.758097  -4.459606  3.667470
H    1.512166  -5.171155  4.616837
H    3.779356  -2.630842  4.743138
N    -1.479457  2.618209  4.871548
C    -2.881705  2.857787  4.515782
H    -0.943807  3.417687  5.207814
H    -3.564287  2.309714  5.177160
H    -3.079303  2.597972  3.468728
H    -3.080750  3.925946  4.638260
Sr    2.368168  0.129005  4.661213
