36
Energy: -108381.476329 eV PBE+vdW (tier 2 basis)
C    0.521911  1.335470  1.242132
C    -0.086429  0.232707  2.046481
O    0.502249  -0.232356  3.072479
H    0.170929  2.310310  1.620064
H    0.257190  1.271754  0.181280
H    1.609833  1.306035  1.359914
N    -1.306683  -0.244368  1.710830
C    -2.427933  0.654813  1.386559
C    -2.612090  1.668411  2.547009
O    -2.343595  1.170241  3.746851
H    -1.585393  -1.055749  2.263350
H    -2.195327  1.187572  0.457103
C    -3.694630  -0.204004  1.165093
C    -5.015736  0.583552  1.096822
C    -5.667819  0.798034  2.476177
N    -6.693909  1.841292  2.472716
C    -6.648406  3.011058  3.134223
N    -7.791020  3.708746  3.276869
N    -5.512469  3.479152  3.657832
H    -3.761380  -0.953357  1.972657
H    -3.549689  -0.769938  0.235754
H    -5.717149  0.031788  0.456420
H    -4.862962  1.552255  0.604959
H    -4.931375  1.065773  3.240902
H    -6.140375  -0.137048  2.812151
H    -7.552163  1.642587  1.967999
H    -7.779751  4.682137  3.554171
H    -8.697040  3.282609  3.126292
H    -4.554019  3.216489  3.313837
N    -3.044404  2.873674  2.415349
C    -3.190984  3.548067  1.133974
H    -5.564468  4.289769  4.263675
H    -2.671215  4.513872  1.193280
H    -4.248555  3.781526  0.938619
H    -2.802452  3.007981  0.257819
Sr    -0.690625  0.389894  5.000755
