36
Energy: -108382.250009 eV PBE+vdW (tier 2 basis)
C    0.467205  1.069742  0.569211
C    0.569224  0.095942  1.697801
O    1.713743  -0.246970  2.145990
H    1.215396  1.857674  0.713642
H    -0.524643  1.522080  0.475143
H    0.710925  0.565097  -0.377322
N    -0.516781  -0.433876  2.254396
C    -1.915713  -0.424073  1.833790
C    -2.680425  -1.073674  3.013937
O    -2.102747  -1.910399  3.737819
H    -0.373013  -1.057831  3.056020
H    -2.258382  0.614742  1.723134
C    -2.183777  -1.171640  0.483475
C    -1.242195  -2.305033  0.037583
C    -1.216708  -3.628343  0.826297
N    -0.578571  -3.557624  2.143279
C    0.725930  -3.559353  2.420767
N    1.695176  -3.672264  1.378310
N    1.278129  -3.368154  3.605032
H    -2.162221  -0.417033  -0.314351
H    -3.219455  -1.541423  0.507803
H    -0.215278  -1.917604  -0.066724
H    -1.551071  -2.565315  -0.985853
H    -0.720564  -4.404763  0.226562
H    -2.237829  -3.994693  0.995886
H    -1.184009  -3.187658  2.897543
H    2.201963  -4.557755  1.456862
H    1.315547  -3.602741  0.434510
H    0.612488  -3.411941  4.379570
N    -3.953006  -0.701886  3.166838
C    -4.853254  -1.250809  4.180474
H    -4.319365  0.025407  2.559374
H    -5.198178  -0.450947  4.846250
H    -4.309054  -1.998020  4.763024
H    -5.721107  -1.717961  3.699841
Sr    3.096006  -1.900711  2.932189
