36
Energy: -108382.132568 eV PBE+vdW (tier 2 basis)
C    -0.467779  0.511169  0.332116
C    -0.409102  0.135681  1.796861
O    0.402023  -0.812775  2.122331
H    -0.247562  1.574189  0.174273
H    -1.467276  0.319757  -0.084833
H    0.258900  -0.090842  -0.220313
N    -1.162482  0.640949  2.777637
C    -2.458730  1.280528  2.545791
C    -3.438052  0.144579  2.131432
O    -3.209476  -1.019984  2.566646
H    2.493045  4.870982  -1.198638
H    -2.825524  1.545121  3.555973
C    -2.525124  2.607207  1.757437
C    -1.773529  3.765421  2.444443
C    -0.253634  3.832779  2.270703
N    0.105561  4.277302  0.913015
C    1.347191  4.273232  0.404821
N    2.374350  3.818777  1.133066
N    1.558347  4.688140  -0.853424
H    -3.579337  2.923258  1.718137
H    -2.202444  2.483716  0.715079
H    -1.969098  3.730341  3.526067
H    -2.203561  4.723572  2.111395
H    0.195259  2.846797  2.454184
H    0.152655  4.544052  3.008010
H    -0.580555  4.850949  0.430813
H    3.295585  3.704724  0.727468
H    2.289422  3.681966  2.131967
H    0.789938  4.921594  -1.469894
N    -4.502598  0.417178  1.382333
C    -5.539009  -0.550133  1.021490
H    -4.628938  1.373921  1.069221
H    -5.711518  -0.519133  -0.060158
H    -6.475648  -0.314313  1.541922
H    -5.205327  -1.548930  1.311441
Sr    -1.152073  -1.641523  3.662542
