36
Energy: -108381.331276 eV PBE+vdW (tier 2 basis)
C    0.377157  0.333771  0.119872
C    0.218892  0.157156  1.593580
O    1.202728  0.408134  2.373567
H    -0.514828  0.061477  -0.455333
H    1.229430  -0.264362  -0.228771
H    0.629130  1.385575  -0.078095
N    -0.954894  -0.252674  2.067773
C    -1.352563  -0.297596  3.484462
C    -0.757590  -1.526515  4.203836
O    0.476194  -1.531055  4.514106
H    -1.759734  -0.362830  1.394154
H    -0.863718  0.554781  3.985769
C    -2.874271  -0.047115  3.603090
C    -3.929941  -1.051789  3.066075
C    -3.691496  -1.740209  1.714124
N    -3.327459  -0.772127  0.670856
C    -2.869235  -1.170912  -0.625718
N    -2.392209  -2.471858  -0.691794
N    -2.719921  -0.374494  -1.614834
H    -3.034712  0.922615  3.110974
H    -3.095693  0.135282  4.664223
H    -4.875777  -0.491004  3.022118
H    -4.150365  -1.841998  3.804333
H    -4.595562  -2.317886  1.458157
H    -2.861394  -2.459356  1.789988
H    -3.994713  -0.005538  0.588551
H    -2.103234  -2.698400  -1.641591
H    -2.982260  -3.200017  -0.298474
H    -3.016413  0.585280  -1.419329
N    -1.532036  -2.549186  4.516808
C    -1.072024  -3.747195  5.222981
H    -2.516001  -2.485898  4.270729
H    -1.942220  -4.363916  5.461436
H    -0.561998  -3.466842  6.151501
H    -0.382954  -4.323101  4.593275
Sr    2.405099  -0.356886  4.095970
