36
Energy: -108381.160874 eV PBE+vdW (tier 2 basis)
C    1.795121  -0.590046  1.737798
C    0.899943  -0.136030  2.841661
O    1.086253  0.986549  3.411331
H    1.543700  -1.585345  1.357597
H    2.835899  -0.588448  2.087909
H    1.734358  0.134030  0.912982
N    -0.114793  -0.921649  3.221717
C    -1.143776  -0.524016  4.199289
C    -0.517652  -0.454545  5.607810
O    -0.283806  0.710717  6.095017
H    -0.258246  -1.793679  2.717223
H    -1.403253  0.521497  3.969176
C    -2.421704  -1.371295  4.027334
C    -3.732363  -0.661633  4.402269
C    -3.944803  -0.306318  5.887241
N    -3.686088  -1.385524  6.839383
C    -4.160416  -2.687333  6.655199
N    -5.504114  -2.763402  6.369701
N    -3.306995  -3.658296  6.729042
H    -2.346013  -2.322097  4.569167
H    -2.485213  -1.624895  2.957624
H    -4.545777  -1.331393  4.090302
H    -3.853091  0.254375  3.800949
H    -4.973471  0.065993  5.999262
H    -3.302249  0.532250  6.194433
H    -2.739819  -1.421113  7.199383
H    -5.905333  -3.691253  6.293390
H    -6.116899  -2.083020  6.808426
H    -3.756945  -4.576182  6.770148
N    -0.177103  -1.529238  6.296697
C    -0.300003  -2.958010  5.976642
H    0.213990  -1.314741  7.214947
H    -1.304736  -3.336621  6.274100
H    -0.122025  -3.133089  4.911758
H    0.472203  -3.486831  6.544109
Sr    0.882662  2.432221  5.159972
