36
Energy: -108380.980845 eV PBE+vdW (tier 2 basis)
C    -4.137423  1.048178  -1.338737
C    -2.809065  1.475449  -0.807292
O    -2.492414  2.706943  -0.753066
H    -4.911620  1.158007  -0.562725
H    -4.141042  0.012183  -1.691182
H    -4.414382  1.720584  -2.159582
N    -1.935858  0.554901  -0.344745
C    -2.326459  -0.557493  0.534523
C    -3.046609  0.049218  1.755707
O    -2.833262  1.275979  2.075611
H    -1.005006  0.924644  -0.146093
H    -3.016256  -1.228292  0.002617
C    -1.061599  -1.336047  0.950982
C    -0.429976  -2.100805  -0.225866
C    -1.026148  -3.503458  -0.473398
N    -0.506087  -4.546449  0.385371
C    -1.029845  -4.896637  1.605816
N    -0.446652  -6.016799  2.154737
N    -1.954454  -4.166485  2.165334
H    -1.324950  -2.053292  1.745193
H    -0.349942  -0.613207  1.385244
H    -0.508781  -1.510477  -1.153819
H    0.645828  -2.213052  -0.033668
H    -0.811890  -3.795257  -1.510286
H    -2.121749  -3.495116  -0.368745
H    0.350761  -5.002413  0.098566
H    -0.827011  -6.355318  3.029635
H    -0.111322  -6.748355  1.537247
H    -2.306493  -4.631790  3.004661
N    -3.879992  -0.688572  2.459196
C    -4.315275  -2.066764  2.185311
H    -4.281552  -0.224476  3.273551
H    -4.994266  -2.083666  1.321914
H    -4.868520  -2.416124  3.061286
H    -3.454398  -2.742689  2.021829
Sr    -2.362624  3.426410  1.452548
