36
Energy: -108380.763367 eV PBE+vdW (tier 2 basis)
C    -0.134278  -0.129729  0.736392
C    -1.292370  0.382155  1.535745
O    -1.135485  1.395483  2.297308
H    -0.395772  -0.226901  -0.324248
H    0.183668  -1.123241  1.084120
H    0.705109  0.563726  0.837943
N    -2.502189  -0.208840  1.492424
C    -2.752040  -1.653325  1.437502
C    -2.130855  -2.283154  2.696976
O    -1.439799  -1.568358  3.509339
H    -3.288293  0.346861  1.855453
H    -3.855124  -1.732532  1.603506
C    -2.450986  -2.340399  0.083627
C    -2.959874  -1.607409  -1.173913
C    -4.482786  -1.423362  -1.364730
N    -5.062380  -0.308221  -0.625617
C    -5.501183  -0.381494  0.667746
N    -5.477921  0.835431  1.372702
N    -5.788882  -1.452172  1.344070
H    -2.905828  -3.338386  0.109538
H    -1.372133  -2.513380  -0.029444
H    -2.594579  -2.192251  -2.031002
H    -2.482214  -0.619991  -1.264370
H    -5.026322  -2.347675  -1.123292
H    -4.676361  -1.241684  -2.429217
H    -4.975453  0.606400  -1.054832
H    -6.174451  0.834232  2.116148
H    -5.557040  1.676369  0.804138
H    -5.871174  -2.266257  0.729828
N    -2.366115  -3.548431  3.011113
C    -3.263778  -4.518305  2.375446
H    -1.903510  -3.856586  3.865339
H    -2.747016  -5.086740  1.592842
H    -4.144662  -4.014437  1.965490
H    -3.601202  -5.216130  3.147965
Sr    -1.024978  0.502774  4.422913
