36
Energy: -108380.170538 eV PBE+vdW (tier 2 basis)
C    -0.077980  1.721868  -0.480021
C    -0.394121  0.635241  0.493988
O    0.500410  -0.184105  0.873187
H    0.347632  2.592847  0.043847
H    -0.954242  2.053236  -1.046470
H    0.692568  1.357065  -1.169222
N    -1.639880  0.523245  1.008405
C    -2.423609  1.665416  1.478364
C    -1.622853  2.337482  2.624446
O    -0.635660  1.721603  3.156583
H    -1.800376  -0.336218  1.535210
H    -2.536138  2.387926  0.656350
C    -3.820335  1.206225  1.951991
C    -4.824933  0.886600  0.836892
C    -4.554685  -0.390873  0.014641
N    -5.691520  -0.803477  -0.796351
C    -6.933007  -1.088276  -0.191780
N    -6.812473  -1.842613  0.978417
N    -8.088627  -0.713311  -0.596049
H    -4.243959  1.992515  2.590287
H    -3.692147  0.333623  2.616842
H    -4.926628  1.752935  0.163564
H    -5.802517  0.760953  1.324435
H    -4.288557  -1.210899  0.700974
H    -3.701940  -0.261040  -0.667328
H    -5.800347  -0.278858  -1.659602
H    -7.735429  -2.086791  1.331964
H    -6.225664  -2.669206  0.883377
H    -8.049203  -0.064139  -1.386366
N    -1.957227  3.542244  3.054249
C    -3.023062  4.432628  2.585307
H    -1.406190  3.880137  3.844152
H    -2.641105  5.459070  2.583504
H    -3.890465  4.378958  3.255699
H    -3.334300  4.175043  1.569582
Sr    1.057316  0.144347  3.106284
