36
Energy: -108381.653613 eV PBE+vdW (tier 2 basis)
C    -0.479572  0.489662  0.206850
C    -0.423184  0.083113  1.644585
O    0.673277  -0.367329  2.132329
H    0.215865  1.323980  0.039754
H    -1.483742  0.792553  -0.106073
H    -0.131300  -0.343975  -0.417280
N    -1.530039  0.215540  2.364396
C    -1.788408  -0.253706  3.739909
C    -0.867365  0.421921  4.763639
O    0.279378  -0.062145  5.040670
H    -2.452443  0.381566  1.838754
H    -2.800091  0.104228  3.946441
C    -1.820993  -1.792287  3.900295
C    -2.665662  -2.545613  2.857621
C    -4.205930  -2.552439  2.996648
N    -4.870160  -1.273927  3.253703
C    -4.724618  -0.146685  2.489007
N    -5.222162  1.017754  3.043432
N    -4.029949  -0.051037  1.382991
H    -2.174216  -2.010279  4.919771
H    -0.796038  -2.192036  3.845745
H    -2.374825  -3.604873  2.904883
H    -2.369041  -2.218873  1.851954
H    -4.480121  -3.195108  3.842793
H    -4.618267  -3.039935  2.097227
H    -5.650918  -1.310728  3.900462
H    -5.454872  1.728920  2.356168
H    -5.898138  0.941629  3.796559
H    -3.866070  -0.974340  0.977799
N    -1.270690  1.517660  5.391982
C    -2.501568  2.298247  5.256463
H    -0.601181  1.864758  6.080601
H    -3.103336  1.960320  4.408591
H    -2.235957  3.350146  5.097837
H    -3.092589  2.219015  6.177616
Sr    2.026426  -0.888008  3.827447
