36
Energy: -108381.511189 eV PBE+vdW (tier 2 basis)
C    0.459538  0.523143  0.415025
C    -0.303478  0.488736  1.699244
O    -0.174568  1.423959  2.550219
H    0.149330  1.414370  -0.149293
H    0.303819  -0.363137  -0.208530
H    1.530944  0.635769  0.624533
N    -1.132447  -0.538195  1.922956
C    -2.095536  -0.669458  3.034684
C    -1.358184  -1.123342  4.316032
O    -0.734664  -0.229963  4.992365
H    -1.181935  -1.254062  1.201428
H    -2.469319  0.343224  3.254949
C    -3.260091  -1.557167  2.585204
C    -4.461525  -1.553631  3.551086
C    -5.317920  -2.849908  3.497937
N    -5.121330  -3.765427  4.618618
C    -3.938558  -4.393326  4.950449
N    -3.052049  -4.622271  3.856126
N    -3.529662  -4.767410  6.107774
H    -2.893010  -2.583549  2.434284
H    -3.587491  -1.201074  1.597446
H    -5.095048  -0.685899  3.321583
H    -4.128124  -1.420186  4.591217
H    -5.156549  -3.374311  2.543169
H    -6.381932  -2.589013  3.504633
H    -5.732247  -3.606495  5.412751
H    -2.426421  -5.381983  4.130378
H    -3.539255  -4.895981  3.001589
H    -4.174756  -4.520201  6.862219
N    -1.372239  -2.385890  4.668991
C    -0.709953  -2.924297  5.858924
H    -1.939349  -3.080191  4.130039
H    0.269593  -3.340751  5.587764
H    -1.348810  -3.721326  6.261927
H    -0.574300  -2.133262  6.601255
Sr    0.133117  1.844666  4.764011
