36
Energy: -108382.213911 eV PBE+vdW (tier 2 basis)
C    2.574887  -0.536957  1.469702
C    1.499233  -0.561401  2.514096
O    1.711038  -1.146110  3.621101
H    2.306753  0.033696  0.574579
H    2.796924  -1.572787  1.177042
H    3.496444  -0.122898  1.897780
N    0.336629  0.032736  2.222287
C    -0.949197  0.052078  2.959901
C    -0.944468  0.976460  4.193728
O    -0.021544  0.773010  5.101874
H    0.308172  0.488447  1.315485
H    -1.634252  0.513518  2.240490
C    -1.483737  -1.368253  3.296687
C    -2.962610  -1.607284  2.939202
C    -4.012627  -0.754352  3.675431
N    -4.108406  0.626917  3.211186
C    -5.018486  1.118215  2.377781
N    -5.925151  0.345404  1.752007
N    -5.029007  2.443936  2.138421
H    -1.328751  -1.579251  4.366735
H    -0.889048  -2.111335  2.749173
H    -3.184590  -2.660741  3.164055
H    -3.100475  -1.494479  1.852105
H    -3.781629  -0.712560  4.750353
H    -4.996963  -1.237606  3.608688
H    -3.319621  1.264925  3.550514
H    -6.732561  0.754093  1.297999
H    -5.936889  -0.656360  1.883798
H    -5.598726  2.848900  1.407431
N    -1.907051  1.836030  4.266153
C    -1.998092  2.677025  5.455903
H    -4.410435  3.060515  2.649024
H    -1.712780  2.147801  6.376562
H    -3.025076  3.045504  5.562796
H    -1.340162  3.553082  5.356157
Sr    1.603531  -0.511226  5.814579
