36
Energy: -108382.083542 eV PBE+vdW (tier 2 basis)
C    -1.844694  -1.367514  -0.350315
C    -1.127161  -1.278913  0.965499
O    0.100805  -1.397203  1.067464
H    -1.550830  -0.502770  -0.961372
H    -2.936735  -1.380111  -0.260412
H    -1.509008  -2.264613  -0.883202
N    -1.897981  -1.058227  2.082440
C    -1.320541  -0.657495  3.365656
C    -0.666875  -1.828814  4.139418
O    -0.945446  -2.035747  5.371760
H    -2.899695  -0.971434  1.957596
H    -0.480119  0.021989  3.134745
C    -2.332459  0.126113  4.213205
C    -3.678712  -0.561179  4.506949
C    -4.508024  0.161994  5.570522
N    -4.109637  -0.164492  6.999225
C    -4.864180  -1.262230  7.567322
N    -6.130767  -1.023454  7.938441
N    -4.201707  -2.380362  7.671366
H    -2.527697  1.079300  3.700302
H    -1.826095  0.414994  5.149201
H    -3.557973  -1.622280  4.777469
H    -4.295085  -0.575036  3.595826
H    -5.574255  -0.065649  5.432043
H    -4.396964  1.248713  5.461738
H    -4.278311  0.674232  7.561521
H    -6.702579  -1.744697  8.368110
H    -6.582602  -0.132183  7.765678
H    -4.751779  -3.169647  8.018254
N    0.220266  -2.540082  3.486364
C    0.968220  -3.659373  4.047268
H    0.399042  -2.210032  2.503711
H    0.291634  -4.370550  4.535346
H    1.708261  -3.307012  4.778172
H    1.492356  -4.165428  3.232390
Sr    -1.854772  -1.682357  7.400783
