36
Energy: -108382.331264 eV PBE+vdW (tier 2 basis)
C    0.534300  -0.423659  1.052861
C    0.276908  0.246122  2.362652
O    1.205986  0.550539  3.151975
H    -0.276498  -1.098563  0.756816
H    1.477015  -0.976274  1.121525
H    0.659893  0.334265  0.263313
N    -1.000610  0.584700  2.718712
C    -2.028491  1.061526  1.796738
C    -1.479334  2.313405  1.074133
O    -0.618442  3.024067  1.674178
H    -1.103397  0.861964  3.700366
H    -2.279459  0.263914  1.084514
C    -3.295416  1.504451  2.561798
C    -3.876325  0.508251  3.575319
C    -3.241662  0.515252  4.975898
N    -3.194559  1.842726  5.602511
C    -2.084286  2.409424  6.144515
N    -2.280304  3.148377  7.260473
N    -0.874430  2.259644  5.586175
H    -4.059361  1.732995  1.807371
H    -3.084954  2.458148  3.073213
H    -3.839764  -0.521049  3.189046
H    -4.945049  0.742277  3.685778
H    -2.224259  0.109175  4.992822
H    -3.832040  -0.148983  5.624272
H    -4.079574  2.180202  5.971272
H    -1.567127  3.782417  7.597920
H    -3.101927  3.033294  7.843296
H    -0.190536  2.357209  6.347626
N    -1.933859  2.662378  -0.122231
C    -2.941794  2.005730  -0.956144
H    -1.557885  3.544322  -0.471823
H    -3.925497  2.472751  -0.817431
H    -3.011580  0.939659  -0.722737
H    -2.648839  2.107679  -2.006148
Sr    0.648590  2.838398  3.685824
