36
Energy: -108380.474615 eV PBE+vdW (tier 2 basis)
C    -0.641334  -0.653491  -0.849777
C    -0.281712  -0.150962  0.492825
O    0.933073  0.163712  0.747762
H    -0.942223  -1.718211  -0.880438
H    0.217407  -0.531490  -1.515963
H    -1.510193  -0.120614  -1.265224
N    -1.188636  0.062359  1.490721
C    -2.173367  -0.882784  2.037420
C    -1.387849  -1.948949  2.848558
O    -0.144480  -2.140165  2.624939
H    -0.773709  0.637302  2.224947
H    -2.766797  -0.290997  2.751270
C    -3.150470  -1.540643  1.045100
C    -4.048261  -0.547119  0.298905
C    -5.039468  -1.247182  -0.662166
N    -4.456260  -2.292641  -1.501522
C    -3.315140  -2.113060  -2.272955
N    -3.196761  -0.853358  -2.851267
N    -2.358486  -2.968468  -2.448635
H    -3.779854  -2.232891  1.623663
H    -2.596610  -2.171735  0.338363
H    -3.434112  0.162875  -0.270001
H    -4.629995  0.053614  1.015401
H    -5.529638  -0.478308  -1.277009
H    -5.846323  -1.725566  -0.091633
H    -4.554405  -3.236873  -1.146861
H    -2.513287  -0.857513  -3.604463
H    -4.069238  -0.414657  -3.134355
H    -2.533854  -3.840069  -1.940172
N    -1.998468  -2.659183  3.784353
C    -3.383050  -2.586969  4.258666
H    -1.409602  -3.362102  4.231897
H    -3.383582  -2.736247  5.343590
H    -3.992845  -3.372654  3.794839
H    -3.822667  -1.608835  4.045265
Sr    1.968298  -1.444049  1.995874
