36
Energy: -108383.096369 eV PBE+vdW (tier 2 basis)
C    -0.229620  3.221166  2.108758
C    -0.408722  1.824570  2.618672
O    0.310044  0.885302  2.191569
H    -0.407551  3.224948  1.024734
H    0.812952  3.528510  2.262846
H    -0.893538  3.952624  2.580857
N    -1.366697  1.618523  3.547680
C    -1.792702  0.324118  4.115653
C    -0.659767  -0.296779  4.961062
O    0.181651  -1.081145  4.443486
H    -1.911840  2.431250  3.818196
H    -2.608983  0.579130  4.803320
C    -2.369277  -0.635057  3.059726
C    -2.834780  -1.991449  3.631966
C    -2.081112  -3.210958  3.087109
N    -2.214620  -3.368401  1.642363
C    -1.200830  -3.472676  0.742982
N    -1.517207  -4.070869  -0.430933
N    0.012909  -2.984713  0.992872
H    -1.656214  -0.791539  2.238839
H    -3.210680  -0.106505  2.593387
H    -3.907613  -2.121469  3.434587
H    -2.743865  -2.015245  4.729165
H    -2.461720  -4.118355  3.579858
H    -1.012897  -3.159832  3.325497
H    -3.129515  -3.660449  1.313945
H    -0.884199  -4.034418  -1.218983
H    -2.345135  -4.644006  -0.538020
H    0.645741  -3.346467  0.272601
N    -0.589314  0.006728  6.255185
C    -1.454549  0.896615  7.035172
H    0.184293  -0.437310  6.748588
H    -1.426399  1.922569  6.648316
H    -1.080243  0.914095  8.062346
H    -2.489007  0.531658  7.060301
Sr    1.194424  -1.288366  2.323421
