36
Energy: -108381.555303 eV PBE+vdW (tier 2 basis)
C    -0.202547  2.076645  0.915814
C    -0.227904  0.795316  1.687969
O    0.696578  -0.065113  1.514381
H    -1.041753  2.736868  1.156158
H    -0.214533  1.844431  -0.157994
H    0.739284  2.604655  1.115447
N    -1.233778  0.601067  2.539366
C    -1.572957  -0.608692  3.321378
C    -0.558010  -0.865004  4.441539
O    0.582267  -1.383552  4.182453
H    -1.955345  1.340218  2.580037
H    -2.522655  -0.333587  3.797204
C    -1.836258  -1.883649  2.492586
C    -2.778874  -1.768902  1.279214
C    -4.244711  -1.335930  1.513494
N    -4.437092  0.105000  1.605837
C    -4.356855  0.827078  2.769481
N    -3.893590  2.149561  2.596728
N    -4.508540  0.402625  3.981149
H    -2.234402  -2.629860  3.197943
H    -0.887500  -2.307500  2.124505
H    -2.804613  -2.768439  0.820392
H    -2.336249  -1.107970  0.517631
H    -4.661854  -1.818790  2.407718
H    -4.851022  -1.698994  0.674044
H    -4.395625  0.612656  0.728684
H    -4.172401  2.732734  3.385579
H    -4.167876  2.592195  1.720613
H    -4.889959  -0.546100  4.008412
N    -0.859918  -0.575613  5.696424
C    -2.055998  0.028861  6.292215
H    -0.118155  -0.819357  6.355855
H    -2.495825  -0.680168  7.004323
H    -2.809477  0.293485  5.540063
H    -1.758145  0.932809  6.837436
Sr    2.036226  -1.613123  2.458367
