36
Energy: -108381.913469 eV PBE+vdW (tier 2 basis)
C    1.515992  1.089763  1.413034
C    1.123870  0.773741  2.821520
O    1.790678  1.231659  3.801504
H    0.984133  1.991968  1.070751
H    1.275448  0.274998  0.721849
H    2.589490  1.301632  1.382024
N    0.029884  0.017731  3.056407
C    -1.236160  0.218722  2.334028
C    -1.671219  1.705375  2.484181
O    -1.138839  2.387185  3.478851
H    -0.091145  -0.221761  4.041429
H    -1.070060  0.024594  1.266034
C    -2.250773  -0.800968  2.896304
C    -3.698841  -0.761059  2.385291
C    -3.928320  -1.046768  0.896974
N    -3.605832  0.120681  0.075089
C    -3.831611  0.203056  -1.230454
N    -4.367373  -0.817624  -1.919430
N    -3.487854  1.330246  -1.889446
H    -2.291492  -0.670997  3.990840
H    -1.828641  -1.802368  2.720746
H    -4.181440  0.190929  2.647845
H    -4.244622  -1.534074  2.943040
H    -4.990510  -1.308589  0.762985
H    -3.327575  -1.917004  0.579491
H    -3.209437  0.969463  0.584681
H    -4.531570  -0.757501  -2.916154
H    -4.644074  -1.673629  -1.458383
H    -3.780002  1.488989  -2.845022
N    -2.515495  2.149552  1.618334
C    -3.006223  3.518528  1.746641
H    -3.171062  2.136038  -1.366308
H    -3.921555  3.632274  1.154366
H    -3.231223  3.790066  2.787644
H    -2.267338  4.239892  1.363664
Sr    0.524884  2.908820  4.843172
