36
Energy: -108381.699092 eV PBE+vdW (tier 2 basis)
C    -0.421460  -0.056246  3.108001
C    -1.903012  0.068008  3.004991
O    -2.579729  0.730047  3.831824
H    -0.122970  -0.333355  4.125618
H    -0.005951  0.946245  2.917272
H    0.010913  -0.740871  2.372397
N    -2.575441  -0.532472  1.966835
C    -2.492094  -1.958699  1.585772
C    -1.887563  -2.754156  2.748760
O    -2.398513  -2.553191  3.892083
H    -3.493730  -0.112174  1.798925
H    -3.530707  -2.284049  1.730465
C    -2.209441  -2.230199  0.104278
C    -3.187655  -3.257349  -0.520497
C    -4.648876  -3.261743  0.002512
N    -5.293616  -1.945327  0.108715
C    -5.579268  -1.265823  1.249074
N    -5.769661  0.090023  1.120282
N    -5.558340  -1.759400  2.484484
H    -1.170460  -2.529756  -0.100475
H    -2.321835  -1.265639  -0.407697
H    -2.823310  -4.285587  -0.376961
H    -3.191142  -3.100995  -1.607546
H    -4.709696  -3.749904  0.983811
H    -5.254415  -3.887964  -0.665675
H    -5.532033  -1.494256  -0.770384
H    -6.448518  0.505618  1.751122
H    -5.764415  0.506185  0.193590
H    -5.684143  -2.775323  2.459911
N    -0.947045  -3.655648  2.515207
C    -0.371831  -4.554353  3.516670
H    -0.591123  -3.720147  1.564681
H    0.697327  -4.341312  3.636316
H    -0.495000  -5.594577  3.193654
H    -0.884736  -4.399383  4.468512
Sr    -4.174831  -0.996947  4.490395
