36
Energy: -108382.921456 eV PBE+vdW (tier 2 basis)
C    -0.711242  0.532230  -0.271286
C    -0.456570  0.428808  1.200836
O    0.714423  0.326240  1.648191
H    -0.194258  1.421497  -0.656873
H    -1.772352  0.595365  -0.533258
H    -0.266371  -0.336832  -0.773178
N    -1.527858  0.449058  2.022060
C    -1.534528  0.433233  3.499057
C    -0.549138  1.485594  4.073387
O    0.596388  1.160311  4.475399
H    -2.436334  0.516065  1.573329
H    -2.542157  0.780578  3.761855
C    -1.338797  -0.955946  4.173207
C    -0.693185  -2.083642  3.346920
C    0.065510  -3.095731  4.201856
N    1.294582  -2.509832  4.860801
C    2.520672  -3.127187  4.458766
N    2.969749  -4.158871  5.196192
N    3.093242  -2.584134  3.419433
H    -2.320598  -1.303431  4.518274
H    -0.747713  -0.777070  5.081976
H    -0.011429  -1.702424  2.573034
H    -1.464638  -2.627151  2.783571
H    0.375597  -3.943367  3.577094
H    -0.583176  -3.499960  4.990668
H    1.192067  -2.543935  5.875412
H    3.865444  -4.595496  5.001979
H    2.386186  -4.611066  5.890578
H    3.903029  -3.104195  3.073569
N    -0.999229  2.735738  4.144343
C    -0.227731  3.866912  4.658033
H    -1.943262  2.923932  3.819493
H    0.522833  3.499386  5.362995
H    -0.905518  4.554442  5.173506
H    0.270150  4.402486  3.839013
Sr    2.219213  -0.224606  3.397766
