36
Energy: -108381.813648 eV PBE+vdW (tier 2 basis)
C    0.560424  -1.138116  1.464906
C    -0.216392  -1.798222  2.559664
O    0.377738  -2.420467  3.495502
H    0.769085  -0.090158  1.733365
H    0.020555  -1.139886  0.511980
H    1.519977  -1.652487  1.351076
N    -1.563236  -1.711166  2.569033
C    -2.278074  -0.458917  2.274409
C    -1.768228  0.637513  3.261934
O    -1.125018  0.215898  4.332635
H    -1.997801  -2.273093  3.302005
H    -2.025016  -0.143136  1.253466
C    -3.803568  -0.730515  2.376912
C    -4.724159  -0.082096  1.328956
C    -4.982074  1.427380  1.450330
N    -3.868543  2.262576  1.013276
C    -3.785305  2.916402  -0.137814
N    -4.676023  2.754304  -1.133609
N    -2.755819  3.766193  -0.333912
H    -4.152381  -0.468988  3.387963
H    -3.940141  -1.816679  2.271579
H    -5.700899  -0.579021  1.422141
H    -4.361118  -0.317445  0.315865
H    -5.188235  1.689745  2.498679
H    -5.890265  1.698079  0.895363
H    -3.040608  2.246251  1.689353
H    -4.740582  3.423169  -1.890722
H    -5.409117  2.061437  -1.072472
H    -2.583366  4.190488  -1.235646
N    -2.010200  1.866376  2.964888
C    -1.600431  2.907863  3.902553
H    -2.192891  4.075762  0.446613
H    -2.081239  3.853523  3.627146
H    -0.510764  3.063856  3.872004
H    -1.876775  2.669858  4.939742
Sr    0.213586  -1.143801  5.452859
