36
Energy: -108382.168384 eV PBE+vdW (tier 2 basis)
C    0.497559  0.854514  0.296627
C    0.298291  1.312263  1.703648
O    1.173807  1.980649  2.314299
H    0.224461  1.664690  -0.397666
H    -0.091809  -0.034234  0.048376
H    1.563103  0.650930  0.141667
N    -0.861988  1.021107  2.361155
C    -2.191570  1.125066  1.762144
C    -2.325201  2.542377  1.147774
O    -1.624813  3.482798  1.629783
H    -0.827301  1.321180  3.338431
H    -2.300677  0.349610  0.992476
C    -3.323374  0.966596  2.818784
C    -3.197028  -0.148132  3.872815
C    -2.200196  -0.003546  5.039973
N    -2.389280  1.113447  5.988652
C    -1.651925  2.262441  5.973560
N    -1.227874  2.748466  7.154188
N    -1.349321  2.904540  4.839489
H    -4.245797  0.780461  2.251927
H    -3.507902  1.933498  3.315400
H    -2.955895  -1.100396  3.375886
H    -4.199984  -0.283550  4.302438
H    -1.157943  0.009834  4.695932
H    -2.286891  -0.920133  5.637976
H    -2.777937  0.848960  6.889160
H    -0.967965  3.723140  7.235587
H    -1.243951  2.195500  8.002931
H    -2.102176  2.683555  4.181519
N    -3.185224  2.773236  0.163858
C    -4.096195  1.844240  -0.507096
H    -3.241834  3.751015  -0.122466
H    -4.149447  2.110163  -1.567890
H    -5.103695  1.908254  -0.076280
H    -3.734347  0.815013  -0.431118
Sr    0.138508  3.970610  3.199695
