36
Energy: -108381.478559 eV PBE+vdW (tier 2 basis)
C    2.304540  -0.892543  0.931595
C    1.127413  -1.345608  1.733892
O    1.229983  -2.373197  2.489830
H    2.090149  -0.006334  0.326126
H    2.633723  -1.715055  0.281794
H    3.140729  -0.669053  1.607839
N    -0.000647  -0.653463  1.629284
C    -1.329111  -0.968863  2.191559
C    -1.358322  -0.866424  3.723324
O    -0.903287  -1.785299  4.474466
H    -0.062582  0.071303  0.866441
H    -1.947123  -0.140634  1.821279
C    -1.980916  -2.281906  1.666346
C    -3.400369  -2.043692  1.105579
C    -3.481478  -1.754612  -0.419925
N    -2.377538  -0.989657  -0.994255
C    -1.950013  0.255972  -0.610718
N    -2.874259  1.028326  0.087159
N    -0.738323  0.722074  -0.748574
H    -2.038748  -3.018241  2.482485
H    -1.329362  -2.715729  0.895426
H    -3.872629  -1.225407  1.668878
H    -4.026818  -2.925968  1.293594
H    -4.449530  -1.279583  -0.640662
H    -3.493131  -2.704661  -0.967335
H    -1.704308  -1.516467  -1.536631
H    -2.607530  2.010486  0.075428
H    -3.847282  0.898683  -0.178756
H    -0.162651  0.087155  -1.310468
N    -1.917450  0.223433  4.227575
C    -2.069723  0.519211  5.651238
H    -2.252562  0.920067  3.566115
H    -2.010411  -0.410239  6.222783
H    -1.281864  1.207277  5.984366
H    -3.045239  0.988575  5.814811
Sr    0.648443  -3.459622  4.351902
