36
Energy: -108381.35908 eV PBE+vdW (tier 2 basis)
C    -2.068562  -1.923736  0.531199
C    -1.472400  -1.418147  1.807789
O    -0.435394  -0.679131  1.769284
H    -1.301423  -2.491023  -0.013881
H    -2.347952  -1.075445  -0.107511
H    -2.946581  -2.558174  0.687986
N    -2.064725  -1.771553  2.948966
C    -1.596884  -1.651369  4.344277
C    -1.608762  -0.228198  4.903048
O    -1.002999  0.725956  4.303798
H    -2.837333  -2.448074  2.857498
H    -2.351583  -2.214437  4.902247
C    -0.221889  -2.308679  4.635967
C    0.126092  -3.617964  3.897518
C    -0.968185  -4.707093  3.724354
N    -1.964800  -4.775335  4.780421
C    -3.256515  -4.311252  4.710549
N    -3.819463  -4.297038  3.411813
N    -3.812216  -3.837352  5.776711
H    -0.206387  -2.477447  5.722434
H    0.591863  -1.593915  4.436965
H    0.975817  -4.049764  4.444474
H    0.514921  -3.387274  2.894680
H    -0.465865  -5.679604  3.626210
H    -1.497680  -4.547024  2.779153
H    -1.645655  -4.895385  5.737258
H    -4.823892  -4.131195  3.441855
H    -3.628610  -5.136715  2.862722
H    -4.822051  -3.710412  5.671412
N    -2.188924  0.016550  6.066210
C    -2.899658  -0.861653  7.001158
H    -2.078619  0.984818  6.373300
H    -3.865587  -0.403716  7.244424
H    -2.312242  -0.950694  7.923952
H    -3.076699  -1.864486  6.589045
Sr    0.398468  1.238638  2.606085
