36
Energy: -108381.583471 eV PBE+vdW (tier 2 basis)
C    -0.478323  0.059375  -0.712381
C    -0.406428  0.052707  0.674591
O    0.708830  0.344307  1.283419
H    -1.344755  -0.253315  -1.285156
H    0.294405  0.612763  -1.250289
H    -1.898557  2.360390  -1.175841
N    -1.450455  -0.351858  1.552714
C    -2.247574  -1.577207  1.413250
C    -1.359541  -2.844265  1.299362
O    -0.141519  -2.774200  0.972169
H    -1.073803  -0.265124  2.496948
H    -2.771461  -1.675257  2.377888
C    -3.333555  -1.515697  0.310507
C    -4.624377  -0.764717  0.684784
C    -4.471577  0.653075  1.261351
N    -3.558001  1.509259  0.505144
C    -3.836124  2.322072  -0.516680
N    -5.092380  2.700906  -0.792187
N    -2.827986  2.752932  -1.293524
H    -3.621430  -2.536061  0.026230
H    -2.897178  -1.087458  -0.598348
H    -5.195354  -1.347402  1.424273
H    -5.253417  -0.724731  -0.216387
H    -4.074340  0.623708  2.283722
H    -5.458827  1.124524  1.346697
H    -2.573887  1.330005  0.709683
H    -5.301111  3.251594  -1.615784
H    -5.837221  2.583083  -0.117852
H    -2.925302  3.574247  -1.878006
N    -1.889309  -4.033234  1.589148
C    -3.240973  -4.369119  2.032609
H    -1.241337  -4.812421  1.479301
H    -3.692619  -3.539720  2.585887
H    -3.181141  -5.230940  2.705027
H    -3.886276  -4.632191  1.183979
Sr    1.676767  -1.463009  0.268776
