36
Energy: -108382.020066 eV PBE+vdW (tier 2 basis)
C    0.846528  3.417658  2.037511
C    0.026667  2.900803  3.183590
O    0.039119  3.420780  4.307170
H    0.479550  4.419440  1.774868
H    0.811026  2.783175  1.144880
H    1.886548  3.534809  2.363947
N    -0.763656  1.801945  2.942390
C    -1.783955  1.358268  3.886121
C    -1.194884  0.577809  5.100417
O    -1.609355  -0.598791  5.399983
H    -0.728963  1.365349  2.027515
H    -2.244783  2.266006  4.315311
C    -2.846608  0.502320  3.208561
C    -3.833554  1.156014  2.241454
C    -4.908622  0.143993  1.791404
N    -5.617632  -0.472768  2.926837
C    -5.193672  -1.548101  3.615073
N    -5.656176  -1.704013  4.950877
N    -4.286304  -2.434619  3.276252
H    -3.444270  0.098095  4.035498
H    -2.355217  -0.356400  2.720497
H    -3.338729  1.538592  1.337288
H    -4.316255  2.021109  2.721179
H    -4.468028  -0.649869  1.172999
H    -5.662824  0.633786  1.165130
H    -6.442981  0.013568  3.265544
H    -6.170141  -2.579207  5.075171
H    -6.210071  -0.928544  5.315705
H    -4.044238  -2.417857  2.284622
N    -0.289094  1.210519  5.806625
C    0.387438  0.668093  6.979816
H    -0.067134  2.175114  5.454536
H    1.173057  1.367401  7.277088
H    0.840205  -0.304132  6.751138
H    -0.315708  0.550019  7.814651
Sr    -2.951333  -2.442122  5.353519
