36
Energy: -108380.459558 eV PBE+vdW (tier 2 basis)
C    -0.237170  1.620074  0.271040
C    -0.472033  0.326432  0.978716
O    0.481403  -0.285661  1.556808
H    -0.285282  2.460398  0.982040
H    -0.961335  1.802715  -0.529385
H    0.778004  1.608932  -0.142474
N    -1.715167  -0.198962  1.041824
C    -2.921714  0.588645  1.294472
C    -2.733454  1.304172  2.655662
O    -1.820214  0.929559  3.465269
H    -1.762079  -1.168457  1.359805
H    -3.045385  1.341591  0.501183
C    -4.136679  -0.366446  1.305699
C    -5.506575  0.271653  1.061096
C    -6.634653  -0.790072  0.964294
N    -6.413333  -1.823095  -0.034197
C    -5.518386  -2.883113  0.144520
N    -5.497219  -3.396452  1.446986
N    -4.725715  -3.385785  -0.736016
H    -4.144225  -0.944790  2.243479
H    -3.946300  -1.092053  0.500131
H    -5.479238  0.851813  0.123865
H    -5.788162  0.969332  1.868231
H    -7.576385  -0.276402  0.730496
H    -6.773778  -1.260785  1.945387
H    -6.480280  -1.513885  -0.999240
H    -4.984907  -4.276094  1.453096
H    -6.419964  -3.514968  1.861422
H    -4.757519  -2.876728  -1.623845
N    -3.559393  2.287763  2.959527
C    -3.565655  3.012796  4.233985
H    -4.263043  2.540165  2.269315
H    -4.390160  3.729890  4.218011
H    -2.622996  3.556268  4.369444
H    -3.709205  2.316951  5.068549
Sr    0.155861  -0.218070  3.849255
