36
Energy: -108381.478546 eV PBE+vdW (tier 2 basis)
C    -2.001241  1.139695  0.417620
C    -1.454533  0.814466  1.767334
O    -0.321862  1.282485  2.128593
H    -2.988320  0.701705  0.244979
H    -1.306048  0.783906  -0.354749
H    -2.068084  2.230808  0.315593
N    -2.167620  0.031979  2.576493
C    -1.822967  -0.139199  3.990762
C    -0.520774  -0.948737  4.156403
O    0.531809  -0.320318  4.519137
H    -3.182812  -0.061986  2.339701
H    -1.558265  0.859034  4.371773
C    -3.003486  -0.643550  4.873882
C    -4.244729  -1.274058  4.212685
C    -5.320412  -0.291467  3.736305
N    -4.989897  0.441481  2.489659
C    -4.792821  1.840062  2.572553
N    -5.356445  2.541478  1.528515
N    -4.034296  2.287761  3.515145
H    -3.340350  0.225909  5.450963
H    -2.590759  -1.350548  5.606776
H    -4.717763  -1.907611  4.977160
H    -3.988701  -1.961535  3.393045
H    -5.526101  0.445179  4.523404
H    -6.245742  -0.853716  3.555327
H    -5.585331  0.171444  1.710688
H    -6.252775  2.236220  1.160405
H    -5.255400  3.550647  1.549625
H    -4.039240  3.309642  3.547206
N    -0.442494  -2.255041  3.948581
C    -1.472784  -3.196072  3.509683
H    0.475768  -2.649347  4.151742
H    -2.099536  -3.520694  4.349408
H    -0.971297  -4.072832  3.089447
H    -2.095316  -2.748893  2.729737
Sr    1.406734  1.555593  3.549411
