36
Energy: -108381.412598 eV PBE+vdW (tier 2 basis)
C    -1.501004  -0.208959  -0.064789
C    -1.060736  -0.369983  1.355663
O    0.116110  -0.774340  1.613139
H    -1.441863  -1.187284  -0.562415
H    -0.804787  0.456944  -0.590919
H    -2.518643  0.181511  -0.166759
N    -1.938079  -0.084957  2.324720
C    -1.839106  -0.289798  3.785133
C    -0.883289  0.717646  4.432724
O    0.380909  0.611178  4.252231
H    -2.845919  0.247589  2.009436
H    -2.863154  -0.083300  4.144422
C    -1.506352  -1.730224  4.229401
C    -2.287702  -2.872162  3.558386
C    -3.831646  -2.833557  3.642851
N    -4.364237  -2.573512  4.964585
C    -4.684190  -1.311871  5.422303
N    -4.719145  -1.172440  6.787703
N    -4.857659  -0.247681  4.683633
H    -1.680570  -1.751840  5.315625
H    -0.433154  -1.947283  4.100674
H    -1.934135  -3.802438  4.027060
H    -2.012468  -2.954534  2.495116
H    -4.218209  -3.798070  3.288832
H    -4.235368  -2.088591  2.943341
H    -4.493913  -3.365117  5.584220
H    -5.324452  -0.435855  7.132850
H    -4.650892  -1.990381  7.381221
H    -5.048223  -0.506677  3.712928
N    -1.339231  1.686857  5.205431
C    -2.704231  2.066403  5.584967
H    -0.596649  2.271431  5.594924
H    -2.919624  3.065028  5.184430
H    -2.758063  2.109124  6.679326
H    -3.456071  1.351260  5.220947
Sr    1.903568  -0.459240  2.967914
