36
Energy: -108382.312728 eV PBE+vdW (tier 2 basis)
C    -0.433057  0.242518  -0.281689
C    -0.258648  0.852406  1.075270
O    0.508531  1.853068  1.228406
H    -0.852948  1.003825  -0.953640
H    -1.088634  -0.634436  -0.285016
H    0.546362  -0.037896  -0.689382
N    -0.939448  0.323275  2.096804
C    -1.034033  0.836024  3.479972
C    0.187356  0.383487  4.310286
O    1.306895  1.012566  4.021031
H    -1.504056  -0.496271  1.888400
H    -0.984177  1.934730  3.407030
C    -2.395684  0.419754  4.042571
C    -2.689658  1.018463  5.420368
C    -3.922482  0.429110  6.110454
N    -4.012536  -1.047803  6.159150
C    -3.194427  -1.899378  6.812384
N    -3.732153  -3.009216  7.351848
N    -1.884649  -1.671075  6.910686
H    -2.427168  -0.679698  4.093956
H    -3.176075  0.727875  3.329637
H    -2.872342  2.100159  5.332741
H    -1.815518  0.912970  6.073834
H    -4.831447  0.740605  5.581171
H    -3.990784  0.828778  7.132898
H    -4.933810  -1.421053  5.956458
H    -3.154476  -3.800076  7.610422
H    -4.718518  -3.064051  7.575862
H    -1.355013  -2.250396  7.552631
N    0.049421  -0.545851  5.192428
C    1.249967  -0.963983  5.914342
H    -1.315767  -1.159651  6.178439
H    1.079468  -1.950374  6.362629
H    2.131713  -1.030225  5.262814
H    1.488923  -0.258526  6.725508
Sr    2.251855  2.404733  2.614159
