36
Energy: -108382.373534 eV PBE+vdW (tier 2 basis)
C    -0.848243  -0.705570  1.532237
C    -1.545997  -0.439243  2.840757
O    -1.161668  -1.091316  3.885847
H    -0.044805  0.029480  1.373069
H    -1.522534  -0.649868  0.668776
H    -0.379522  -1.693653  1.570749
N    -2.520312  0.459524  3.031685
C    -2.725282  1.559407  2.098452
C    -1.925985  2.765917  2.644733
O    -1.506207  2.739841  3.841251
H    -3.787358  -1.429672  2.941986
H    -2.344125  1.320967  1.090431
C    -4.223025  1.917928  1.967643
C    -5.075075  0.723424  1.494525
C    -5.808330  0.028457  2.655773
N    -6.276162  -1.322472  2.340574
C    -5.536048  -2.429537  2.488986
N    -6.077959  -3.634517  2.258353
N    -4.258053  -2.333261  2.880060
H    -4.334750  2.751030  1.263702
H    -4.589517  2.292950  2.936412
H    -4.436176  -0.006318  0.974186
H    -5.814658  1.056570  0.754877
H    -6.687178  0.611079  2.959719
H    -5.160537  -0.035132  3.540636
H    -7.187925  -1.421846  1.906450
H    -5.511392  -4.473045  2.230773
H    -7.073230  -3.748949  2.110489
H    -3.727746  -3.156058  3.137475
N    -1.677940  3.828245  1.883126
C    -2.023291  4.067073  0.483475
H    -1.179041  4.575484  2.365714
H    -2.162984  3.122377  -0.050295
H    -1.199739  4.609267  0.006911
H    -2.935667  4.671808  0.398421
Sr    -1.469510  0.825201  5.240901
