36
Energy: -108383.022712 eV PBE+vdW (tier 2 basis)
C    -0.183170  1.885248  2.452626
C    -0.329291  0.825363  3.498386
O    0.190246  0.954288  4.637344
H    -0.507083  2.847883  2.868514
H    -0.747952  1.678053  1.537709
H    0.880487  1.990736  2.198528
N    -1.042119  -0.279249  3.187725
C    -1.258574  -1.380860  4.126956
C    -0.022208  -2.308165  4.154639
O    0.895640  -2.036773  4.975675
H    -1.425819  -0.354410  2.249360
H    -1.238537  -0.924616  5.119971
C    -2.634138  -2.038401  3.966025
C    -3.790458  -1.215833  4.565014
C    -3.812259  -1.082362  6.104568
N    -3.055669  0.054547  6.655293
C    -1.847803  0.010358  7.255559
N    -1.209013  1.243804  7.527335
N    -1.097561  -1.033182  7.512084
H    -2.606968  -3.022468  4.458317
H    -2.849823  -2.238633  2.903666
H    -4.728092  -1.710570  4.276614
H    -3.834104  -0.213824  4.111615
H    -3.469647  -2.008784  6.585898
H    -4.850023  -0.947181  6.433106
H    -3.558095  0.936362  6.696411
H    -1.039916  1.372921  8.525991
H    -1.652195  2.072097  7.132611
H    -1.585402  -1.927846  7.453071
N    0.039239  -3.331012  3.309167
C    1.160339  -4.265375  3.200255
H    -0.755126  -3.487439  2.694650
H    0.807989  -5.288892  3.373570
H    1.911488  -4.004432  3.948956
H    1.602417  -4.202480  2.198604
Sr    1.054363  -0.202206  6.532245
