36
Energy: -108382.930386 eV PBE+vdW (tier 2 basis)
C    0.303351  -0.467031  -0.320468
C    -0.170897  0.099276  0.983500
O    0.567420  0.079898  1.998617
H    1.195578  0.087566  -0.641772
H    -0.444880  -0.429046  -1.118867
H    0.615444  -1.508146  -0.166359
N    -1.415226  0.616788  1.019684
C    -2.113133  1.295699  2.130942
C    -1.281273  2.489164  2.671537
O    -0.444372  2.330015  3.595048
H    -1.931200  0.578949  0.146271
H    -3.002219  1.712412  1.641527
C    -2.615479  0.424439  3.319677
C    -2.719800  -1.101546  3.171835
C    -1.480605  -1.926264  3.542051
N    -0.916451  -1.504642  4.869872
C    0.178780  -2.309817  5.333556
N    -0.118320  -3.386421  6.083438
N    1.360292  -1.874398  5.000439
H    -3.614783  0.809738  3.559648
H    -2.010386  0.661620  4.203803
H    -3.020817  -1.391343  2.155125
H    -3.549415  -1.429124  3.816169
H    -0.676369  -1.827659  2.805030
H    -1.765679  -2.989834  3.563213
H    -1.667964  -1.505134  5.565369
H    0.610664  -3.956866  6.500031
H    -1.069234  -3.721260  6.185554
H    2.123508  -2.504164  5.256730
N    -1.515560  3.677512  2.121182
C    -0.830088  4.912348  2.502282
H    -2.211769  3.736306  1.384034
H    -1.508816  5.756015  2.345604
H    0.072310  5.059879  1.894677
H    -0.550863  4.859522  3.558443
Sr    0.996788  0.502826  4.264329
