36
Energy: -108381.394626 eV PBE+vdW (tier 2 basis)
C    -0.489779  -0.204642  -0.158103
C    -0.354951  -0.065459  1.322053
O    0.769466  0.218749  1.846058
H    -0.214195  0.750334  -0.627439
H    -1.500093  -0.480209  -0.477025
H    0.222878  -0.956276  -0.522230
N    -1.436807  -0.234498  2.089741
C    -1.494426  0.008190  3.541639
C    -0.782676  -1.123247  4.311940
O    0.443499  -0.935239  4.637469
H    -2.320510  -0.441614  1.628707
H    -0.873878  0.897773  3.738258
C    -2.928107  0.287740  3.985910
C    -3.487958  1.652918  3.582047
C    -5.013035  1.697027  3.813188
N    -5.431114  1.393303  5.170303
C    -5.935073  0.158372  5.538894
N    -6.726040  0.201820  6.669011
N    -5.590340  -0.908623  4.877728
H    -2.971078  0.199693  5.080824
H    -3.611771  -0.491877  3.621502
H    -3.309339  1.864136  2.514371
H    -2.992357  2.455197  4.150915
H    -5.497803  0.972060  3.143749
H    -5.383214  2.696056  3.546485
H    -5.651244  2.174070  5.775602
H    -7.125800  -0.675284  6.979992
H    -7.334447  1.002029  6.808601
H    -6.157034  -1.706554  5.172756
N    -1.372739  -2.257487  4.648389
C    -2.724326  -2.762432  4.361152
H    -0.767756  -2.880089  5.184153
H    -2.763765  -3.795682  4.715957
H    -2.915061  -2.763633  3.281706
H    -3.507921  -2.173655  4.862505
Sr    2.214548  0.041314  3.593166
