36
Energy: -108380.779936 eV PBE+vdW (tier 2 basis)
C    0.124779  0.239106  -0.257514
C    0.435379  0.514578  1.173520
O    1.621541  0.792097  1.544805
H    0.733977  -0.627403  -0.557995
H    0.449109  1.073284  -0.893962
H    -0.931260  0.013160  -0.437331
N    -0.541222  0.465172  2.105892
C    -1.858359  1.080049  1.924328
C    -1.637512  2.609680  1.835229
O    -0.478925  3.096967  2.109494
H    -0.190487  0.499622  3.064554
H    -2.291150  0.717326  0.972700
C    -2.795493  0.688496  3.088486
C    -2.895497  -0.821351  3.370152
C    -3.316496  -1.728848  2.196101
N    -4.547373  -1.326720  1.527362
C    -4.611927  -0.468088  0.445704
N    -3.498745  -0.537026  -0.429024
N    -5.534875  0.382990  0.163530
H    -3.791812  1.088286  2.862774
H    -2.466534  1.199339  4.008040
H    -3.617725  -0.937466  4.192142
H    -1.943229  -1.208105  3.766170
H    -3.437771  -2.751079  2.580402
H    -2.515402  -1.782421  1.448744
H    -5.384106  -1.331750  2.102981
H    -3.756661  -0.054505  -1.290374
H    -3.235155  -1.498355  -0.648800
H    -6.263388  0.426860  0.881841
N    -2.608508  3.429715  1.481511
C    -3.993267  3.154321  1.085402
H    -2.342367  4.414813  1.504490
H    -4.258095  3.845600  0.278300
H    -4.667901  3.332950  1.932591
H    -4.136152  2.131092  0.717540
Sr    1.798693  2.969876  2.311971
