36
Energy: -108381.67052 eV PBE+vdW (tier 2 basis)
C    0.429040  -1.737508  0.433790
C    0.328602  -0.407184  1.104633
O    1.399826  0.242186  1.380347
H    0.739689  -1.567047  -0.608332
H    -0.508149  -2.299842  0.427939
H    1.218435  -2.337032  0.902257
N    -0.833434  0.136175  1.446291
C    -2.222623  -0.310760  1.320487
C    -2.951727  1.024157  0.971772
O    -2.374271  2.078693  1.281144
H    -0.880343  1.166350  1.629526
H    -2.321498  -1.054606  0.520944
C    -2.793128  -0.836999  2.660609
C    -2.270605  -2.177650  3.201765
C    -0.926011  -2.205265  3.947313
N    -0.867402  -1.392502  5.169087
C    -0.031326  -0.344371  5.368391
N    0.283832  -0.019363  6.642077
N    0.499673  0.352886  4.359980
H    -3.877708  -0.941330  2.519282
H    -2.678173  -0.043390  3.416547
H    -2.207441  -2.921715  2.392189
H    -3.035609  -2.572325  3.886929
H    -0.088699  -1.896148  3.311804
H    -0.719124  -3.246713  4.234257
H    -1.336587  -1.774239  5.985380
H    0.563041  0.929895  6.853212
H    -0.003899  -0.594014  7.425085
H    -0.077525  0.165255  3.532157
N    -4.163814  0.988906  0.402681
C    -4.960778  -0.162903  -0.005428
H    -4.578056  1.910352  0.271481
H    -4.325268  -1.032969  -0.199142
H    -5.483771  0.077792  -0.937231
H    -5.708336  -0.427167  0.755399
Sr    2.388359  1.214916  3.185161
