36
Energy: -108380.777876 eV PBE+vdW (tier 2 basis)
C    -0.420923  0.467440  2.574305
C    -1.152216  -0.240519  3.669383
O    -0.661768  -0.284930  4.842645
H    -1.069203  1.197120  2.074507
H    -0.078079  -0.239575  1.804032
H    0.447288  0.981722  2.995024
N    -2.337115  -0.854400  3.442502
C    -2.634370  -1.692805  2.270698
C    -1.569151  -2.841219  2.236188
O    -0.748683  -2.957483  3.220592
H    -2.789236  -1.160343  4.303205
H    -3.593684  -2.173014  2.517158
C    -2.826830  -0.924932  0.938760
C    -3.995003  -1.465976  0.094960
C    -3.818095  -1.246553  -1.422079
N    -2.528307  -1.681516  -1.949207
C    -1.989528  -2.949782  -1.900728
N    -2.846077  -3.936006  -1.338016
N    -0.796754  -3.322776  -2.196618
H    -1.901311  -0.958593  0.347312
H    -3.014911  0.127659  1.183893
H    -4.934910  -0.986108  0.402557
H    -4.136272  -2.538285  0.289447
H    -3.897668  -0.176832  -1.653624
H    -4.659781  -1.725643  -1.950124
H    -1.984206  -0.999450  -2.461794
H    -2.487581  -4.851776  -1.611736
H    -3.820687  -3.858843  -1.629680
H    -0.206987  -2.559748  -2.537089
N    -1.540745  -3.659698  1.214473
C    -0.572682  -4.741855  1.029808
H    -2.231372  -3.595106  0.429059
H    0.288703  -4.594212  1.684573
H    -0.253875  -4.723299  -0.020748
H    -1.040774  -5.709367  1.253961
Sr    0.205827  -2.401594  5.212861
