36
Energy: -108381.960784 eV PBE+vdW (tier 2 basis)
C    -0.638044  0.252950  0.211105
C    -0.733709  -0.124560  1.662385
O    0.407291  -0.359123  2.265531
H    -1.617922  0.424526  -0.242764
H    -0.112507  -0.536011  -0.343738
H    -0.038275  1.167292  0.106820
N    -1.916788  -0.202353  2.215649
C    -2.062123  -0.631106  3.626110
C    -1.383601  0.340738  4.609860
O    -0.217110  0.157537  5.076983
H    -3.421748  -0.352086  1.095442
H    -3.138216  -0.532381  3.838641
C    -1.665150  -2.117281  3.857887
C    -2.792231  -3.101327  4.249113
C    -4.132616  -3.009275  3.488286
N    -3.950043  -2.556890  2.097403
C    -4.829782  -1.757381  1.456754
N    -6.143709  -1.998438  1.565581
N    -4.341257  -0.729196  0.762562
H    -0.911195  -2.182085  4.657145
H    -1.163169  -2.473239  2.946859
H    -3.032608  -2.992077  5.315466
H    -2.383319  -4.114675  4.138826
H    -4.811140  -2.300367  3.985409
H    -4.619329  -3.993771  3.516889
H    -2.990355  -2.396702  1.804650
H    -6.828204  -1.343115  1.207379
H    -6.476877  -2.918594  1.829377
H    -4.906764  -0.224387  0.089742
N    -2.087782  1.414230  4.951519
C    -1.614906  2.481351  5.830251
H    -3.006206  1.520941  4.531138
H    -2.474856  2.931308  6.335261
H    -1.092525  3.258900  5.256791
H    -0.935552  2.062662  6.578144
Sr    1.721605  -0.455738  4.000310
