36
Energy: -108381.07403 eV PBE+vdW (tier 2 basis)
C    -2.584187  1.935252  1.944501
C    -3.109866  0.678727  2.564736
O    -3.404459  0.672007  3.808228
H    -2.810326  2.774460  2.609393
H    -3.019400  2.120468  0.957228
H    -1.492116  1.878373  1.817622
N    -3.278588  -0.453339  1.852208
C    -2.320812  -1.030480  0.898917
C    -1.061437  -1.412622  1.677154
O    -0.865257  -0.991035  2.878481
H    -3.821443  -1.161069  2.349129
H    -2.802030  -2.007133  0.574337
C    -2.062433  -0.223721  -0.388096
C    -3.318300  0.084610  -1.215431
C    -4.032338  -1.122228  -1.859771
N    -5.079799  -1.748579  -1.060300
C    -4.956649  -2.969332  -0.446845
N    -6.147658  -3.616419  -0.219360
N    -3.777806  -3.389106  -0.062632
H    -1.376185  -0.812536  -1.010680
H    -1.523357  0.707721  -0.170129
H    -2.997741  0.753945  -2.026725
H    -4.051144  0.654598  -0.624421
H    -3.305540  -1.898601  -2.136391
H    -4.500190  -0.779489  -2.792173
H    -6.024906  -1.423511  -1.225591
H    -6.109330  -4.526150  0.223879
H    -6.902565  -3.511402  -0.889223
H    -3.813451  -4.358764  0.256086
N    -0.178115  -2.240522  1.140977
C    -0.257139  -2.973909  -0.127586
H    0.647715  -2.408884  1.714043
H    0.202198  -3.956498  0.023356
H    0.296335  -2.448750  -0.916358
H    -1.303229  -3.119389  -0.420370
Sr    -1.646486  -0.321129  4.917290
