36
Energy: -108382.127259 eV PBE+vdW (tier 2 basis)
C    -0.573837  -0.177299  -0.744749
C    -0.647330  -0.646856  0.669506
O    0.070724  -1.618288  1.073439
H    0.225733  0.573644  -0.833841
H    -1.507295  0.279794  -1.090253
H    -0.319939  -1.022964  -1.391703
N    -1.467977  -0.066493  1.550373
C    -2.206486  1.191626  1.472661
C    -1.302339  2.363064  1.008748
O    -0.103374  2.437460  1.333310
H    -1.449172  -0.498861  2.470059
H    -3.022033  1.079542  0.741686
C    -2.868880  1.491422  2.858463
C    -2.198922  0.996284  4.157970
C    -0.850430  1.596016  4.599049
N    0.291065  1.294552  3.734388
C    1.137214  0.267878  3.790017
N    0.892335  -0.842296  4.649251
N    2.188019  0.084620  3.009374
H    -3.874177  1.050227  2.839264
H    -3.020920  2.577912  2.922034
H    -2.145151  -0.108615  4.175369
H    -2.914022  1.226417  4.962042
H    -0.626475  1.274123  5.625845
H    -0.926563  2.691334  4.640056
H    0.321129  1.840843  2.843419
H    1.648180  -0.956625  5.328450
H    0.005219  -0.813113  5.150823
H    2.446589  0.922350  2.484407
N    -1.926346  3.285345  0.263745
C    -1.304735  4.526234  -0.194792
H    -2.898420  3.128708  0.013915
H    -1.867968  5.389468  0.179405
H    -1.288081  4.558033  -1.290860
H    -0.281020  4.564232  0.185670
Sr    1.840924  -2.222355  2.406784
