36
Energy: -108382.40152 eV PBE+vdW (tier 2 basis)
C    0.278545  0.567228  0.002554
C    0.217758  0.296383  1.469717
O    1.248282  0.099650  2.159355
H    0.490902  1.633446  -0.171951
H    -0.644768  0.300796  -0.522112
H    1.121606  0.005474  -0.416024
N    -0.989273  0.299094  2.116534
C    -2.113131  1.187381  1.833909
C    -1.577561  2.637260  1.784754
O    -0.602779  2.951007  2.525447
H    -0.975798  -0.130683  3.040111
H    -2.589826  0.907489  0.881941
C    -3.143874  1.122396  2.987047
C    -3.523041  -0.277834  3.498306
C    -2.657375  -0.840342  4.641759
N    -2.557826  0.057146  5.795200
C    -1.401486  0.389334  6.433169
N    -1.499918  0.573571  7.770174
N    -0.253256  0.552621  5.769152
H    -4.045992  1.637539  2.633825
H    -2.768419  1.720617  3.833292
H    -3.542869  -1.014988  2.681978
H    -4.558659  -0.225597  3.863437
H    -1.629614  -1.093748  4.350516
H    -3.101195  -1.792343  4.970502
H    -3.400998  0.135126  6.357127
H    -0.760753  1.030709  8.288995
H    -2.265487  0.188025  8.311066
H    0.501260  0.437746  6.456690
N    -2.204010  3.499735  0.997485
C    -1.907137  4.929269  0.898696
H    -2.964662  3.143456  0.423339
H    -2.778636  5.513076  1.218469
H    -1.666196  5.185238  -0.139663
H    -1.055220  5.160520  1.541771
Sr    0.919964  1.732053  3.928584
