36
Energy: -108383.09931 eV PBE+vdW (tier 2 basis)
C    -1.036032  0.003435  -0.301948
C    -0.539682  0.031408  1.111157
O    0.653931  -0.261295  1.378421
H    -2.094418  0.264186  -0.404733
H    -0.871695  -1.001231  -0.714111
H    -0.435944  0.696887  -0.905972
N    -1.420694  0.368512  2.073221
C    -1.222984  0.426027  3.536162
C    -0.337969  1.638359  3.911074
O    0.910848  1.585388  3.758163
H    -2.359072  0.586571  1.752881
H    -2.234557  0.598664  3.926144
C    -0.667370  -0.848474  4.216362
C    -1.062995  -2.208280  3.613947
C    0.149566  -3.080442  3.258788
N    0.998193  -3.381808  4.408401
C    2.319693  -3.092366  4.540009
N    3.000746  -3.861639  5.424151
N    2.896563  -2.096155  3.868261
H    -0.983468  -0.785494  5.266356
H    0.427732  -0.786995  4.273137
H    -1.661444  -2.085795  2.700466
H    -1.709564  -2.753395  4.314654
H    0.773811  -2.596221  2.499147
H    -0.198616  -4.027607  2.820937
H    0.627439  -4.060344  5.065911
H    3.930928  -3.604814  5.727214
H    2.648472  -4.756156  5.742332
H    3.910611  -2.212620  3.964202
N    -0.953797  2.710138  4.399283
C    -0.284042  3.945009  4.806700
H    -1.965289  2.678237  4.489625
H    0.775280  3.738172  4.977680
H    -0.741416  4.312550  5.731159
H    -0.384894  4.710567  4.026618
Sr    2.486130  0.078021  2.779199
