36
Energy: -108380.79456 eV PBE+vdW (tier 2 basis)
C    0.283867  0.447562  0.649295
C    -0.007790  0.362737  2.111584
O    0.922014  0.479044  2.971496
H    -0.438053  -0.108030  0.042020
H    1.294067  0.061414  0.471993
H    0.276897  1.498834  0.319063
N    -1.277543  0.188436  2.540902
C    -2.416731  0.923865  1.987414
C    -2.173718  2.433562  2.221056
O    -1.252257  2.816791  3.032661
H    -1.357845  -0.006434  3.539815
H    -2.470198  0.744754  0.902887
C    -3.730729  0.457946  2.634542
C    -4.217256  -0.910273  2.140079
C    -5.713455  -1.134562  2.444192
N    -6.559515  -0.096623  1.861778
C    -6.970537  1.032103  2.565566
N    -7.573602  0.750927  3.772256
N    -6.727548  2.205662  2.064657
H    -4.500917  1.210017  2.415565
H    -3.614493  0.468278  3.731869
H    -3.627049  -1.733262  2.570872
H    -4.074560  -0.970754  1.047666
H    -5.888405  -1.150785  3.527511
H    -6.008384  -2.119973  2.057407
H    -6.352074  0.137241  0.894288
H    -7.942855  1.538663  4.292327
H    -8.154588  -0.081201  3.815524
H    -7.260765  2.940033  2.538429
N    -2.915914  3.317965  1.584968
C    -3.989400  3.087160  0.608593
H    -2.736368  4.288728  1.841548
H    -4.094861  3.997609  0.011440
H    -4.956621  2.855862  1.108684
H    -3.721411  2.264454  -0.064587
Sr    0.720466  2.476968  4.139567
