36
Energy: -108381.74821 eV PBE+vdW (tier 2 basis)
C    -1.645818  -2.645863  0.827737
C    -1.406871  -1.646289  1.912581
O    -0.338622  -0.928334  1.865289
H    -1.836349  -2.112602  -0.114570
H    -2.486095  -3.309064  1.042684
H    -0.739194  -3.244978  0.678082
N    -2.292540  -1.510421  2.890087
C    -2.084103  -0.480230  3.917282
C    -0.878516  -0.838826  4.807694
O    0.179020  -0.128340  4.712756
H    -3.256664  -2.103059  2.836454
H    -1.767370  0.441602  3.401894
C    -3.347407  -0.136026  4.721660
C    -4.490463  0.463582  3.872590
C    -5.866913  -0.125213  4.235781
N    -5.904181  -1.587314  4.080917
C    -5.713242  -2.154893  2.827516
N    -6.714015  -1.931533  1.943211
N    -4.610007  -2.829075  2.594815
H    -3.050780  0.570106  5.509649
H    -3.695283  -1.033997  5.246460
H    -4.311309  0.278408  2.802004
H    -4.519434  1.554888  3.993511
H    -6.641769  0.327811  3.605927
H    -6.135200  0.101365  5.276008
H    -5.338633  -2.078052  4.767862
H    -6.642135  -2.256299  0.987205
H    -7.643598  -1.722659  2.289794
H    -4.682187  -3.400552  1.748648
N    -0.895609  -1.863172  5.649527
C    -1.938916  -2.860038  5.904097
H    -0.042512  -1.955673  6.201347
H    -1.448673  -3.807491  6.151158
H    -2.556521  -3.017169  5.015436
H    -2.565233  -2.561324  6.754225
Sr    1.297824  0.317250  2.754690
