36
Energy: -108379.973612 eV PBE+vdW (tier 2 basis)
C    0.586795  -0.329293  0.599151
C    0.212070  0.119355  1.971169
O    1.125017  0.725644  2.704240
H    1.303023  0.368470  0.152263
H    -0.286933  -0.426009  -0.052956
H    1.073447  -1.314643  0.658998
N    -0.960043  -0.068295  2.492681
C    -2.195555  -0.635041  1.950719
C    -3.217755  -0.133032  3.034128
O    -2.727731  0.448457  4.037099
H    -1.282356  0.324346  3.452835
H    -2.438893  -0.138048  0.999449
C    -2.162694  -2.175769  1.747375
C    -2.402012  -2.599647  0.285718
C    -3.175174  -3.923408  0.087290
N    -4.290713  -4.144116  0.999490
C    -5.226872  -3.210255  1.359173
N    -5.952689  -3.507616  2.487465
N    -5.399805  -2.034224  0.811784
H    -2.928569  -2.626064  2.391211
H    -1.204113  -2.564362  2.117831
H    -1.448366  -2.716008  -0.249622
H    -2.933983  -1.791747  -0.232974
H    -2.496420  -4.772689  0.238591
H    -3.499854  -3.971547  -0.965671
H    -4.419747  -5.095060  1.324260
H    -6.869540  -3.080180  2.542951
H    -5.863809  -4.415010  2.927103
H    -4.972582  -1.979555  -0.112023
N    -4.501734  -0.326356  2.811621
C    -5.522102  0.104706  3.761237
H    -4.837717  -0.887270  1.972579
H    -6.488315  0.092541  3.248238
H    -5.310517  1.118461  4.118966
H    -5.565435  -0.569710  4.627386
Sr    2.380124  1.827338  4.025756
