36
Energy: -108380.903477 eV PBE+vdW (tier 2 basis)
C    0.480440  -0.963567  0.489255
C    0.148059  -0.485671  1.869432
O    1.060927  0.005644  2.606075
H    0.743798  -0.084876  -0.118605
H    -0.341210  -1.493778  -0.003422
H    1.367540  -1.607837  0.513940
N    -1.122340  -0.601506  2.273518
C    -1.872091  0.008395  3.389820
C    -1.220578  -0.085663  4.772281
O    -0.238862  -0.869616  5.020493
H    -1.740963  -1.026402  1.586567
H    -1.981013  1.081712  3.159297
C    -3.282943  -0.632664  3.411759
C    -3.321888  -2.087797  3.889286
C    -4.753015  -2.581766  4.210014
N    -5.537234  -1.685112  5.051282
C    -5.099002  -1.108593  6.232965
N    -4.132758  -1.845129  6.925594
N    -5.455117  0.038510  6.709580
H    -3.716878  -0.520853  2.404312
H    -3.914845  -0.021596  4.067206
H    -2.714093  -2.187303  4.800064
H    -2.888698  -2.772516  3.144115
H    -4.677821  -3.584879  4.658428
H    -5.326233  -2.715195  3.283516
H    -6.273697  -1.168036  4.586660
H    -4.066629  -1.505140  7.882691
H    -4.279835  -2.852443  6.911580
H    -6.126911  0.519520  6.104976
N    -1.709983  0.660355  5.751556
C    -2.788646  1.652657  5.774495
H    -1.308749  0.438968  6.662857
H    -2.974834  2.052678  4.773743
H    -2.474567  2.477371  6.423826
H    -3.712625  1.199329  6.186207
Sr    1.973365  -0.713492  4.557662
