36
Energy: -108381.957196 eV PBE+vdW (tier 2 basis)
C    -1.622558  -1.267843  -0.237663
C    -1.073493  -1.141330  1.153667
O    0.024542  -1.615145  1.480867
H    -1.002294  -0.657153  -0.908816
H    -2.665530  -0.945929  -0.333788
H    -1.525490  -2.307759  -0.569662
N    -1.848129  -0.473521  2.069340
C    -1.343286  0.037702  3.348233
C    -1.093970  -1.058689  4.413072
O    -1.432449  -0.863659  5.637369
H    -2.729307  -0.096222  1.738932
H    -0.341517  0.466843  3.158186
C    -2.252980  1.156094  3.868439
C    -3.738085  0.765877  4.058569
C    -4.374341  1.207299  5.383114
N    -4.156642  2.604753  5.726414
C    -3.496961  3.072529  6.813628
N    -3.629371  4.392591  7.070684
N    -2.747962  2.269225  7.577253
H    -2.171928  1.998390  3.168938
H    -1.823907  1.534747  4.806368
H    -3.876165  -0.324219  3.995742
H    -4.340248  1.184459  3.239469
H    -4.002408  0.602474  6.222229
H    -5.456696  1.012647  5.350983
H    -4.671993  3.284532  5.176916
H    -3.079688  4.841893  7.791256
H    -4.297272  4.976561  6.582101
H    -2.454367  2.807180  8.398447
N    -0.461726  -2.137217  4.023981
C    -0.095838  -3.249851  4.891064
H    -0.134890  -2.105648  3.015753
H    0.213787  -4.089164  4.262477
H    -0.950020  -3.559339  5.504487
H    0.742868  -2.977365  5.546817
Sr    -1.784640  0.051565  7.649805
