36
Energy: -108381.992342 eV PBE+vdW (tier 2 basis)
C    0.196755  0.901685  -1.107006
C    -0.202620  0.748523  0.328770
O    0.434898  -0.076674  1.090509
H    -0.421882  1.629251  -1.641755
H    0.112544  -0.066547  -1.619912
H    1.244716  1.226627  -1.164755
N    -1.203436  1.469936  0.779443
C    -1.798080  1.462173  2.109423
C    -3.219113  2.054881  1.842942
O    -3.397002  2.665238  0.785601
H    -1.771022  2.083873  0.158896
H    -1.861716  0.424893  2.471683
C    -1.000751  2.343992  3.110099
C    -1.112728  1.883497  4.581930
C    0.207493  1.394772  5.181757
N    0.769626  0.303987  4.380490
C    1.814764  -0.480748  4.725011
N    2.302763  -0.383599  5.976048
N    2.315461  -1.334160  3.817727
H    -1.339714  3.382325  3.004832
H    0.053266  2.356611  2.794125
H    -1.855190  1.076606  4.682146
H    -1.472567  2.705501  5.212120
H    0.011080  1.032098  6.201482
H    0.924750  2.230632  5.249520
H    0.541831  0.311798  3.389831
H    3.049578  -0.988467  6.291885
H    1.932952  0.274008  6.650158
H    3.076416  -1.872134  4.239805
N    -4.136016  1.899373  2.810173
C    -5.485555  2.459229  2.732460
H    -3.902323  1.337794  3.621332
H    -5.553049  3.068380  1.827416
H    -6.231272  1.656454  2.684035
H    -5.684396  3.086588  3.609203
Sr    1.868202  -1.790040  1.519919
