36
Energy: -108382.552648 eV PBE+vdW (tier 2 basis)
C    0.123508  -0.026385  0.885411
C    -0.742279  -0.411453  2.041245
O    -0.248700  -0.863929  3.109673
H    0.395840  1.038513  0.957042
H    -0.362507  -0.193863  -0.082319
H    1.053781  -0.601164  0.939977
N    -2.094834  -0.250827  1.970369
C    -2.747063  0.867937  1.302552
C    -2.313013  2.172404  2.016013
O    -1.851942  2.116413  3.194849
H    -2.606729  -0.683796  2.754960
H    -2.394460  0.902689  0.262699
C    -4.294216  0.685500  1.280994
C    -5.137106  1.380280  2.362999
C    -4.969871  0.949188  3.828198
N    -5.309003  -0.440882  4.093689
C    -4.467606  -1.399850  4.550515
N    -5.017930  -2.610530  4.797097
N    -3.161212  -1.163576  4.705442
H    -4.485147  -0.397522  1.276390
H    -4.656720  1.044914  0.309858
H    -6.192176  1.241418  2.083280
H    -4.980650  2.469782  2.331480
H    -5.607275  1.590869  4.453992
H    -3.945275  1.118603  4.172922
H    -6.297581  -0.668910  4.076576
H    -4.470366  -3.356300  5.205847
H    -6.009198  -2.788026  4.689190
H    -2.713522  -2.052126  4.953129
N    -2.433705  3.336762  1.389432
C    -2.969132  3.598786  0.051885
H    -2.155937  4.147115  1.942934
H    -2.527178  4.527348  -0.321275
H    -4.060553  3.714674  0.077411
H    -2.704910  2.794579  -0.642548
Sr    -1.267666  0.455717  4.830016
