36
Energy: -108381.596624 eV PBE+vdW (tier 2 basis)
C    -1.148231  0.147326  0.340164
C    -0.788626  -0.026089  1.781339
O    0.224440  -0.726443  2.102207
H    -1.346792  -0.842895  -0.093045
H    -0.291368  0.566637  -0.203040
H    -2.021944  0.787812  0.183821
N    -1.556709  0.560656  2.701416
C    -1.545622  0.425330  4.170357
C    -0.373131  1.173814  4.807701
O    0.826709  0.759353  4.641338
H    -2.364964  1.073230  2.353199
H    -2.497522  0.917204  4.449613
C    -1.640903  -1.026631  4.700359
C    -2.635964  -1.105982  5.872471
C    -4.082783  -1.465344  5.463225
N    -4.544206  -0.991470  4.152248
C    -5.031313  0.287331  3.941811
N    -6.063578  0.356607  3.034264
N    -4.443152  1.301503  4.511452
H    -0.654648  -1.391864  5.033005
H    -1.967317  -1.680183  3.880522
H    -2.634656  -0.153019  6.419442
H    -2.306990  -1.865830  6.593979
H    -4.763198  -1.121137  6.255871
H    -4.166768  -2.558415  5.419133
H    -4.997621  -1.706480  3.595122
H    -6.453270  1.272100  2.840794
H    -6.744615  -0.395386  3.004256
H    -4.977173  2.161712  4.368908
N    -0.580872  2.231505  5.573323
C    -1.822999  2.909218  5.952099
H    0.277300  2.627456  5.961755
H    -1.866241  2.974682  7.045790
H    -2.701748  2.364857  5.590068
H    -1.820580  3.925925  5.539507
Sr    1.966409  -0.853822  3.527575
