36
Energy: -108382.138563 eV PBE+vdW (tier 2 basis)
C    0.049171  -0.201869  0.156652
C    -0.485513  -1.200167  1.139602
O    -0.175557  -2.439744  1.019789
H    -0.374943  -0.419406  -0.833848
H    1.139145  -0.300119  0.072873
H    -0.199759  0.830990  0.419843
N    -1.278424  -0.759210  2.096624
C    -2.009281  -1.494993  3.125443
C    -2.828219  -0.367330  3.830998
O    -2.540527  0.807618  3.582768
H    -1.485066  0.254650  2.205922
H    -2.695317  -2.205843  2.638497
C    -1.092353  -2.271337  4.091700
C    -0.122264  -1.412771  4.921175
C    1.123431  -2.179024  5.389692
N    2.144298  -2.311331  4.331571
C    2.227739  -3.279754  3.409692
N    3.074773  -3.046717  2.281082
N    1.561735  -4.406702  3.322128
H    -0.538954  -2.995103  3.482966
H    -1.726072  -2.866972  4.764815
H    -0.636034  -1.017146  5.808361
H    0.207074  -0.531195  4.350817
H    0.870639  -3.176564  5.776350
H    1.610448  -1.649435  6.216883
H    2.849901  -1.581044  4.306786
H    3.880772  -3.677386  2.290484
H    3.409006  -2.086531  2.190641
H    1.048071  -4.655214  4.168510
N    -3.776942  -0.764623  4.692490
C    -4.627919  0.168983  5.430597
H    -3.992117  -1.753836  4.761014
H    -4.690838  -0.137104  6.480670
H    -5.637109  0.196805  5.000566
H    -4.185131  1.166313  5.365118
Sr    1.073195  -4.321418  0.916530
