36
Energy: -108381.754322 eV PBE+vdW (tier 2 basis)
C    0.496434  -0.137895  0.041071
C    0.254919  -0.099139  1.515411
O    1.224251  -0.242595  2.328800
H    1.160975  0.697377  -0.222783
H    -0.421090  -0.061164  -0.551080
H    1.025140  -1.062088  -0.224394
N    -0.990432  0.102297  1.952437
C    -1.428150  0.364051  3.339550
C    -1.553321  -0.978067  4.090665
O    -0.474889  -1.582265  4.433038
H    -1.722898  0.192594  1.250090
H    -0.610787  0.908285  3.841184
C    -2.684735  1.231644  3.246754
C    -3.351204  1.642375  4.577287
C    -4.868943  1.421726  4.539781
N    -5.247893  -0.011917  4.478100
C    -5.851857  -0.528779  3.304639
N    -6.895841  -1.389828  3.557766
N    -5.302971  -0.253512  2.172247
H    -3.429600  0.700746  2.621381
H    -2.404102  2.133052  2.684424
H    -3.161635  2.704364  4.781486
H    -2.929561  1.097279  5.436467
H    -5.298562  1.930927  3.667017
H    -5.326378  1.858254  5.436857
H    -5.711398  -0.326672  5.326483
H    -7.348221  -1.811486  2.753725
H    -7.533815  -1.178901  4.319246
H    -5.847979  -0.603125  1.381733
N    -2.735006  -1.482989  4.349001
C    -2.935093  -2.764021  5.022761
H    -3.598562  -0.911955  4.201649
H    -4.008139  -2.974087  5.034517
H    -2.559950  -2.729243  6.053893
H    -2.417232  -3.565426  4.483912
Sr    1.772483  -1.430024  4.177831
