36
Energy: -108383.006684 eV PBE+vdW (tier 2 basis)
C    0.780738  -1.607231  0.304292
C    0.047795  -1.966400  1.561596
O    -0.445136  -3.115592  1.708565
H    0.081267  -1.687053  -0.539588
H    1.579722  -2.338104  0.126997
H    1.210092  -0.600078  0.313602
N    -0.058456  -1.008754  2.505423
C    -0.842199  -1.017895  3.758607
C    -0.192268  -1.929363  4.817988
O    -0.081787  -3.172431  4.660302
H    0.384552  -0.123488  2.279242
H    -0.761933  0.014259  4.127386
C    -2.344374  -1.281053  3.507228
C    -3.266722  -1.075779  4.725905
C    -3.672851  -2.352630  5.481914
N    -4.419995  -3.293175  4.647094
C    -3.893638  -4.375599  4.021670
N    -4.552950  -4.854141  2.930465
N    -2.751473  -4.957629  4.369934
H    -2.491528  -2.279307  3.077367
H    -2.630535  -0.576571  2.714771
H    -4.184274  -0.577325  4.383547
H    -2.818085  -0.378632  5.451111
H    -4.300297  -2.086713  6.342315
H    -2.795157  -2.866552  5.893027
H    -5.382984  -3.047582  4.437729
H    -5.391293  -4.395524  2.592028
H    -4.496738  -5.851039  2.755314
H    -2.531433  -4.716273  5.340307
N    0.233691  -1.334184  5.930766
C    0.868956  -2.044740  7.041440
H    0.156437  -0.324414  5.999337
H    0.947877  -1.362805  7.892108
H    1.872752  -2.385917  6.758469
H    0.265906  -2.913400  7.327783
Sr    -0.632682  -4.933883  3.168958
