36
Energy: -108381.436331 eV PBE+vdW (tier 2 basis)
C    1.171264  1.994676  2.335454
C    0.433456  0.859214  2.967395
O    0.884966  0.302979  4.018431
H    1.199761  2.829061  3.051256
H    0.717031  2.344061  1.402599
H    2.211855  1.702326  2.146068
N    -0.713706  0.457008  2.409678
C    -1.694797  -0.500478  2.960569
C    -1.226473  -1.941097  2.654053
O    -0.211939  -2.393566  3.292672
H    -1.002620  0.936223  1.558844
H    -1.668498  -0.398975  4.057561
C    -3.071991  -0.100529  2.421077
C    -4.277843  -0.900215  2.962837
C    -5.250521  -1.309933  1.846861
N    -4.594503  -2.175823  0.853256
C    -4.309951  -1.710442  -0.463756
N    -3.904580  -2.744505  -1.300648
N    -4.237683  -0.496232  -0.862938
H    -3.032202  -0.170441  1.321000
H    -3.208747  0.966207  2.646155
H    -4.818267  -0.305228  3.710708
H    -3.946952  -1.810624  3.486692
H    -5.669449  -0.422369  1.350255
H    -6.102818  -1.848478  2.279191
H    -4.959082  -3.126729  0.865358
H    -3.791528  -2.422775  -2.259496
H    -4.445037  -3.605133  -1.256506
H    -4.538325  0.186257  -0.165357
N    -1.848309  -2.650526  1.742917
C    -1.441887  -3.991959  1.329383
H    -2.769910  -2.326873  1.363801
H    -0.350900  -4.060811  1.287132
H    -1.861618  -4.172210  0.334704
H    -1.820530  -4.749042  2.029670
Sr    1.368510  -1.772796  4.796383
