36
Energy: -108380.734883 eV PBE+vdW (tier 2 basis)
C    -0.757107  0.899736  0.392462
C    -0.526734  0.555421  1.839175
O    0.672907  0.622427  2.291618
H    -1.475232  1.721669  0.280470
H    -1.160643  0.039001  -0.160703
H    0.191015  1.196394  -0.063774
N    -1.453701  0.099833  2.714156
C    -2.710928  -0.528273  2.262477
C    -2.351869  -1.882323  1.597789
O    -1.259095  -2.444393  1.910913
H    -1.606880  1.419550  3.880566
H    -3.202101  -0.848674  3.198543
C    -3.750498  0.333908  1.500654
C    -3.870740  1.772194  2.018605
C    -4.263815  1.911036  3.502497
N    -3.778428  3.158257  4.105898
C    -2.454012  3.445264  4.263477
N    -1.624358  2.225263  4.606779
N    -1.761873  4.502732  4.289897
H    -4.731885  -0.160273  1.586549
H    -3.515372  0.378639  0.428548
H    -2.913045  2.291361  1.865048
H    -4.597034  2.312212  1.396035
H    -3.890557  1.066730  4.101275
H    -5.352194  1.893329  3.632253
H    -4.357302  3.979569  3.946971
H    -0.673727  2.608577  4.708880
H    -1.922957  1.843333  5.514193
H    -2.262717  5.363032  4.052391
N    -3.215161  -2.442091  0.761675
C    -3.057828  -3.757865  0.140049
H    -4.064190  -1.926982  0.546669
H    -3.864844  -4.423208  0.469831
H    -2.093786  -4.177827  0.434193
H    -3.099100  -3.657853  -0.950811
Sr    0.481798  -1.527456  3.209011
