36
Energy: -108381.399651 eV PBE+vdW (tier 2 basis)
C    0.160150  0.399304  -0.152781
C    0.107041  -0.069488  1.259632
O    1.155373  -0.483344  1.856170
H    1.068929  0.982927  -0.337183
H    -0.733577  0.951825  -0.460918
H    0.233654  -0.503697  -0.781452
N    -1.065369  -0.077761  1.930278
C    -2.018836  1.031415  1.909527
C    -1.328515  2.249280  2.554628
O    -0.222708  2.118328  3.197757
H    -1.036801  -0.602872  2.806590
H    -2.263230  1.302677  0.856243
C    -3.316174  0.575057  2.612062
C    -4.508000  1.542321  2.631330
C    -5.012131  2.031651  1.266447
N    -4.302640  3.229930  0.741694
C    -3.714360  3.168098  -0.542328
N    -3.923332  4.283934  -1.307880
N    -2.971187  2.147808  -0.825801
H    -3.083367  0.284041  3.650494
H    -3.620625  -0.344204  2.089500
H    -4.316834  2.403038  3.290058
H    -5.333059  0.997415  3.111637
H    -6.076375  2.285449  1.355103
H    -4.928036  1.238134  0.512949
H    -4.849203  4.078479  0.871872
H    -3.492505  4.320568  -2.224744
H    -4.796446  4.795496  -1.232945
H    -2.679691  2.153241  -1.805265
N    -1.904471  3.418937  2.395283
C    -1.399148  4.672687  2.947474
H    -2.773042  3.443469  1.810464
H    -2.177311  5.434070  2.844497
H    -0.505563  5.007306  2.404205
H    -1.151866  4.555494  4.008369
Sr    1.694029  0.943913  3.597298
