36
Energy: -108380.387496 eV PBE+vdW (tier 2 basis)
C    -0.381177  -0.227338  0.729846
C    -0.402194  -0.092644  2.215492
O    0.668652  -0.169021  2.894652
H    0.063892  0.667995  0.269513
H    -1.370895  -0.400907  0.298102
H    0.280083  -1.066787  0.476118
N    -1.569071  0.137491  2.861819
C    -2.550659  1.139384  2.422457
C    -1.786545  2.468309  2.223971
O    -0.732284  2.681550  2.929298
H    -1.503976  0.045826  3.876806
H    -3.017424  0.819873  1.481869
C    -3.621428  1.256151  3.537266
C    -4.825927  2.149381  3.230518
C    -5.883966  1.506628  2.307283
N    -6.790555  2.500148  1.743150
C    -6.602137  2.997766  0.451883
N    -6.538708  1.999668  -0.519599
N    -6.457812  4.269163  0.287346
H    -3.114669  1.616721  4.448155
H    -3.960400  0.229573  3.749041
H    -4.503970  3.112524  2.809743
H    -5.302433  2.401260  4.188764
H    -6.446332  0.750138  2.876609
H    -5.415632  0.975024  1.466109
H    -7.017237  3.267601  2.372675
H    -7.192107  1.229547  -0.391133
H    -6.537496  2.341473  -1.475886
H    -6.546586  4.547150  -0.695063
N    -2.187428  3.377989  1.357066
C    -3.278132  3.348462  0.378453
H    -1.637354  4.238700  1.374696
H    -3.671219  2.336506  0.254529
H    -2.881353  3.694611  -0.582896
H    -4.109012  4.008235  0.677091
Sr    1.199118  1.876856  3.873294
