36
Energy: -108381.766984 eV PBE+vdW (tier 2 basis)
C    0.492461  -0.486746  0.658238
C    -0.285072  0.042657  1.815021
O    0.250964  0.726912  2.723014
H    0.864274  0.386411  0.099350
H    -0.100809  -1.099352  -0.026650
H    1.376926  -1.035726  1.003415
N    -1.630887  -0.202850  1.934240
C    -2.328504  -1.484270  1.719532
C    -1.312826  -2.610192  1.979634
O    -0.617934  -2.497788  3.033006
H    -2.149940  0.509751  2.461004
H    -2.932718  -1.602831  2.629117
C    -3.352427  -1.476392  0.579692
C    -4.383045  -0.335242  0.766194
C    -5.389952  -0.405432  1.945921
N    -4.848837  -0.656860  3.301301
C    -3.912468  0.068191  3.964977
N    -3.673810  1.350755  3.515545
N    -3.110333  -0.406884  4.909938
H    -3.873494  -2.446996  0.557270
H    -2.862847  -1.342014  -0.396026
H    -3.844837  0.623588  0.782024
H    -5.006289  -0.290383  -0.138026
H    -6.108286  -1.216562  1.776789
H    -5.989176  0.517980  1.949395
H    -5.006355  -1.590449  3.665494
H    -3.302435  1.972364  4.229709
H    -4.401634  1.792861  2.959706
H    -3.466390  -1.301257  5.263074
N    -1.256308  -3.654273  1.167970
C    -0.413380  -4.833947  1.370641
H    -1.843404  -3.635210  0.337719
H    -1.038921  -5.733646  1.401153
H    0.125770  -4.726763  2.314453
H    0.302921  -4.923852  0.545172
Sr    -0.567834  -0.606771  4.600840
