36
Energy: -108382.418408 eV PBE+vdW (tier 2 basis)
C    -0.643473  -0.057497  0.504233
C    -0.673569  0.020235  2.002830
O    0.338998  -0.332661  2.669224
H    -1.576088  0.258984  0.025782
H    -0.420903  -1.090943  0.207847
H    0.179107  0.566013  0.129834
N    -1.805302  0.480499  2.566824
C    -2.170289  0.649474  3.992390
C    -0.907618  0.704092  4.857541
O    -0.572488  -0.361467  5.546883
H    -2.536003  0.745643  1.911177
H    -2.621519  1.652428  4.051720
C    -3.284353  -0.337054  4.406859
C    -3.102289  -1.840160  4.120168
C    -2.597002  -2.728753  5.263466
N    -3.453637  -2.702214  6.454110
C    -3.170194  -2.115498  7.625733
N    -3.955482  -2.362676  8.688507
N    -2.126114  -1.289155  7.747882
H    -4.187264  -0.002931  3.875357
H    -3.512600  -0.153241  5.467273
H    -2.422599  -1.992902  3.268710
H    -4.069952  -2.240768  3.785411
H    -1.584123  -2.447300  5.563396
H    -2.555528  -3.770899  4.918138
H    -4.337648  -3.198165  6.395827
H    -3.880976  -1.816810  9.537588
H    -4.623891  -3.123053  8.689011
H    -1.842034  -0.975741  8.667406
N    -0.069191  1.707317  4.834720
C    -0.288251  2.921389  4.060355
H    -1.589913  -0.947744  6.934395
H    0.110571  2.823480  3.036795
H    0.244349  3.748007  4.542740
H    -1.346701  3.209447  3.979199
Sr    1.592633  -0.082122  4.637613
