36
Energy: -108381.829511 eV PBE+vdW (tier 2 basis)
C    0.988758  -0.695182  1.215712
C    0.766917  0.056598  2.491285
O    1.748690  0.590739  3.098593
H    1.024725  0.000734  0.363626
H    0.213043  -1.441829  1.019083
H    1.965930  -1.187856  1.275339
N    -0.476065  0.173606  3.002737
C    -1.639745  0.498561  2.171534
C    -1.551764  2.012143  1.769951
O    -0.389781  2.605128  1.967019
H    -0.489266  0.604315  3.928617
H    -1.526339  -0.070112  1.236963
C    -2.960384  0.093511  2.869591
C    -3.880522  -0.834038  2.058793
C    -4.357906  -0.262481  0.714654
N    -4.923496  1.077265  0.829693
C    -6.210107  1.386911  0.929785
N    -7.169114  0.451084  1.047591
N    -6.578918  2.682911  0.914701
H    -3.506354  1.001427  3.156901
H    -2.707732  -0.426829  3.803164
H    -4.749509  -1.074525  2.689281
H    -3.376204  -1.791965  1.859284
H    -5.070893  -0.943103  0.230038
H    -3.516495  -0.174497  0.011373
H    -4.169909  1.804864  0.982155
H    -6.936946  -0.525893  1.160499
H    -8.141421  0.675050  0.876455
H    -7.517392  2.970093  1.159532
N    -2.596207  2.553267  1.248202
C    -2.508207  3.940466  0.803418
H    -5.917781  3.403691  0.659478
H    -3.304875  4.140649  0.075841
H    -1.546115  4.173421  0.325381
H    -2.642325  4.633841  1.648159
Sr    1.644441  2.902398  2.774024
