36
Energy: -108381.06145 eV PBE+vdW (tier 2 basis)
C    0.343852  -0.455153  0.954416
C    -0.113846  0.063295  2.278077
O    0.499064  1.023331  2.842338
H    0.272083  0.358011  0.217893
H    -0.238102  -1.310883  0.597328
H    1.403003  -0.736922  1.015176
N    -1.187720  -0.495319  2.850103
C    -1.885545  -0.014305  4.055727
C    -1.116444  -0.409357  5.340217
O    -0.166182  0.371967  5.704799
H    -1.643639  -1.252742  2.345803
H    -1.809311  1.085173  4.044345
C    -3.361303  -0.406097  4.007412
C    -4.263899  0.500323  3.164261
C    -5.719796  -0.035232  3.134795
N    -6.271325  -0.358449  4.447058
C    -5.912426  -1.500229  5.163752
N    -5.740703  -2.643364  4.382374
N    -5.686256  -1.582119  6.433447
H    -3.741107  -0.400728  5.036795
H    -3.464400  -1.448478  3.669168
H    -3.904060  0.585864  2.125950
H    -4.257945  1.518649  3.586195
H    -5.765937  -0.927793  2.498719
H    -6.369158  0.712327  2.661692
H    -6.463592  0.442487  5.041311
H    -6.418114  -2.751579  3.630789
H    -5.714897  -3.471501  4.972834
H    -5.767912  -0.673609  6.898483
N    -1.389341  -1.466142  6.084963
C    -2.377789  -2.548321  5.954778
H    -0.803459  -1.515132  6.919828
H    -2.019372  -3.383196  6.564001
H    -2.457093  -2.887332  4.918805
H    -3.371499  -2.236933  6.322344
Sr    1.295562  1.857540  4.801403
