36
Energy: -108382.238637 eV PBE+vdW (tier 2 basis)
C    -1.516784  -1.520458  1.870794
C    -0.833027  -0.751694  2.965823
O    0.438986  -0.495064  2.773029
H    -2.584110  -1.655812  2.063724
H    -1.035190  -2.499886  1.744227
H    -1.398955  -0.984928  0.919333
N    -1.524682  -0.399431  4.017740
C    -0.873265  0.318002  5.128466
C    -0.236518  1.652632  4.697071
O    1.009769  1.801050  4.497575
H    -2.724534  -1.527153  4.547727
H    -1.701126  0.619687  5.790152
C    0.071136  -0.592123  5.954591
C    -0.508296  -1.001586  7.318200
C    -1.894589  -1.653275  7.315642
N    -1.967820  -2.956921  6.637816
C    -2.864246  -3.282884  5.682919
N    -3.267649  -4.563671  5.590358
N    -3.326377  -2.355727  4.844586
H    1.025388  -0.077334  6.144593
H    0.297009  -1.488620  5.360184
H    -0.585384  -0.113973  7.965378
H    0.206256  -1.669003  7.822998
H    -2.648476  -1.006063  6.852154
H    -2.213705  -1.798717  8.358221
H    -1.535403  -3.738773  7.121205
H    -3.753575  -4.899413  4.767755
H    -3.206094  -5.196253  6.379289
H    -4.130264  -2.584035  4.270636
N    -1.075197  2.670718  4.542879
C    -0.698572  4.014140  4.111068
H    -2.062019  2.485845  4.700805
H    -1.361270  4.740513  4.591529
H    -0.791943  4.115858  3.021395
H    0.333817  4.214876  4.410061
Sr    2.339527  0.506237  3.152695
