36
Energy: -108382.469545 eV PBE+vdW (tier 2 basis)
C    -0.700145  1.268208  -0.282874
C    -0.877246  0.407045  0.924757
O    0.105950  0.008092  1.602889
H    -0.708521  2.329564  0.012145
H    -1.482265  1.112256  -1.033718
H    0.282851  1.063059  -0.719731
N    -2.131398  0.041933  1.319313
C    -3.269052  0.953144  1.344665
C    -2.932845  2.107411  2.339464
O    -1.977149  1.986168  3.156705
H    -2.112816  -0.591527  2.119036
H    -3.405662  1.382956  0.341687
C    -4.565504  0.209157  1.742731
C    -4.588179  -0.359259  3.177369
C    -4.134925  -1.832140  3.334189
N    -3.646323  -2.108638  4.686087
C    -2.456974  -1.653588  5.149762
N    -2.345994  -1.400761  6.479170
N    -1.412103  -1.389772  4.361729
H    -4.740238  -0.580433  0.997316
H    -5.400236  0.912130  1.623303
H    -5.608192  -0.276135  3.573591
H    -3.968822  0.267884  3.837279
H    -3.367713  -2.119087  2.600999
H    -4.969724  -2.516299  3.142385
H    -4.319800  -2.460483  5.359645
H    -1.442167  -1.547977  6.914208
H    -3.149990  -1.487548  7.091450
H    -1.451568  -1.992935  3.534216
N    -3.699151  3.189343  2.283795
C    -3.574966  4.366488  3.143727
H    -4.425138  3.216067  1.571749
H    -4.554829  4.615434  3.566370
H    -3.208538  5.221878  2.562593
H    -2.873078  4.146540  3.950911
Sr    -0.118988  0.638770  3.905152
