36
Energy: -108382.187318 eV PBE+vdW (tier 2 basis)
C    -0.124473  -0.431753  0.167444
C    -0.276722  -0.155228  1.636213
O    0.844571  0.085081  2.275024
H    0.409116  -1.381450  0.022879
H    0.492043  0.352566  -0.289864
H    -1.080031  -0.480111  -0.359234
N    -1.464025  -0.159992  2.194199
C    -1.483893  0.190048  3.624709
C    -0.868504  -0.925980  4.487079
O    0.241275  -0.718309  5.082397
H    -2.923920  -0.282316  0.965788
H    -0.787659  1.030252  3.783870
C    -2.871471  0.658327  4.181569
C    -4.077053  0.588536  3.241776
C    -4.035995  1.642133  2.121657
N    -4.955850  1.341916  1.022924
C    -4.746714  0.361891  0.132716
N    -5.655431  0.137162  -0.832838
N    -3.643085  -0.388106  0.211331
H    -2.751630  1.694421  4.528095
H    -3.110172  0.088401  5.089896
H    -4.990225  0.734666  3.835594
H    -4.163708  -0.413377  2.802731
H    -3.023061  1.736651  1.706705
H    -4.312449  2.630531  2.507118
H    -5.836940  1.840923  0.981797
H    -5.524791  -0.593179  -1.520440
H    -6.449251  0.750615  -0.966189
H    -3.481607  -1.099672  -0.489960
N    -1.450373  -2.113357  4.623887
C    -2.688378  -2.598629  4.020995
H    -0.959784  -2.749397  5.250797
H    -2.613534  -3.684707  3.907233
H    -2.817094  -2.152696  3.030929
H    -3.556830  -2.373189  4.653807
Sr    2.129145  0.109380  4.052930
