36
Energy: -108381.389967 eV PBE+vdW (tier 2 basis)
C    -1.948006  0.266743  0.709747
C    -1.334230  0.201228  2.067189
O    -0.077737  0.019437  2.207568
H    -2.683464  1.076993  0.635612
H    -2.486666  -0.683805  0.526897
H    -1.173236  0.399778  -0.049531
N    -2.142765  0.310888  3.126117
C    -1.782345  0.052642  4.532257
C    -0.746237  1.071962  5.034971
O    0.501627  0.828629  4.987412
H    -3.169323  0.195690  2.941317
H    -2.710320  0.266036  5.078235
C    -1.395961  -1.423986  4.813479
C    -2.424419  -2.190554  5.665094
C    -3.855763  -2.280262  5.096275
N    -3.929179  -2.816593  3.744448
C    -4.104368  -2.110912  2.574347
N    -4.707916  -0.826848  2.718731
N    -3.758805  -2.454069  1.384811
H    -0.430552  -1.462431  5.340096
H    -1.265273  -1.938608  3.850659
H    -2.485418  -1.748327  6.672338
H    -2.038222  -3.209773  5.815291
H    -4.338471  -1.294870  5.107324
H    -4.453824  -2.907592  5.772912
H    -3.593953  -3.766096  3.617550
H    -5.055948  -0.554966  1.797511
H    -5.488466  -0.817730  3.376673
H    -3.274953  -3.355040  1.351397
N    -1.172099  2.222203  5.537925
C    -2.551791  2.700779  5.677552
H    -0.432531  2.839409  5.872881
H    -2.513762  3.748552  5.988004
H    -3.091742  2.135856  6.448241
H    -3.086070  2.646483  4.722503
Sr    1.831137  -0.095454  3.368833
