36
Energy: -108380.969437 eV PBE+vdW (tier 2 basis)
C    -1.103971  0.266002  -0.390538
C    -0.688927  -0.071205  0.999582
O    0.524996  -0.343659  1.283738
H    -2.058712  -0.214508  -0.661818
H    -0.311697  -0.032770  -1.083158
H    -1.260276  1.351807  -0.497954
N    -1.595000  -0.063530  2.002648
C    -2.615334  0.971925  2.136515
C    -1.879895  2.315231  2.331458
O    -0.636230  2.323148  2.654152
H    -1.237614  -0.435206  2.884143
H    -3.234782  1.025091  1.214261
C    -3.545679  0.663365  3.332071
C    -4.229783  -0.718909  3.346456
C    -5.398267  -0.988194  2.376179
N    -5.021598  -1.304274  1.006483
C    -4.825545  -0.364221  0.026735
N    -4.263229  -0.840546  -1.149760
N    -4.996000  0.921232  0.152111
H    -4.308273  1.452757  3.382486
H    -2.958248  0.761691  4.260634
H    -4.630543  -0.841079  4.363799
H    -3.484898  -1.520105  3.224479
H    -6.118293  -0.154279  2.394219
H    -5.952391  -1.854323  2.758623
H    -5.078970  -2.279068  0.735055
H    -4.493514  -0.263846  -1.954699
H    -4.347016  -1.834311  -1.341563
H    -5.537478  1.118505  0.997913
N    -2.514907  3.461362  2.165736
C    -3.886535  3.693702  1.697969
H    -1.961612  4.288572  2.389334
H    -3.901346  4.648665  1.163452
H    -4.579309  3.759933  2.546742
H    -4.197445  2.901982  1.005247
Sr    1.443065  1.356339  2.555628
