36
Energy: -108382.459536 eV PBE+vdW (tier 2 basis)
C    -0.973213  -0.002563  3.144253
C    -1.727090  -0.528738  1.965648
O    -2.258298  -1.668481  1.978284
H    -1.671432  0.248034  3.956164
H    -0.355521  0.870983  2.914934
H    -0.334250  -0.810799  3.522923
N    -1.857343  0.241149  0.846265
C    -2.149442  1.669563  0.871426
C    -3.271949  1.921253  1.911492
O    -4.112105  1.011276  2.154081
H    -2.202404  -0.262322  0.029184
H    -1.244228  2.235145  1.139412
C    -2.677607  2.149545  -0.509300
C    -2.017391  1.543843  -1.772222
C    -2.872385  0.543614  -2.571280
N    -2.980347  -0.819600  -2.009727
C    -3.989357  -1.276024  -1.225196
N    -3.874707  -2.594851  -0.726530
N    -4.997022  -0.610695  -0.725344
H    -2.557311  3.239719  -0.526059
H    -3.762917  1.976846  -0.542461
H    -1.036670  1.101119  -1.543746
H    -1.803056  2.366753  -2.467375
H    -2.431678  0.420418  -3.567852
H    -3.882561  0.944795  -2.739393
H    -2.406717  -1.523917  -2.465976
H    -4.662590  -3.179677  -1.009228
H    -2.992143  -3.072403  -0.905920
H    -5.161803  0.295279  -1.165414
N    -3.314178  3.121961  2.474115
C    -4.340619  3.588370  3.406483
H    -2.574692  3.778320  2.234811
H    -4.851005  4.464599  2.989249
H    -3.877067  3.865030  4.360846
H    -5.064121  2.786655  3.568872
Sr    -4.645274  -1.299717  1.661217
