36
Energy: -108382.804821 eV PBE+vdW (tier 2 basis)
C    0.239004  -0.734407  -0.439056
C    -0.304151  -0.083081  0.790212
O    0.205733  0.969044  1.259802
H    0.222171  -0.008536  -1.263064
H    -0.313908  -1.631172  -0.737247
H    1.291175  -0.999853  -0.269756
N    -1.374304  -0.646283  1.401026
C    -1.988180  0.008522  2.549694
C    -1.207758  -0.254839  3.858552
O    -0.524336  0.702662  4.325786
H    -1.803836  -1.464994  0.980264
H    -1.793098  1.072349  2.367092
C    -3.514418  -0.079613  2.666100
C    -4.005207  1.076604  3.559714
C    -3.875027  2.455055  2.877790
N    -3.675070  3.555347  3.813850
C    -2.677593  4.475846  3.744723
N    -2.952008  5.680498  4.300520
N    -1.495870  4.201648  3.185038
H    -3.851922  -1.041657  3.069137
H    -3.945514  0.008593  1.656925
H    -3.438238  1.087919  4.503274
H    -5.051252  0.896895  3.838327
H    -4.773070  2.655105  2.273829
H    -3.028649  2.494458  2.180618
H    -4.470775  3.805076  4.392684
H    -2.212590  6.341131  4.501123
H    -3.899658  5.981922  4.493544
H    -1.051553  5.102517  2.975560
N    -1.228869  -1.428414  4.480365
C    -1.919743  -2.668246  4.129935
H    -0.674206  -1.447313  5.336764
H    -1.258650  -3.512198  4.354737
H    -2.157156  -2.701739  3.064288
H    -2.843041  -2.781090  4.712823
Sr    0.325738  2.530862  3.071656
