36
Energy: -108382.548256 eV PBE+vdW (tier 2 basis)
C    -0.762929  0.916125  0.117171
C    -1.488834  0.288762  1.271125
O    -1.979711  -0.861565  1.152891
H    -0.404459  1.931885  0.313294
H    -1.431952  0.933163  -0.753045
H    0.093213  0.282135  -0.149926
N    -1.571980  1.025872  2.400896
C    -2.193695  0.782748  3.724626
C    -1.601590  -0.451290  4.434954
O    -1.717918  -1.614581  3.959496
H    -1.128934  1.936531  2.328589
H    -1.883640  1.662747  4.297983
C    -3.748954  0.809103  3.751167
C    -4.427224  -0.450058  3.222435
C    -5.958943  -0.571061  3.231205
N    -6.297286  -1.950428  2.831736
C    -6.026888  -2.375615  1.534887
N    -6.835971  -1.854527  0.590319
N    -5.025752  -3.212231  1.312890
H    -4.064970  1.695571  3.182344
H    -4.050479  0.988457  4.794885
H    -4.070264  -1.295422  3.836392
H    -4.107181  -0.600194  2.179623
H    -6.429163  0.139395  2.540713
H    -6.384030  -0.390692  4.226440
H    -5.965384  -2.636947  3.506872
H    -7.745024  -1.493022  0.858163
H    -6.680745  -2.035578  -0.394265
H    -5.125639  -3.660557  0.394756
N    -0.986159  -0.267225  5.602705
C    -0.727282  0.978873  6.332499
H    -0.646326  -1.128669  6.029040
H    -0.199625  0.721916  7.255150
H    -1.659960  1.485656  6.608834
H    -0.085010  1.655813  5.755654
Sr    -2.656413  -2.868912  2.145177
