36
Energy: -108382.942484 eV PBE+vdW (tier 2 basis)
C    -0.457446  0.904414  0.250302
C    -0.259763  0.339835  1.623943
O    0.881008  -0.021224  2.011399
H    -0.161879  0.143418  -0.485182
H    0.214517  1.761097  0.111542
H    -1.486097  1.217115  0.043292
N    -1.351702  0.235297  2.411593
C    -1.461000  -0.401987  3.743890
C    -0.743761  0.478145  4.787395
O    0.513816  0.456542  4.911853
H    -2.225692  0.545181  1.997937
H    -2.534386  -0.378561  3.967005
C    -1.035192  -1.884187  3.713654
C    -1.444694  -2.770079  4.900543
C    -0.721220  -2.547465  6.244342
N    0.719700  -2.303618  6.140787
C    1.638384  -3.065386  5.483405
N    1.459178  -4.406237  5.506311
N    2.623900  -2.447743  4.837175
H    0.043600  -1.974495  3.538922
H    -1.506997  -2.302401  2.813313
H    -1.274877  -3.806176  4.577154
H    -2.527570  -2.697565  5.084980
H    -0.927529  -3.400279  6.907368
H    -1.123411  -1.674135  6.773836
H    0.998420  -1.337162  6.250573
H    0.924997  -4.840217  6.250698
H    2.098170  -5.010394  5.004328
H    3.385912  -3.099060  4.631401
N    -1.474654  1.278763  5.561441
C    -2.928202  1.478838  5.573825
H    -0.927145  1.848776  6.205540
H    -3.286950  1.876850  4.616742
H    -3.158030  2.213376  6.350580
H    -3.460265  0.551745  5.819219
Sr    2.464386  -0.242384  3.728113
