36
Energy: -108381.449895 eV PBE+vdW (tier 2 basis)
C    0.941043  -0.670819  0.137859
C    0.226871  -0.797198  1.444259
O    0.380636  -1.848371  2.157109
H    0.758785  0.293181  -0.347389
H    0.608447  -1.482952  -0.523623
H    2.019392  -0.806185  0.293487
N    -0.555255  0.210157  1.816495
C    -1.475381  0.282895  2.967389
C    -0.691797  0.320638  4.289956
O    -0.276713  -0.748616  4.840342
H    -0.698127  0.998133  1.123220
H    -1.946679  1.263387  2.847293
C    -2.607390  -0.772204  3.007929
C    -3.372424  -1.044044  1.700320
C    -4.320109  0.046770  1.159819
N    -3.682972  1.307567  0.769482
C    -2.565911  1.388208  -0.034042
N    -2.445153  0.407269  -0.991843
N    -1.574783  2.232275  0.110442
H    -3.303187  -0.457063  3.801914
H    -2.197373  -1.736017  3.349108
H    -3.995969  -1.932897  1.877302
H    -2.664439  -1.331803  0.910254
H    -5.079973  0.302832  1.909674
H    -4.880211  -0.379517  0.312953
H    -3.801921  2.086426  1.405533
H    -1.767079  0.641871  -1.710696
H    -3.303922  0.014051  -1.363977
H    -1.785419  2.942458  0.817688
N    -0.448607  1.490481  4.864142
C    -0.801563  2.834217  4.391720
H    0.055485  1.431721  5.748958
H    -0.478925  2.984880  3.355202
H    -0.274581  3.558846  5.018711
H    -1.878859  3.019601  4.488464
Sr    0.497194  -2.799432  4.180031
