36
Energy: -108382.152012 eV PBE+vdW (tier 2 basis)
C    -0.565986  2.006825  0.732836
C    -0.547275  0.888623  1.726298
O    0.422875  0.783462  2.561867
H    -0.511735  2.969278  1.258481
H    -1.459220  1.995785  0.100512
H    0.322263  1.932851  0.090533
N    -1.539020  0.019181  1.719893
C    -1.691270  -1.160551  2.562702
C    -2.802032  -1.972504  1.831994
O    -3.556266  -1.364843  1.070950
H    -2.330817  0.088802  1.055991
H    -0.738037  -1.712869  2.581500
C    -2.103410  -0.775235  4.004574
C    -1.773344  -1.850153  5.043889
C    -1.794833  -1.356934  6.501860
N    -1.086565  -0.083156  6.731568
C    0.166759  0.200265  6.353861
N    0.561271  1.576770  6.328590
N    1.085878  -0.608278  5.884820
H    -3.173481  -0.522724  4.021333
H    -1.565442  0.150439  4.252883
H    -0.793741  -2.294828  4.808180
H    -2.493715  -2.678601  4.994298
H    -1.392404  -2.132895  7.170039
H    -2.827301  -1.174014  6.822247
H    -1.598806  0.632304  7.237814
H    1.233519  1.781456  7.072834
H    -0.212991  2.239010  6.397380
H    0.880461  -1.597594  6.023952
N    -2.888991  -3.282421  2.124750
C    -3.902895  -4.159404  1.538025
H    -2.147797  -3.711658  2.667381
H    -4.282492  -4.846299  2.302060
H    -3.485414  -4.738599  0.704372
H    -4.722048  -3.539660  1.163548
Sr    2.035847  0.827982  4.131005
