36
Energy: -108381.746206 eV PBE+vdW (tier 2 basis)
C    -0.181077  -1.012887  1.910902
C    -1.146776  -1.298641  3.018359
O    -1.172914  -2.441132  3.575560
H    0.458010  -0.158070  2.166070
H    -0.710585  -0.752414  0.982417
H    0.446412  -1.890567  1.736257
N    -2.013139  -0.344786  3.427736
C    -2.765012  0.520917  2.491017
C    -3.411509  -0.380205  1.391601
O    -3.563132  -1.653909  1.706279
H    -2.532996  -0.620134  4.258886
H    -3.603688  0.888270  3.102914
C    -1.964610  1.746826  1.986499
C    -2.660376  3.108215  2.158883
C    -3.987977  3.273916  1.405300
N    -3.884997  2.931192  -0.009165
C    -3.716305  3.773328  -1.020984
N    -3.505002  5.088393  -0.834513
N    -3.754762  3.303699  -2.283438
H    -1.687897  1.596455  0.934752
H    -1.027756  1.791947  2.555258
H    -1.952275  3.884018  1.830997
H    -2.850040  3.302626  3.225677
H    -4.384288  4.290691  1.529090
H    -4.757403  2.607820  1.822734
H    -3.816479  1.886450  -0.141501
H    -3.371596  5.471843  0.090916
H    -3.619861  5.748797  -1.593136
H    -3.466935  3.871687  -3.069434
N    -3.785707  0.166041  0.287216
C    -4.478027  -0.670028  -0.689025
H    -4.078467  2.365553  -2.475242
H    -3.762242  -1.275931  -1.266057
H    -5.019058  -0.031608  -1.398671
H    -5.202474  -1.353963  -0.224666
Sr    -3.055253  -3.546316  2.727282
