36
Energy: -108382.345183 eV PBE+vdW (tier 2 basis)
C    0.674901  -1.632045  0.369512
C    0.302304  -0.633287  1.430212
O    1.150210  0.346574  1.626142
H    0.521356  -1.195658  -0.628366
H    0.092641  -2.554271  0.470909
H    1.738813  -1.886618  0.443386
N    -0.826710  -0.782015  2.076313
C    -1.150115  0.248698  3.066667
C    -0.189062  0.207682  4.266262
O    0.604398  1.189938  4.461715
H    -1.790960  -2.878089  -0.506941
H    -0.975327  1.250917  2.630809
C    -2.627949  0.221547  3.504382
C    -3.626584  0.486467  2.356839
C    -4.296019  -0.754623  1.763880
N    -3.330373  -1.631503  1.098554
C    -3.672159  -2.616754  0.274556
N    -4.955054  -2.981224  0.114711
N    -2.720677  -3.265996  -0.424964
H    -2.753018  0.998126  4.272084
H    -2.872680  -0.729935  3.995279
H    -3.148986  1.064951  1.551192
H    -4.440418  1.117558  2.737101
H    -5.051638  -0.431887  1.031544
H    -4.819511  -1.301810  2.567646
H    -2.319894  -1.484988  1.360755
H    -5.679890  -2.641063  0.732229
H    -5.236078  -3.613450  -0.624061
H    -2.927487  -4.108706  -0.944798
N    -0.141071  -0.826589  5.098470
C    -0.870287  -2.093248  5.047811
H    0.512483  -0.705840  5.871518
H    -1.175351  -2.305328  4.019781
H    -1.743999  -2.071327  5.711753
H    -0.198293  -2.890616  5.383248
Sr    2.046092  1.953882  2.837466
