36
Energy: -108381.796384 eV PBE+vdW (tier 2 basis)
C    -0.304049  -0.856291  0.656413
C    -0.641569  -0.941002  2.109995
O    -0.049791  -1.811346  2.836785
H    0.740676  -0.523859  0.568180
H    -0.937959  -0.170170  0.089667
H    -0.352075  -1.855957  0.207522
N    -1.529742  -0.142511  2.686770
C    -2.298050  0.995841  2.190014
C    -2.241078  1.981869  3.398495
O    -2.049082  1.484672  4.519343
H    -1.537134  -0.086475  3.726002
H    -1.828560  1.410462  1.290757
C    -3.786735  0.660948  1.936727
C    -4.141980  -0.470623  0.947995
C    -4.504199  -1.842660  1.553218
N    -3.400122  -2.815484  1.626420
C    -2.846206  -3.401801  2.700014
N    -2.967378  -2.793241  3.978380
N    -2.063829  -4.459074  2.706213
H    -4.251573  1.589186  1.577497
H    -4.263648  0.465223  2.911034
H    -3.365371  -0.599390  0.179750
H    -5.033045  -0.145264  0.394998
H    -5.283160  -2.312276  0.937320
H    -4.943424  -1.729161  2.553190
H    -3.148793  -3.240358  0.736627
H    -3.512274  -3.376298  4.617241
H    -3.349186  -1.847972  3.971869
H    -2.077205  -4.999523  1.839461
N    -2.447061  3.290208  3.197779
C    -2.703212  4.007218  1.952936
H    -2.455936  3.836279  4.057954
H    -2.208431  4.983348  1.996247
H    -3.778404  4.168456  1.793824
H    -2.290818  3.466722  1.094873
Sr    -0.330927  -3.603366  4.203119
