36
Energy: -108382.986617 eV PBE+vdW (tier 2 basis)
C    0.079780  -0.056699  0.282891
C    -0.065302  -0.128579  1.772559
O    0.935069  -0.348300  2.504025
H    0.833616  0.699886  0.029785
H    -0.852414  0.175364  -0.242444
H    0.461384  -1.021633  -0.078386
N    -1.305126  0.048120  2.279992
C    -1.742226  -0.093184  3.685305
C    -1.169496  1.055384  4.541805
O    0.019565  1.022665  4.961596
H    -2.041017  0.211700  1.599910
H    -2.831693  0.023678  3.651790
C    -1.425437  -1.488936  4.247737
C    -1.758348  -1.701193  5.728699
C    -1.030422  -2.933662  6.299102
N    0.425027  -2.807864  6.204500
C    1.249362  -2.106447  7.037603
N    0.923658  -2.072072  8.349963
N    2.293484  -1.481409  6.504536
H    -0.361358  -1.694907  4.075906
H    -1.970213  -2.216817  3.629236
H    -2.840453  -1.833659  5.870323
H    -1.465844  -0.826144  6.329350
H    -1.315044  -3.845003  5.757176
H    -1.332217  -3.092057  7.341104
H    0.872342  -3.129127  5.354808
H    1.467167  -1.505005  8.988802
H    0.373396  -2.814844  8.766303
H    3.006017  -1.296800  7.216924
N    -1.956721  2.087088  4.837951
C    -3.349434  2.328975  4.445655
H    -1.506481  2.804736  5.404928
H    -4.021249  1.564835  4.855390
H    -3.456271  2.380543  3.355394
H    -3.649782  3.296246  4.857760
Sr    2.101683  0.004121  4.530021
