36
Energy: -108382.841927 eV PBE+vdW (tier 2 basis)
C    -0.335759  0.476128  0.490998
C    -0.647962  0.104804  1.908251
O    0.099763  -0.673568  2.553202
H    -1.073487  1.145227  0.036266
H    -0.261274  -0.439300  -0.110474
H    0.650844  0.958153  0.460461
N    -1.760853  0.633131  2.459201
C    -2.259371  0.452035  3.836375
C    -1.144770  0.796064  4.857623
O    -0.455977  -0.106810  5.402902
H    -2.321833  1.227239  1.856567
H    -3.026586  1.228146  3.937272
C    -2.930361  -0.916445  4.166027
C    -2.862711  -2.034583  3.110825
C    -2.817816  -3.435486  3.731402
N    -1.584214  -3.607706  4.545266
C    -0.703002  -4.716022  4.368899
N    -1.192460  -5.860703  3.861545
N    0.537558  -4.456944  4.688459
H    -3.982588  -0.718876  4.404687
H    -2.476127  -1.262205  5.103017
H    -1.978057  -1.934379  2.469909
H    -3.729200  -1.979647  2.437891
H    -2.816257  -4.173990  2.920984
H    -3.706117  -3.628041  4.349486
H    -1.767070  -3.489164  5.542443
H    -0.574069  -6.636343  3.648971
H    -2.185754  -6.062014  3.863886
H    1.139898  -5.282397  4.710841
N    -0.941678  2.077981  5.157207
C    -1.649503  3.257992  4.653804
H    -0.208071  2.236349  5.846427
H    -2.711783  3.237524  4.929065
H    -1.201030  4.142021  5.115120
H    -1.544563  3.354356  3.566412
Sr    0.718177  -1.959044  4.446982
