36
Energy: -108381.904998 eV PBE+vdW (tier 2 basis)
C    0.273433  -0.401852  0.312704
C    -0.390781  -0.301880  1.653296
O    -0.065530  -1.113056  2.572983
H    -0.036218  0.376255  -0.392551
H    0.038603  -1.385113  -0.118406
H    1.362672  -0.361001  0.439111
N    -1.314460  0.653415  1.815669
C    -2.260600  0.941576  2.918322
C    -1.668427  1.408603  4.262613
O    -0.952883  0.513979  4.917021
H    -1.456771  1.234482  0.994530
H    -2.844722  1.777600  2.518792
C    -3.274769  -0.200112  3.173141
C    -4.402075  0.236413  4.133952
C    -4.113215  -0.024678  5.625943
N    -4.942673  0.782543  6.520203
C    -4.510312  1.725009  7.379681
N    -5.355892  2.138976  8.343205
N    -3.279418  2.233591  7.306737
H    -2.764493  -1.099324  3.549263
H    -3.710305  -0.476739  2.204018
H    -5.326160  -0.287745  3.855288
H    -4.611092  1.306943  3.993374
H    -3.067883  0.177394  5.878885
H    -4.298227  -1.084207  5.859627
H    -5.937480  0.581074  6.537762
H    -5.180867  2.990220  8.862102
H    -6.181871  1.608734  8.591269
H    -2.967220  2.827991  8.066366
N    -2.003536  2.511956  4.837594
C    -2.678526  3.614879  4.177552
H    -2.700952  2.273306  6.419086
H    -2.152548  4.543937  4.434244
H    -3.707051  3.721969  4.556008
H    -2.723942  3.558033  3.079080
Sr    0.464415  -1.139556  4.786046
