36
Energy: -108382.194876 eV PBE+vdW (tier 2 basis)
C    -0.891732  0.209919  1.060182
C    -1.072434  0.018247  2.550771
O    -0.251918  0.655531  3.316078
H    -0.145944  0.992205  0.893228
H    -1.829037  0.495776  0.566720
H    -0.530763  -0.716532  0.590283
N    -1.954927  -0.779161  3.154514
C    -2.581367  -1.949602  2.553787
C    -1.526642  -3.092618  2.618555
O    -0.618683  -3.024911  3.492195
H    -4.255670  2.671099  -2.898312
H    -3.338159  -2.277544  3.292189
C    -3.366421  -1.797252  1.229973
C    -4.451787  -0.716448  1.342393
C    -5.344722  -0.572839  0.102779
N    -4.693064  0.034050  -1.069140
C    -4.763753  1.324273  -1.426509
N    -5.196998  2.254272  -0.565786
N    -4.383081  1.694928  -2.658794
H    -3.873438  -2.752928  1.013518
H    -2.691203  -1.594558  0.387272
H    -3.993105  0.251296  1.596417
H    -5.115387  -0.961703  2.185968
H    -6.237070  0.023212  0.338009
H    -5.719670  -1.553588  -0.220942
H    -4.218108  -0.586265  -1.715908
H    -5.464071  3.177846  -0.885448
H    -5.332012  2.048153  0.415138
H    -4.314663  1.024431  -3.414885
N    -1.626784  -4.135020  1.795926
C    -0.756564  -5.310156  1.839801
H    -2.390577  -4.142982  1.129015
H    -0.527598  -5.630041  0.818015
H    -1.246281  -6.134249  2.374518
H    0.169075  -5.047381  2.357556
Sr    -0.261403  -1.073386  4.880661
