36
Energy: -108381.284121 eV PBE+vdW (tier 2 basis)
C    -1.019907  -0.463479  -0.262558
C    -0.731441  0.013741  1.123561
O    0.340037  0.652651  1.372990
H    -1.952804  -1.031046  -0.340474
H    -0.187561  -1.083502  -0.619780
H    -1.076221  0.409716  -0.927945
N    -1.627225  -0.235427  2.084460
C    -1.613363  0.300048  3.455835
C    -0.617911  -0.494387  4.339782
O    0.613337  -0.133944  4.267813
H    -2.472419  -0.736682  1.817604
H    -1.118638  1.280461  3.390309
C    -3.041133  0.545877  3.989689
C    -4.186804  -0.326860  3.434399
C    -5.331067  -0.547939  4.455515
N    -5.669072  0.610669  5.257259
C    -5.209850  0.753132  6.552228
N    -5.905887  1.677789  7.297780
N    -4.154435  0.091072  6.931724
H    -3.278812  1.594167  3.771348
H    -3.024514  0.478403  5.089690
H    -3.849314  -1.336948  3.140490
H    -4.593908  0.138721  2.524116
H    -5.053047  -1.350492  5.150209
H    -6.226073  -0.881936  3.914001
H    -6.459007  1.175614  4.973659
H    -6.900699  1.793017  7.135139
H    -5.632946  1.785596  8.266965
H    -3.983527  0.213077  7.931116
N    -0.935768  -1.481127  5.154516
C    -2.220476  -2.120350  5.462879
H    -0.130045  -1.835607  5.670803
H    -2.888503  -1.427347  6.010332
H    -2.004827  -2.987176  6.093273
H    -2.700852  -2.477970  4.546285
Sr    2.034720  0.927066  2.857886
