36
Energy: -108383.036762 eV PBE+vdW (tier 2 basis)
C    -1.879717  0.061932  0.526200
C    -1.466672  -0.250608  1.931556
O    -0.517522  -1.045950  2.158315
H    -2.700954  0.782618  0.456320
H    -2.181223  -0.872326  0.033223
H    -1.012965  0.449068  -0.025092
N    -2.156413  0.347019  2.926901
C    -2.008749  0.142864  4.382986
C    -0.700835  0.789504  4.887939
O    0.419830  0.256356  4.673137
H    -2.897204  0.977719  2.636696
H    -2.840162  0.705528  4.827849
C    -2.180771  -1.345445  4.775678
C    -1.593394  -1.751178  6.128602
C    -1.760659  -3.244717  6.435629
N    -1.422903  -4.184195  5.345134
C    -0.157060  -4.634654  5.078108
N    -0.031116  -5.968503  4.885260
N    0.857810  -3.782489  4.965497
H    -1.758677  -1.984217  3.988904
H    -3.259845  -1.556239  4.754742
H    -2.077198  -1.198634  6.948560
H    -0.526773  -1.495008  6.191219
H    -2.811513  -3.451368  6.674131
H    -1.174246  -3.491146  7.332141
H    -2.149936  -4.868313  5.162912
H    -0.709028  -6.626271  5.252573
H    0.814514  -6.360667  4.489177
H    1.734137  -4.306379  5.063658
N    -0.824602  1.928350  5.563957
C    0.288242  2.700132  6.114804
H    -1.758785  2.306052  5.693979
H    0.054959  2.987293  7.145871
H    0.453523  3.606342  5.518315
H    1.190986  2.085177  6.098673
Sr    1.192652  -1.709509  3.626547
