36
Energy: -108382.264182 eV PBE+vdW (tier 2 basis)
C    0.084445  0.659837  0.647936
C    0.233297  0.787300  2.137682
O    1.293418  0.516651  2.724807
H    -0.863591  1.048852  0.261175
H    0.168715  -0.400290  0.372600
H    0.917172  1.181925  0.160659
N    -0.857902  1.246404  2.825430
C    -0.926995  1.374454  4.280270
C    0.239480  2.212259  4.840428
O    0.735114  1.963990  5.976722
H    -1.715386  1.399447  2.303790
H    -1.797090  2.027307  4.464760
C    -1.263299  0.063376  5.038486
C    -0.558310  -1.263463  4.699985
C    0.726566  -1.632735  5.438457
N    1.868294  -0.730206  5.115824
C    3.167975  -1.233961  5.369207
N    3.897207  -1.630975  4.316627
N    3.522599  -1.194059  6.631544
H    -2.333203  -0.099338  4.850405
H    -1.204524  0.275629  6.118102
H    -0.395707  -1.353252  3.617022
H    -1.266652  -2.067800  4.944260
H    0.989273  -2.675134  5.203113
H    0.530651  -1.632316  6.533153
H    1.741228  -0.307617  4.174861
H    4.869192  -1.905755  4.415245
H    3.493936  -1.671043  3.387066
H    4.416644  -1.638777  6.845107
N    0.606475  3.279236  4.144580
C    1.622834  4.236064  4.571556
H    0.178146  3.409815  3.232469
H    2.631787  3.825174  4.430583
H    1.475490  4.495887  5.625229
H    1.525902  5.141672  3.966569
Sr    1.962847  0.567105  7.350606
