36
Energy: -108382.059346 eV PBE+vdW (tier 2 basis)
C    -0.797119  0.940346  -1.208987
C    -0.498647  0.993135  0.256834
O    0.721052  0.988371  0.664560
H    -0.330965  1.800168  -1.708877
H    -1.870530  0.948387  -1.422266
H    -0.357723  0.029790  -1.638151
N    -1.508251  1.044434  1.100371
C    -1.483769  1.071209  2.556512
C    -2.941428  0.646452  2.924098
O    -3.801099  0.692454  2.042398
H    -2.496363  0.989644  0.779988
H    -0.768941  0.316262  2.918998
C    -1.145221  2.483487  3.127338
C    -0.087322  2.505689  4.238135
C    1.305756  2.168772  3.707495
N    2.335923  2.236705  4.720194
C    3.616081  1.851993  4.486410
N    4.493011  1.985278  5.503381
N    3.949508  1.364670  3.288845
H    -2.066489  2.944495  3.505386
H    -0.814660  3.124004  2.297111
H    -0.348853  1.809308  5.050293
H    -0.073703  3.512070  4.682814
H    1.530883  2.870486  2.876297
H    1.283618  1.140163  3.304823
H    2.130171  2.749947  5.570300
H    5.469903  1.751052  5.384708
H    4.208576  2.282760  6.428648
H    4.929462  1.068354  3.321108
N    -3.161567  0.298654  4.202727
C    -4.482136  -0.061909  4.718915
H    -2.372758  0.240442  4.836989
H    -4.747073  0.582340  5.565526
H    -4.494215  -1.109961  5.041760
H    -5.212049  0.075515  3.916891
Sr    2.934283  1.011983  1.097553
