36
Energy: -108381.020722 eV PBE+vdW (tier 2 basis)
C    -0.630767  -0.195284  -0.025310
C    -0.307114  -0.230580  1.431599
O    0.843225  -0.582326  1.839127
H    -0.094302  -1.011992  -0.522513
H    -0.269356  0.745129  -0.471557
H    -1.703767  -0.280409  -0.221859
N    -1.236137  0.150009  2.340595
C    -2.029491  1.387623  2.201163
C    -1.025401  2.517526  1.857787
O    0.149659  2.477227  2.393478
H    -0.965576  -0.049306  3.305084
H    -2.742522  1.287364  1.373893
C    -2.771925  1.577664  3.548852
C    -3.709508  2.780056  3.742122
C    -5.125794  2.672167  3.142701
N    -5.172752  2.612549  1.678090
C    -4.501713  3.522764  0.896894
N    -4.436775  4.803341  1.377967
N    -3.826110  3.247704  -0.196595
H    -1.996076  1.631823  4.331444
H    -3.324369  0.641263  3.727338
H    -3.229770  3.706612  3.394447
H    -3.838312  2.907536  4.826820
H    -5.728610  3.516728  3.508773
H    -5.635068  1.772033  3.510489
H    -5.242600  1.685193  1.275277
H    -4.179548  5.494147  0.680686
H    -5.158272  5.112007  2.020423
H    -3.970452  2.281598  -0.501046
N    -1.379173  3.436793  0.999590
C    -0.523037  4.555442  0.617216
H    -2.340012  3.360231  0.487057
H    -1.057314  5.147380  -0.130914
H    0.419257  4.201656  0.178039
H    -0.294358  5.185734  1.485442
Sr    1.999289  1.215507  2.785054
