36
Energy: -108382.92101 eV PBE+vdW (tier 2 basis)
C    -3.055632  -0.748354  1.949968
C    -2.220465  -0.578494  3.184954
O    -1.584374  -1.549391  3.665814
H    -3.593114  0.157127  1.649632
H    -3.780125  -1.556030  2.116101
H    -2.406897  -1.066782  1.122942
N    -2.194892  0.649892  3.742260
C    -1.484624  1.102774  4.955745
C    0.044856  1.076246  4.709688
O    0.679943  -0.010667  4.780148
H    -2.752475  1.356606  3.273364
H    -1.808810  2.141637  5.083129
C    -1.792444  0.323056  6.246007
C    -3.253883  -0.042972  6.544801
C    -3.360834  -1.239239  7.510762
N    -3.103566  -2.537013  6.863137
C    -1.897826  -3.085371  6.608258
N    -1.840178  -4.094541  5.625848
N    -0.718683  -2.720281  7.057344
H    -1.384105  0.919187  7.076516
H    -1.196207  -0.590069  6.232559
H    -3.796619  -0.296996  5.622822
H    -3.783504  0.811368  6.989591
H    -4.374261  -1.297848  7.924086
H    -2.691803  -1.118612  8.375003
H    -3.923485  -3.056871  6.567114
H    -1.413469  -4.953784  5.973157
H    -2.704223  -4.288510  5.123390
H    -0.761477  -2.109893  7.874905
N    0.674317  2.213467  4.425366
C    0.118957  3.564944  4.298618
H    1.678941  2.111270  4.285713
H    -0.648308  3.611793  3.516425
H    0.932681  4.235174  4.008341
H    -0.289723  3.923540  5.251422
Sr    0.314972  -2.383063  4.806388
