36
Energy: -108382.127211 eV PBE+vdW (tier 2 basis)
C    0.186861  0.621100  1.217034
C    1.115592  -0.147144  2.128251
O    2.334892  0.265819  2.208899
H    -0.698121  0.982237  1.754999
H    -0.158988  -0.008352  0.384016
H    0.722851  1.479411  0.802967
N    0.816923  -1.249415  2.822522
C    -0.258309  -2.171387  2.473756
C    0.267693  -2.989678  1.261035
O    1.506570  -3.214532  1.190224
H    -7.241181  0.261981  3.281668
H    -0.258820  -2.921097  3.287329
C    -1.709875  -1.625568  2.419963
C    -2.758521  -2.632356  2.921260
C    -4.198475  -2.109970  2.955105
N    -4.382494  -1.095168  4.003704
C    -5.453461  -0.295620  4.125512
N    -5.469854  0.658147  5.068230
N    -6.495537  -0.424102  3.295376
H    -1.976536  -1.264970  1.414267
H    -1.725714  -0.735236  3.064312
H    -2.482052  -2.991755  3.926786
H    -2.773035  -3.538587  2.296828
H    -4.881697  -2.956197  3.132780
H    -4.459373  -1.654134  1.987714
H    -3.757210  -1.142449  4.802608
H    -6.325836  1.139993  5.316332
H    -4.633358  0.914611  5.577552
H    -6.629159  -1.258918  2.739100
N    -0.581867  -3.458045  0.346681
C    -0.197226  -4.280430  -0.800231
H    -1.558607  -3.201437  0.431924
H    -0.257432  -3.699112  -1.729012
H    -0.864766  -5.146230  -0.873132
H    0.829944  -4.623415  -0.655861
Sr    3.124850  -1.909530  2.464587
